data_image0
_chemical_formula_structural       C140Cr12H60O52H8F4
_chemical_formula_sum              "C140 Cr12 H68 O52 F4"
_cell_length_a       19.04094
_cell_length_b       11.00359
_cell_length_c       18.63494
_cell_angle_alpha    90.19890999999998
_cell_angle_beta     91.52893000000002
_cell_angle_gamma    90.03993

_symmetry_space_group_name_H-M    'P 1'
_symmetry_Int_Tables_number       1

loop_
  _symmetry_equiv_pos_as_xyz
  'x,y,z'

loop_
  _atom_site_type_symbol
  _atom_site_label
  _atom_site_symmetry_multiplicity
  _atom_site_fract_x
  _atom_site_fract_y
  _atom_site_fract_z
  _atom_site_occupancy
  C   C1        1.0  0.72967  0.37335  0.14517  1.0000
  C   C2        1.0  0.27155  0.37162000000000006  0.8559  1.0000
  C   C3        1.0  0.22967000000000004  0.87336  0.14517  1.0000
  C   C4        1.0  0.77155  0.8716200000000002  0.8559  1.0000
  C   C5        1.0  0.4603400000000001  0.07563  0.030039999999999997  1.0000
  C   C6        1.0  0.5168900000000001  0.05353000000000001  0.9737800000000001  1.0000
  C   C7        1.0  0.96032  0.57566  0.030039999999999997  1.0000
  C   C8        1.0  0.016860000000000003  0.55351  0.9737800000000001  1.0000
  C   C9        1.0  0.75916  0.8923100000000002  0.93267  1.0000
  C   C10       1.0  0.24582000000000007  0.90029  0.07019  1.0000
  C   C11       1.0  0.25916  0.39232  0.9326600000000002  1.0000
  C   C12       1.0  0.7458200000000001  0.40026000000000006  0.07018  1.0000
  C   C13       1.0  0.69924  0.84751  0.96863  1.0000
  C   C14       1.0  0.29841  0.83762  0.03065  1.0000
  C   C15       1.0  0.19923000000000005  0.34755  0.9686099999999999  1.0000
  C   C16       1.0  0.79839  0.33755  0.030629999999999998  1.0000
  C   C17       1.0  0.70166  0.84283  0.04467  1.0000
  C   C18       1.0  0.29363  0.8387800000000002  0.9545300000000001  1.0000
  C   C19       1.0  0.20164  0.34287000000000006  0.04465  1.0000
  C   C20       1.0  0.79361  0.3387300000000001  0.9544999999999999  1.0000
  C   C21       1.0  0.8166  0.9347  0.04759  1.0000
  C   C22       1.0  0.19231000000000004  0.97111  0.9597499999999999  1.0000
  C   C23       1.0  0.3166  0.4347  0.04759  1.0000
  C   C24       1.0  0.69232  0.47113000000000005  0.9597499999999999  1.0000
  C   C25       1.0  0.8183400000000002  0.9281000000000001  0.9740899999999999  1.0000
  C   C26       1.0  0.19365  0.96508  0.03284  1.0000
  C   C27       1.0  0.31834  0.42810000000000004  0.9740899999999999  1.0000
  C   C28       1.0  0.69366  0.46508  0.03285  1.0000
  C   C29       1.0  0.63792  0.80396  0.9326  1.0000
  C   C30       1.0  0.3546  0.7718200000000001  0.06302  1.0000
  C   C31       1.0  0.13791000000000003  0.30401000000000006  0.9325700000000001  1.0000
  C   C32       1.0  0.8545800000000001  0.27171  0.06297999999999998  1.0000
  C   C33       1.0  0.08664000000000002  0.24176000000000006  0.97001  1.0000
  C   C34       1.0  0.89757  0.19832  0.02181  1.0000
  C   C35       1.0  0.58665  0.74172  0.9700599999999999  1.0000
  C   C36       1.0  0.39759  0.69839  0.02188  1.0000
  C   C37       1.0  0.59443  0.72484  0.04378  1.0000
  C   C38       1.0  0.38909  0.6938  0.9477699999999999  1.0000
  C   C39       1.0  0.09441000000000001  0.22487000000000004  0.04373  1.0000
  C   C40       1.0  0.8890600000000002  0.19376  0.9477  1.0000
  C   C41       1.0  0.65085  0.77601  0.08091  1.0000
  C   C42       1.0  0.33730000000000004  0.7626399999999999  0.9142599999999999  1.0000
  C   C43       1.0  0.15082  0.27607  0.08088  1.0000
  C   C44       1.0  0.8372500000000003  0.26259  0.91422  1.0000
  C   C45       1.0  0.53139  0.15551000000000004  0.14497  1.0000
  C   C46       1.0  0.4680100000000001  0.15557000000000004  0.8554699999999998  1.0000
  C   C47       1.0  0.03139000000000001  0.6555100000000001  0.14497  1.0000
  C   C48       1.0  0.9680100000000001  0.65557  0.8554699999999998  1.0000
  C   C49       1.0  0.75595  0.90322  0.08279999999999998  1.0000
  C   C50       1.0  0.24466  0.91558  0.9202199999999999  1.0000
  C   C51       1.0  0.25594  0.40323  0.08279  1.0000
  C   C52       1.0  0.74465  0.41557  0.9202099999999999  1.0000
  C   C53       1.0  0.48935  0.16022000000000003  0.57219  1.0000
  C   C54       1.0  0.54541  0.14723000000000003  0.43603  1.0000
  C   C55       1.0  0.95437  0.64709  0.56395  1.0000
  C   C56       1.0  0.010690000000000002  0.6610900000000001  0.4279299999999999  1.0000
  C   C57       1.0  0.47019000000000005  0.06382  0.52507  1.0000
  C   C58       1.0  0.50811  0.04515  0.46358  1.0000
  C   C59       1.0  0.9922300000000002  0.5458500000000001  0.53615  1.0000
  C   C60       1.0  0.03028  0.5653100000000001  0.4749  1.0000
  C   C61       1.0  0.56152  0.24626000000000003  0.48101  1.0000
  C   C62       1.0  0.5372200000000001  0.24839000000000003  0.55084  1.0000
  C   C63       1.0  0.9623000000000003  0.7484000000000001  0.4494699999999999  1.0000
  C   C64       1.0  0.93788  0.74588  0.51928  1.0000
  C   C65       1.0  0.4168000000000001  0.9800800000000002  0.53994  1.0000
  C   C66       1.0  0.50432  0.9262  0.43177999999999994  1.0000
  C   C67       1.0  0.9963800000000002  0.42699  0.56743  1.0000
  C   C68       1.0  0.0841  0.48262000000000005  0.4598999999999999  1.0000
  C   C69       1.0  0.04180999999999999  0.33975  0.5439599999999999  1.0000
  C   C70       1.0  0.08324  0.36618  0.48793  1.0000
  C   C71       1.0  0.41765000000000013  0.8639700000000001  0.51095  1.0000
  C   C72       1.0  0.45906  0.8384200000000002  0.4547  1.0000
  C   C73       1.0  0.7380100000000003  0.96452  0.59129  1.0000
  C   C74       1.0  0.20768  0.83395  0.44206999999999996  1.0000
  C   C75       1.0  0.29219  0.33401000000000003  0.55773  1.0000
  C   C76       1.0  0.7623  0.46499  0.4087  1.0000
  C   C77       1.0  0.781  0.05635  0.56374  1.0000
  C   C78       1.0  0.15252  0.89437  0.4803  1.0000
  C   C79       1.0  0.34736  0.39476  0.5198  1.0000
  C   C80       1.0  0.71943  0.55684  0.43655  1.0000
  C   C81       1.0  0.785  0.0702  0.48847  1.0000
  C   C82       1.0  0.15999  0.9066100000000001  0.5559199999999999  1.0000
  C   C83       1.0  0.33988  0.4075200000000001  0.44423  1.0000
  C   C84       1.0  0.71522  0.57039  0.51185  1.0000
  C   C85       1.0  0.67917  0.94812  0.47662  1.0000
  C   C86       1.0  0.26558  0.79125  0.55787  1.0000
  C   C87       1.0  0.23472  0.29092000000000007  0.4415299999999999  1.0000
  C   C88       1.0  0.8211  0.44861  0.52331  1.0000
  C   C89       1.0  0.74302  0.9646  0.15092  1.0000
  C   C90       1.0  0.2571  0.9668100000000001  0.84975  1.0000
  C   C91       1.0  0.24301  0.46461000000000013  0.15091  1.0000
  C   C92       1.0  0.75709  0.4668000000000001  0.84974  1.0000
  C   C93       1.0  0.6813700000000001  0.9242600000000002  0.5497999999999998  1.0000
  C   C94       1.0  0.25838  0.7701100000000002  0.48346999999999996  1.0000
  C   C95       1.0  0.24168  0.26987  0.51591  1.0000
  C   C96       1.0  0.81891  0.42470000000000013  0.45004999999999995  1.0000
  C   C97       1.0  0.826  0.12395  0.60987  1.0000
  C   C98       1.0  0.0897  0.94179  0.44808  1.0000
  C   C99       1.0  0.41029  0.44183  0.55226  1.0000
  C   C100      1.0  0.67452  0.6242400000000001  0.39061  1.0000
  C   C101      1.0  0.8856700000000001  0.17645  0.58359  1.0000
  C   C102      1.0  0.03661000000000001  0.99087  0.48904999999999993  1.0000
  C   C103      1.0  0.46343  0.49108  0.51158  1.0000
  C   C104      1.0  0.61461  0.67595  0.41692  1.0000
  C   C105      1.0  0.8946800000000001  0.18072000000000002  0.51008  1.0000
  C   C106      1.0  0.04145  0.98728  0.56319  1.0000
  C   C107      1.0  0.45854  0.4879800000000001  0.43743  1.0000
  C   C108      1.0  0.60535  0.67999  0.49042  1.0000
  C   C109      1.0  0.84329  0.13552  0.463  1.0000
  C   C110      1.0  0.10217000000000001  0.94404  0.59655  1.0000
  C   C111      1.0  0.39773  0.4451400000000001  0.40382  1.0000
  C   C112      1.0  0.6567  0.63513  0.53745  1.0000
  C   C113      1.0  0.73252  0.013180000000000002  0.44355  1.0000
  C   C114      1.0  0.22530000000000006  0.8801200000000001  0.58965  1.0000
  C   C115      1.0  0.27466  0.38062  0.41028  1.0000
  C   C116      1.0  0.7677  0.51345  0.55657  1.0000
  C   C117      1.0  0.73432  0.38982  0.34863  1.0000
  C   C118      1.0  0.29072  0.32818  0.63821  1.0000
  C   C119      1.0  0.20919  0.8282500000000003  0.36164  1.0000
  C   C120      1.0  0.7657500000000002  0.8896200000000001  0.65131  1.0000
  C   C121      1.0  0.56456  0.15112  0.36077  1.0000
  C   C122      1.0  0.46472000000000013  0.15670000000000003  0.64549  1.0000
  C   C123      1.0  0.03515  0.657  0.35449  1.0000
  C   C124      1.0  0.93535  0.6508300000000001  0.63925  1.0000
  C   C125      1.0  0.72895  0.025040000000000007  0.36411  1.0000
  C   C126      1.0  0.25257  0.9588700000000001  0.64989  1.0000
  C   C127      1.0  0.24741  0.45899000000000006  0.35012  1.0000
  C   C128      1.0  0.7711300000000003  0.5250500000000001  0.63603  1.0000
  C   C129      1.0  0.5391799999999999  0.24996  0.9702299999999999  1.0000
  C   C130      1.0  0.48266000000000003  0.27237  0.02714  1.0000
  C   C131      1.0  0.03919  0.7499300000000001  0.9702299999999999  1.0000
  C   C132      1.0  0.98268  0.77239  0.027130000000000005  1.0000
  C   C133      1.0  0.56772  0.14069  0.01401  1.0000
  C   C134      1.0  0.4318000000000001  0.18474000000000002  0.9865  1.0000
  C   C135      1.0  0.06772000000000003  0.64065  0.01401  1.0000
  C   C136      1.0  0.9318  0.68478  0.98649  1.0000
  C   C137      1.0  0.51054  0.1628  0.06954999999999999  1.0000
  C   C138      1.0  0.48889  0.16249000000000002  0.93104  1.0000
  C   C139      1.0  0.010540000000000002  0.6628  0.06954  1.0000
  C   C140      1.0  0.9888800000000002  0.66248  0.93103  1.0000
  Cr  Cr1       1.0  0.7728200000000002  0.16982  0.25264  1.0000
  Cr  Cr2       1.0  0.22718  0.16982  0.74736  1.0000
  Cr  Cr3       1.0  0.27282000000000006  0.66982  0.25264  1.0000
  Cr  Cr4       1.0  0.72718  0.66982  0.74736  1.0000
  Cr  Cr5       1.0  0.6150400000000001  0.32361  0.24915  1.0000
  Cr  Cr6       1.0  0.38496000000000014  0.32361  0.75085  1.0000
  Cr  Cr7       1.0  0.11504000000000003  0.82361  0.24915  1.0000
  Cr  Cr8       1.0  0.88496  0.82361  0.75085  1.0000
  Cr  Cr9       1.0  0.6167200000000003  0.01113  0.25066  1.0000
  Cr  Cr10      1.0  0.38328  0.01113  0.74934  1.0000
  Cr  Cr11      1.0  0.11672000000000002  0.51113  0.25066  1.0000
  Cr  Cr12      1.0  0.8832800000000001  0.51113  0.74934  1.0000
  H   H1        1.0  0.6239700000000001  0.12201000000000002  0.02705  1.0000
  H   H2        1.0  0.37539  0.19985  0.9730900000000001  1.0000
  H   H3        1.0  0.12395000000000002  0.6219300000000001  0.02704  1.0000
  H   H4        1.0  0.87539  0.6999100000000001  0.9730799999999998  1.0000
  H   H5        1.0  0.5937100000000001  0.32049000000000005  0.46248  1.0000
  H   H6        1.0  0.5536900000000002  0.32055000000000006  0.58721  1.0000
  H   H7        1.0  0.9455100000000001  0.8201700000000001  0.41329999999999995  1.0000
  H   H8        1.0  0.90533  0.81959  0.53803  1.0000
  H   H9        1.0  0.04238  0.24960000000000002  0.56703  1.0000
  H   H10       1.0  0.10976  0.29251  0.46443  1.0000
  H   H11       1.0  0.39086  0.7899200000000001  0.53362  1.0000
  H   H12       1.0  0.45854  0.74853  0.43093  1.0000
  H   H13       1.0  0.6383900000000001  0.9078500000000003  0.4446899999999999  1.0000
  H   H14       1.0  0.30418  0.7436200000000001  0.59067  1.0000
  H   H15       1.0  0.19647  0.24257000000000004  0.40841  1.0000
  H   H16       1.0  0.8619  0.40849  0.55512  1.0000
  H   H17       1.0  0.81882  0.12583  0.6673599999999998  1.0000
  H   H18       1.0  0.07633  0.9387200000000002  0.39209  1.0000
  H   H19       1.0  0.42379000000000006  0.4381300000000001  0.60819  1.0000
  H   H20       1.0  0.6818400000000002  0.62612  0.33314  1.0000
  H   H21       1.0  0.92488  0.21122  0.62096  1.0000
  H   H22       1.0  0.98917  0.023200000000000002  0.46252  1.0000
  H   H23       1.0  0.5109600000000001  0.5230200000000002  0.53829  1.0000
  H   H24       1.0  0.57542  0.71024  0.37957  1.0000
  H   H25       1.0  0.9399900000000001  0.22354000000000002  0.48802999999999996  1.0000
  H   H26       1.0  0.9979800000000002  0.01674  0.59502  1.0000
  H   H27       1.0  0.50207  0.51736  0.40575  1.0000
  H   H28       1.0  0.55984  0.7223700000000002  0.51247  1.0000
  H   H29       1.0  0.8530700000000001  0.15377  0.40785999999999994  1.0000
  H   H30       1.0  0.10344  0.93869  0.65459  1.0000
  H   H31       1.0  0.3965300000000001  0.43991  0.34576999999999997  1.0000
  H   H32       1.0  0.64666  0.65316  0.59264  1.0000
  H   H33       1.0  0.57116  0.32008000000000003  0.94368  1.0000
  H   H34       1.0  0.4691500000000001  0.36161000000000004  0.05087  1.0000
  H   H35       1.0  0.07118  0.82003  0.94366  1.0000
  H   H36       1.0  0.96918  0.8616400000000001  0.05085  1.0000
  H   H37       1.0  0.4279200000000001  0.005410000000000001  0.05601  1.0000
  H   H38       1.0  0.53006  0.9650100000000003  0.94947  1.0000
  H   H39       1.0  0.92788  0.5054500000000001  0.05601  1.0000
  H   H40       1.0  0.03001  0.46498  0.94947  1.0000
  H   H41       1.0  0.86192  0.9704200000000002  0.07686  1.0000
  H   H42       1.0  0.15123  0.025150000000000002  0.9344699999999999  1.0000
  H   H43       1.0  0.3619100000000001  0.47042  0.07686  1.0000
  H   H44       1.0  0.6512500000000001  0.5252000000000001  0.93448  1.0000
  H   H45       1.0  0.62785  0.81796  0.87602  1.0000
  H   H46       1.0  0.3678400000000001  0.77669  0.11948  1.0000
  H   H47       1.0  0.12785  0.31803  0.87599  1.0000
  H   H48       1.0  0.8678100000000001  0.27654  0.11944  1.0000
  H   H49       1.0  0.8679700000000001  0.9475000000000002  0.95012  1.0000
  H   H50       1.0  0.15108000000000005  0.00824  0.06004  1.0000
  H   H51       1.0  0.3679800000000001  0.44748000000000004  0.95013  1.0000
  H   H52       1.0  0.6511100000000001  0.5082700000000001  0.06005  1.0000
  H   H53       1.0  0.04202  0.20407  0.94114  1.0000
  H   H54       1.0  0.9354000000000001  0.14033000000000004  0.04798  1.0000
  H   H55       1.0  0.54203  0.70403  0.9411999999999999  1.0000
  H   H56       1.0  0.4354100000000001  0.64041  0.04807  1.0000
  H   H57       1.0  0.65634  0.75755  0.1378  1.0000
  H   H58       1.0  0.33004  0.7521900000000002  0.8568  1.0000
  H   H59       1.0  0.1563  0.2576  0.13776  1.0000
  H   H60       1.0  0.8299900000000002  0.25215  0.85675  1.0000
  O   O1        1.0  0.7881900000000001  0.043  0.17252  1.0000
  O   O2        1.0  0.21181  0.043  0.8274799999999999  1.0000
  O   O3        1.0  0.28819  0.543  0.17252  1.0000
  O   O4        1.0  0.71181  0.543  0.8274799999999999  1.0000
  O   O5        1.0  0.5565500000000002  0.25326  0.32347999999999993  1.0000
  O   O6        1.0  0.44345  0.25326  0.67652  1.0000
  O   O7        1.0  0.05655000000000001  0.7532600000000002  0.32347999999999993  1.0000
  O   O8        1.0  0.94345  0.7532600000000002  0.67652  1.0000
  O   O9        1.0  0.5458300000000003  0.05161000000000002  0.33016  1.0000
  O   O10       1.0  0.45417  0.05161000000000002  0.66984  1.0000
  O   O11       1.0  0.04583  0.5516100000000002  0.33016  1.0000
  O   O12       1.0  0.95417  0.5516100000000002  0.66984  1.0000
  O   O13       1.0  0.68192  0.95972  0.32706999999999997  1.0000
  O   O14       1.0  0.3180800000000001  0.95972  0.67293  1.0000
  O   O15       1.0  0.18192000000000005  0.45972000000000013  0.32706999999999997  1.0000
  O   O16       1.0  0.8180800000000001  0.45972000000000013  0.67293  1.0000
  O   O17       1.0  0.66819  0.16819  0.25082  1.0000
  O   O18       1.0  0.33181  0.16819  0.7491799999999998  1.0000
  O   O19       1.0  0.16819  0.6681900000000001  0.25082  1.0000
  O   O20       1.0  0.8318100000000003  0.6681900000000001  0.7491799999999998  1.0000
  O   O21       1.0  0.7662400000000001  0.29230000000000006  0.17686  1.0000
  O   O22       1.0  0.23376000000000005  0.29230000000000006  0.82314  1.0000
  O   O23       1.0  0.26624  0.7923000000000002  0.17686  1.0000
  O   O24       1.0  0.7337600000000001  0.7923000000000002  0.82314  1.0000
  O   O25       1.0  0.67031  0.40916  0.16872  1.0000
  O   O26       1.0  0.32969  0.40916  0.83128  1.0000
  O   O27       1.0  0.17031  0.9091600000000002  0.16872  1.0000
  O   O28       1.0  0.8296900000000003  0.9091600000000002  0.83128  1.0000
  O   O29       1.0  0.55616  0.2519  0.17338  1.0000
  O   O30       1.0  0.44384000000000007  0.2519  0.82662  1.0000
  O   O31       1.0  0.05616000000000001  0.7519  0.17338  1.0000
  O   O32       1.0  0.94384  0.7519  0.82662  1.0000
  O   O33       1.0  0.54541  0.05014  0.16824  1.0000
  O   O34       1.0  0.4545900000000001  0.05014  0.83176  1.0000
  O   O35       1.0  0.045410000000000006  0.55014  0.16824  1.0000
  O   O36       1.0  0.95459  0.55014  0.83176  1.0000
  O   O37       1.0  0.68153  0.9583500000000001  0.17696999999999996  1.0000
  O   O38       1.0  0.31847  0.9583500000000001  0.82303  1.0000
  O   O39       1.0  0.18153000000000002  0.45835  0.17696999999999996  1.0000
  O   O40       1.0  0.81847  0.45835  0.82303  1.0000
  O   O41       1.0  0.78861  0.044480000000000006  0.33445  1.0000
  O   O42       1.0  0.21139000000000002  0.044480000000000006  0.66555  1.0000
  O   O43       1.0  0.28861000000000003  0.54448  0.33445  1.0000
  O   O44       1.0  0.71139  0.54448  0.66555  1.0000
  O   O45       1.0  0.76663  0.29367  0.32697  1.0000
  O   O46       1.0  0.23337000000000002  0.29367  0.67303  1.0000
  O   O47       1.0  0.26663  0.7936700000000001  0.32697  1.0000
  O   O48       1.0  0.73337  0.7936700000000001  0.67303  1.0000
  O   O49       1.0  0.67073  0.41064  0.33064  1.0000
  O   O50       1.0  0.32927  0.41064  0.66936  1.0000
  O   O51       1.0  0.17073  0.9106400000000002  0.33064  1.0000
  O   O52       1.0  0.8292700000000002  0.9106400000000002  0.66936  1.0000
  H   H61       1.0  0.3764100000000001  0.0041  0.57522  1.0000
  H   H62       1.0  0.5383  0.892  0.39189  1.0000
  H   H63       1.0  0.9624200000000003  0.39237  0.60709  1.0000
  H   H64       1.0  0.12450000000000003  0.50764  0.4249  1.0000
  H   H65       1.0  0.6419  0.8677000000000002  0.57322  1.0000
  H   H66       1.0  0.29456  0.70872  0.45795  1.0000
  H   H67       1.0  0.20555000000000007  0.20815  0.54105  1.0000
  H   H68       1.0  0.85828  0.3679000000000001  0.42648  1.0000
  F   F1        1.0  0.049700000000000015  0.1538  0.07982  1.0000
  F   F2        1.0  0.93011  0.12065000000000001  0.90784  1.0000
  F   F3        1.0  0.54973  0.65377  0.07988  1.0000
  F   F4        1.0  0.43013  0.62066  0.90793  1.0000
