data_image0
_chemical_formula_structural       O4C2O4C2Cu2C2O2N2C22H4C10O2C2H6C2N3O2NO2NO2NO2H2NO2NO2NO2NO2
_chemical_formula_sum              "O28 C42 Cu2 N12 H12"
_cell_length_a       27.79621
_cell_length_b       8.65917
_cell_length_c       7.50709
_cell_angle_alpha    102.01505
_cell_angle_beta     95.55516999999999
_cell_angle_gamma    93.14486

_symmetry_space_group_name_H-M    'P 1'
_symmetry_Int_Tables_number       1

loop_
  _symmetry_equiv_pos_as_xyz
  'x,y,z'

loop_
  _atom_site_type_symbol
  _atom_site_label
  _atom_site_symmetry_multiplicity
  _atom_site_fract_x
  _atom_site_fract_y
  _atom_site_fract_z
  _atom_site_occupancy
  O   O1        1.0  0.5035  0.28612  0.6197799999999998  1.0000
  O   O2        1.0  0.4965  0.71388  0.3802199999999999  1.0000
  O   O3        1.0  0.4944100000000001  0.25678  0.3083599999999999  1.0000
  O   O4        1.0  0.50559  0.74322  0.69164  1.0000
  C   C1        1.0  0.49631  0.20072000000000007  0.4556199999999999  1.0000
  C   C2        1.0  0.50383  0.79927  0.54433  1.0000
  O   O5        1.0  0.43481  0.5147  0.65569  1.0000
  O   O6        1.0  0.56519  0.48529999999999995  0.3443099999999999  1.0000
  O   O7        1.0  0.42572  0.48534999999999995  0.34427999999999986  1.0000
  O   O8        1.0  0.5742800000000001  0.51465  0.65572  1.0000
  C   C3        1.0  0.40765  0.50092  0.50038  1.0000
  C   C4        1.0  0.59241  0.49998000000000004  0.49961  1.0000
  Cu  Cu1       1.0  0.5053800000000002  0.51738  0.68438  1.0000
  Cu  Cu2       1.0  0.49462  0.48261999999999994  0.31561999999999996  1.0000
  C   C5        1.0  0.17468999999999998  0.3805  0.4028599999999999  1.0000
  C   C6        1.0  0.8255  0.62796  0.5571699999999999  1.0000
  O   O9        1.0  0.19619  0.24903  0.33154999999999996  1.0000
  O   O10       1.0  0.8043500000000001  0.76103  0.62557  1.0000
  N   N1        1.0  0.20242000000000004  0.51575  0.48581999999999986  1.0000
  N   N2        1.0  0.7976600000000001  0.48944  0.48970999999999987  1.0000
  C   C7        1.0  0.18218  0.65317  0.5532099999999998  1.0000
  C   C8        1.0  0.8176800000000002  0.35357  0.41406  1.0000
  C   C9        1.0  0.27729  0.55033  0.35187  1.0000
  C   C10       1.0  0.71552  0.4616900000000001  0.33103  1.0000
  C   C11       1.0  0.32715  0.54477  0.35244999999999993  1.0000
  C   C12       1.0  0.66562  0.46645000000000003  0.33199  1.0000
  C   C13       1.0  0.3319200000000001  0.47151  0.6477499999999998  1.0000
  C   C14       1.0  0.6757800000000002  0.52278  0.6641  1.0000
  C   C15       1.0  0.28141  0.47328  0.6476  1.0000
  C   C16       1.0  0.7260700000000002  0.51679  0.6646899999999998  1.0000
  C   C17       1.0  0.25412  0.51462  0.4972999999999999  1.0000
  C   C18       1.0  0.74609  0.48725  0.49580999999999986  1.0000
  C   C19       1.0  0.10194  0.51627  0.46478999999999987  1.0000
  C   C20       1.0  0.8977400000000002  0.49472  0.4790899999999999  1.0000
  C   C21       1.0  0.12410000000000003  0.37742  0.39337999999999995  1.0000
  C   C22       1.0  0.8758300000000001  0.63288  0.55467  1.0000
  C   C23       1.0  0.09551000000000003  0.23831  0.31376  1.0000
  C   C24       1.0  0.90444  0.7732000000000002  0.62836  1.0000
  C   C25       1.0  0.13122000000000003  0.6586800000000003  0.5379999999999998  1.0000
  C   C26       1.0  0.86848  0.3515  0.41073  1.0000
  C   C27       1.0  0.35489  0.50574  0.5004999999999998  1.0000
  C   C28       1.0  0.64529  0.49718000000000007  0.49848999999999993  1.0000
  H   H1        1.0  0.35336  0.44200999999999996  0.7623799999999998  1.0000
  H   H2        1.0  0.66049  0.54529  0.7935799999999997  1.0000
  H   H3        1.0  0.11169  0.13141000000000003  0.25356  1.0000
  H   H4        1.0  0.8885200000000001  0.87964  0.69166  1.0000
  C   C29       1.0  0.9707900000000003  0.36159999999999987  0.3958599999999999  1.0000
  C   C30       1.0  0.02857  0.65163  0.53592  1.0000
  C   C31       1.0  0.97756  0.6455999999999998  0.5435299999999997  1.0000
  C   C32       1.0  0.0219  0.36736  0.3896499999999999  1.0000
  C   C33       1.0  0.9488700000000002  0.50059  0.4724299999999999  1.0000
  C   C34       1.0  0.05061  0.51187  0.4633199999999999  1.0000
  C   C35       1.0  0.94088  0.21959999999999996  0.33257  1.0000
  C   C36       1.0  0.058339999999999996  0.79437  0.59533  1.0000
  C   C37       1.0  0.89094  0.21263  0.34019  1.0000
  C   C38       1.0  0.10857000000000001  0.79976  0.59626  1.0000
  O   O11       1.0  0.7881900000000002  0.22218000000000004  0.3411999999999999  1.0000
  O   O12       1.0  0.21153000000000005  0.7815  0.6393799999999997  1.0000
  C   C39       1.0  0.04556  0.23314  0.31099  1.0000
  C   C40       1.0  0.9541700000000002  0.7795299999999998  0.6243799999999998  1.0000
  H   H5        1.0  0.73066  0.43845000000000006  0.20145999999999994  1.0000
  H   H6        1.0  0.25629  0.5810300000000002  0.23675999999999994  1.0000
  H   H7        1.0  0.9551800000000001  0.10812999999999999  0.2811099999999999  1.0000
  H   H8        1.0  0.043649999999999994  0.9070399999999998  0.6364699999999999  1.0000
  H   H9        1.0  0.02682  0.12096  0.24462999999999993  1.0000
  H   H10       1.0  0.9730800000000001  0.8917900000000001  0.6894699999999998  1.0000
  C   C41       1.0  0.48665  0.035039999999999995  0.4421599999999999  1.0000
  C   C42       1.0  0.51373  0.96487  0.5574899999999998  1.0000
  N   N3        1.0  0.48650999999999994  0.45643  0.03851  1.0000
  N   N4        1.0  0.51349  0.54357  0.9614899999999997  1.0000
  N   N5        1.0  0.4701900000000001  0.30856999999999996  0.9332699999999998  1.0000
  O   O13       1.0  0.49589  0.18904  0.9428599999999998  1.0000
  O   O14       1.0  0.42457  0.28087  0.8711199999999998  1.0000
  N   N6        1.0  0.53175  0.6887799999999998  0.06868  1.0000
  O   O15       1.0  0.50819  0.81307  0.06023  1.0000
  O   O16       1.0  0.57751  0.70885  0.13035999999999998  1.0000
  N   N7        1.0  0.25886000000000003  0.43024  0.7976099999999999  1.0000
  O   O17       1.0  0.28233  0.35436  0.9066199999999999  1.0000
  O   O18       1.0  0.21553000000000005  0.4691600000000001  0.8303399999999997  1.0000
  N   N8        1.0  0.75617  0.5405399999999999  0.8365099999999998  1.0000
  O   O19       1.0  0.74411  0.63557  0.98089  1.0000
  O   O20       1.0  0.79414  0.46094  0.85262  1.0000
  H   H11       1.0  0.64301  0.44570000000000015  0.20217  1.0000
  H   H12       1.0  0.3440400000000001  0.5725199999999999  0.23761999999999994  1.0000
  N   N9        1.0  0.8644000000000002  0.060669999999999974  0.2816099999999999  1.0000
  O   O21       1.0  0.84462  0.9960699999999999  0.4012199999999999  1.0000
  O   O22       1.0  0.8691600000000002  0.9734  0.12171999999999997  1.0000
  N   N10       1.0  0.13531  0.9518600000000002  0.6482999999999998  1.0000
  O   O23       1.0  0.16031  0.002329999999999956  0.5311299999999998  1.0000
  O   O24       1.0  0.12673000000000004  0.05166999999999995  0.7949899999999998  1.0000
  N   N11       1.0  0.4421500000000001  0.95986  0.3358699999999999  1.0000
  O   O25       1.0  0.42726  0.00035999999999999726  0.18352  1.0000
  O   O26       1.0  0.41206000000000004  0.87648  0.40776999999999997  1.0000
  N   N12       1.0  0.55842  0.03954999999999998  0.66295  1.0000
  O   O27       1.0  0.57408  0.9960400000000001  0.8126299999999997  1.0000
  O   O28       1.0  0.58798  0.1255  0.59196  1.0000
