data_image0
_chemical_formula_structural       O2CO2CO2CO2CO2CO2CCr3OCH2CH4C3HC3H4C8H6C8H4C8H5C8H5C8H4O2CO2CO2CO2CO2CO2CCr3OF4NO2NO2F
_chemical_formula_sum              "O30 C60 Cr6 H35 F5 N2"
_cell_length_a       11.00356
_cell_length_b       10.98496
_cell_length_c       18.831999999999997
_cell_angle_alpha    90.49670000000002
_cell_angle_beta     89.97636
_cell_angle_gamma    60.53306

_symmetry_space_group_name_H-M    'P 1'
_symmetry_Int_Tables_number       1

loop_
  _symmetry_equiv_pos_as_xyz
  'x,y,z'

loop_
  _atom_site_type_symbol
  _atom_site_label
  _atom_site_symmetry_multiplicity
  _atom_site_fract_x
  _atom_site_fract_y
  _atom_site_fract_z
  _atom_site_occupancy
  O   O1        1.0  0.50738  0.2557  0.58144  1.0000
  O   O2        1.0  0.28032000000000007  0.52735  0.57893  1.0000
  C   C1        1.0  0.23945000000000002  0.64546  0.61024  1.0000
  O   O3        1.0  0.26051  0.73959  0.58459  1.0000
  O   O4        1.0  0.5323000000000002  0.6950799999999999  0.57382  1.0000
  C   C2        1.0  0.65199  0.62006  0.60197  1.0000
  O   O5        1.0  0.7448399999999998  0.5035000000000001  0.57637  1.0000
  O   O6        1.0  0.6991200000000002  0.27656  0.57196  1.0000
  C   C3        1.0  0.62974  0.2261  0.60166  1.0000
  O   O7        1.0  0.49894  0.2565  0.41986  1.0000
  O   O8        1.0  0.2725000000000001  0.52808  0.42915  1.0000
  C   C4        1.0  0.22987000000000013  0.64496  0.39908  1.0000
  O   O9        1.0  0.2520600000000001  0.74038  0.42301  1.0000
  O   O10       1.0  0.5244800000000001  0.69581  0.42404  1.0000
  C   C5        1.0  0.6416200000000002  0.62253  0.39217  1.0000
  O   O11       1.0  0.73639  0.50429  0.41479  1.0000
  O   O12       1.0  0.6913  0.27729  0.42217  1.0000
  C   C6        1.0  0.6152  0.23309999999999997  0.39387  1.0000
  Cr  Cr1       1.0  0.39296000000000003  0.39791999999999994  0.50224  1.0000
  Cr  Cr2       1.0  0.39834000000000025  0.70848  0.50125  1.0000
  Cr  Cr3       1.0  0.70867  0.39357  0.49646  1.0000
  O   O13       1.0  0.49999  0.49999  0.49998  1.0000
  C   C7        1.0  0.55727  0.79462  0.78697  1.0000
  H   H1        1.0  0.55683  0.89415  0.79599  1.0000
  H   H2        1.0  0.4675000000000001  0.80031  0.81699  1.0000
  C   C8        1.0  0.5396  0.77849  0.70723  1.0000
  H   H3        1.0  0.44459000000000004  0.77015  0.69915  1.0000
  H   H4        1.0  0.52577  0.8725299999999999  0.67848  1.0000
  H   H5        1.0  0.82771  0.7634  0.78178  1.0000
  H   H6        1.0  0.7872600000000001  0.75406  0.66305  1.0000
  C   C9        1.0  0.8188  0.66854  0.76995  1.0000
  C   C10       1.0  0.69508  0.53364  0.79989  1.0000
  C   C11       1.0  0.69701  0.67108  0.81348  1.0000
  H   H7        1.0  0.79345  0.44318  0.81917  1.0000
  C   C12       1.0  0.6678100000000001  0.64515  0.67765  1.0000
  C   C13       1.0  0.7988  0.65893  0.68973  1.0000
  C   C14       1.0  0.6819499999999998  0.51688  0.71964  1.0000
  H   H8        1.0  0.59105  0.50113  0.70884  1.0000
  H   H9        1.0  0.7777100000000001  0.42175999999999997  0.70139  1.0000
  H   H10       1.0  0.91793  0.5754  0.78544  1.0000
  H   H11       1.0  0.8927800000000001  0.56717  0.66679  1.0000
  C   C15       1.0  0.68578  0.14385  0.8208  1.0000
  C   C16       1.0  0.77596  0.17663  0.78426  1.0000
  C   C17       1.0  0.76965  0.18755999999999998  0.71038  1.0000
  C   C18       1.0  0.5858299999999999  0.12929000000000002  0.70758  1.0000
  C   C19       1.0  0.5850400000000002  0.12906  0.78068  1.0000
  C   C20       1.0  0.93038  0.1039  0.7852  1.0000
  C   C21       1.0  0.9252700000000003  0.11207999999999999  0.70484  1.0000
  C   C22       1.0  0.6754300000000001  0.16266  0.67107  1.0000
  H   H12       1.0  0.5073100000000001  0.11481  0.68006  1.0000
  H   H13       1.0  0.5059  0.11230999999999998  0.80534  1.0000
  H   H14       1.0  0.97245  0.99709  0.80596  1.0000
  H   H15       1.0  0.97109  0.16835  0.81049  1.0000
  H   H16       1.0  0.9657800000000002  0.17926  0.6834  1.0000
  H   H17       1.0  0.9660200000000001  0.00903  0.67771  1.0000
  C   C23       1.0  0.17559  0.67144  0.83408  1.0000
  C   C24       1.0  0.15394000000000002  0.57627  0.79388  1.0000
  C   C25       1.0  0.16629000000000002  0.57068  0.7203  1.0000
  C   C26       1.0  0.20199000000000003  0.76954  0.7244  1.0000
  C   C27       1.0  0.20239000000000001  0.7668799999999999  0.79813  1.0000
  C   C28       1.0  0.22983  0.4211500000000001  0.79944  1.0000
  C   C29       1.0  0.24526  0.41501  0.71929  1.0000
  C   C30       1.0  0.19243000000000005  0.66595  0.68413  1.0000
  H   H18       1.0  0.21644000000000002  0.84968  0.69927  1.0000
  H   H19       1.0  0.21437000000000012  0.8462299999999999  0.82681  1.0000
  H   H20       1.0  0.16382  0.37874  0.82034  1.0000
  H   H21       1.0  0.35347  0.37254  0.69954  1.0000
  C   C31       1.0  0.66303  0.66302  0.16872  1.0000
  C   C32       1.0  0.76985  0.55473  0.20759  1.0000
  C   C33       1.0  0.76485  0.55162  0.28016  1.0000
  C   C34       1.0  0.53821  0.75353  0.27987  1.0000
  C   C35       1.0  0.5421300000000002  0.75757  0.20523  1.0000
  C   C36       1.0  0.9223300000000001  0.50891  0.20973  1.0000
  C   C37       1.0  0.91521  0.505  0.28949  1.0000
  C   C38       1.0  0.6530600000000002  0.653  0.3182  1.0000
  H   H22       1.0  0.4484000000000001  0.8296499999999999  0.30798  1.0000
  H   H23       1.0  0.4554199999999999  0.83684  0.17624  1.0000
  H   H24       1.0  0.94057  0.5940799999999999  0.19148  1.0000
  H   H25       1.0  0.9876100000000002  0.40469  0.18429  1.0000
  H   H26       1.0  0.9348900000000001  0.58251  0.31811  1.0000
  C   C39       1.0  0.63574  0.16923  0.17284  1.0000
  C   C40       1.0  0.58008  0.10649  0.21668  1.0000
  C   C41       1.0  0.58487  0.11415999999999998  0.28946  1.0000
  C   C42       1.0  0.7086400000000002  0.24343999999999993  0.27679  1.0000
  C   C43       1.0  0.69686  0.24156  0.20328  1.0000
  C   C44       1.0  0.43353  0.13241  0.21832  1.0000
  C   C45       1.0  0.44161000000000006  0.13304  0.29827  1.0000
  C   C46       1.0  0.64575  0.18618  0.3209  1.0000
  H   H27       1.0  0.7416900000000001  0.28965  0.17029  1.0000
  H   H28       1.0  0.42346  0.04465  0.19638  1.0000
  H   H29       1.0  0.3584300000000001  0.23544  0.19598  1.0000
  H   H30       1.0  0.36526  0.23404999999999998  0.32228  1.0000
  H   H31       1.0  0.44383  0.04101  0.32327  1.0000
  C   C47       1.0  0.17346000000000003  0.6663  0.17721  1.0000
  C   C48       1.0  0.20334999999999998  0.75983  0.2151  1.0000
  C   C49       1.0  0.21295000000000003  0.75255  0.2869  1.0000
  C   C50       1.0  0.20515999999999998  0.53887  0.28616  1.0000
  C   C51       1.0  0.19379000000000005  0.54529  0.21196  1.0000
  C   C52       1.0  0.15022000000000002  0.91653  0.22052  1.0000
  C   C53       1.0  0.15964999999999993  0.90441  0.30107  1.0000
  C   C54       1.0  0.20303999999999997  0.65037  0.32442  1.0000
  H   H32       1.0  0.20662999999999995  0.45254  0.3136  1.0000
  H   H33       1.0  0.18466000000000002  0.46464  0.18326  1.0000
  H   H34       1.0  0.22374000000000005  0.94777  0.19771999999999998  1.0000
  H   H35       1.0  0.2356  0.9306  0.32462  1.0000
  O   O14       1.0  0.08940000000000002  0.82569  0.9305700000000001  1.0000
  O   O15       1.0  0.81846  0.05443999999999999  0.9298499999999998  1.0000
  C   C55       1.0  0.70335  0.0974  0.8947399999999999  1.0000
  O   O16       1.0  0.6060600000000002  0.07715  0.9155100000000002  1.0000
  O   O17       1.0  0.6465500000000002  0.80668  0.9175700000000001  1.0000
  C   C56       1.0  0.72242  0.68687  0.8890199999999999  1.0000
  O   O18       1.0  0.8371700000000001  0.59341  0.91525  1.0000
  O   O19       1.0  0.06519999999999997  0.63553  0.9315699999999999  1.0000
  C   C57       1.0  0.11773000000000006  0.70655  0.9056999999999998  1.0000
  O   O20       1.0  0.06826000000000002  0.82889  0.09184  1.0000
  O   O21       1.0  0.7988700000000002  0.057409999999999996  0.07934  1.0000
  C   C58       1.0  0.67137  0.11242999999999999  0.10189  1.0000
  O   O22       1.0  0.58493  0.08035  0.07678  1.0000
  O   O23       1.0  0.6269600000000002  0.8096499999999999  0.06706  1.0000
  C   C59       1.0  0.6971500000000003  0.68956  0.09764  1.0000
  O   O24       1.0  0.81604  0.59661  0.07651  1.0000
  O   O25       1.0  0.04561000000000002  0.6385  0.08106  1.0000
  C   C60       1.0  0.09773000000000001  0.70858  0.11097  1.0000
  Cr  Cr4       1.0  0.93765  0.9385399999999999  0.00761  1.0000
  Cr  Cr5       1.0  0.62533  0.93737  0.9945199999999998  1.0000
  Cr  Cr6       1.0  0.9379400000000001  0.62523  0.00119  1.0000
  O   O26       1.0  0.83364  0.83371  0.0011  1.0000
  F   F1        1.0  0.35483000000000003  0.37464  0.8348  1.0000
  F   F2        1.0  0.17058000000000006  0.35952  0.6865  1.0000
  F   F3        1.0  0.98852  0.37039  0.31544  1.0000
  F   F4        1.0  0.77831  0.30472  0.30451  1.0000
  N   N1        1.0  0.0089  0.003150000000000001  0.19605  1.0000
  O   O27       1.0  0.9832300000000002  0.10550000000000001  0.15345  1.0000
  O   O28       1.0  0.91605  0.96448  0.20679  1.0000
  N   N2        1.0  0.02572999999999994  0.9747600000000001  0.33954  1.0000
  O   O29       1.0  0.9960800000000002  0.08621  0.37684  1.0000
  O   O30       1.0  0.9494  0.9153699999999999  0.34794  1.0000
  F   F5        1.0  0.5846100000000001  0.53428  0.83576  1.0000
