data_image0
_chemical_formula_structural       C100Cr12H56O68
_chemical_formula_sum              "C100 Cr12 H56 O68"
_cell_length_a       19.03404
_cell_length_b       10.9947
_cell_length_c       18.76639
_cell_angle_alpha    89.92626
_cell_angle_beta     90.33285
_cell_angle_gamma    90.4753

_symmetry_space_group_name_H-M    'P 1'
_symmetry_Int_Tables_number       1

loop_
  _symmetry_equiv_pos_as_xyz
  'x,y,z'

loop_
  _atom_site_type_symbol
  _atom_site_label
  _atom_site_symmetry_multiplicity
  _atom_site_fract_x
  _atom_site_fract_y
  _atom_site_fract_z
  _atom_site_occupancy
  C   C1        1.0  0.24035  0.46427  0.64817  1.0000
  C   C2        1.0  0.0025800000000000003  0.6566300000000002  0.56979  1.0000
  C   C3        1.0  0.41996  0.57989  0.57555  1.0000
  C   C4        1.0  0.51244  0.16974000000000003  0.42129  1.0000
  C   C5        1.0  0.50063  0.15721  0.57074  1.0000
  C   C6        1.0  0.0010900000000000003  0.89216  0.42763  1.0000
  C   C7        1.0  0.96997  0.8736000000000003  0.5715  1.0000
  C   C8        1.0  0.50046  0.39125000000000004  0.42789  1.0000
  C   C9        1.0  0.46865  0.37415000000000004  0.57156  1.0000
  C   C10       1.0  0.97357  0.99377  0.46209000000000006  1.0000
  C   C11       1.0  0.95702  0.9833900000000001  0.53553  1.0000
  C   C12       1.0  0.47078  0.49212000000000006  0.4612  1.0000
  C   C13       1.0  0.76214  0.47152000000000005  0.35541  1.0000
  C   C14       1.0  0.45394  0.48248  0.53467  1.0000
  C   C15       1.0  0.99328  0.76977  0.53493  1.0000
  C   C16       1.0  0.0035400000000000015  0.77777  0.46076000000000006  1.0000
  C   C17       1.0  0.49229000000000006  0.2701100000000001  0.53552  1.0000
  C   C18       1.0  0.50289  0.27723  0.46137  1.0000
  C   C19       1.0  0.012430000000000002  0.5499300000000001  0.52734  1.0000
  C   C20       1.0  0.031119999999999995  0.56332  0.45557  1.0000
  C   C21       1.0  0.50832  0.04985000000000001  0.52873  1.0000
  C   C22       1.0  0.52774  0.06144  0.45708000000000004  1.0000
  C   C23       1.0  0.005740000000000001  0.42948000000000003  0.5538  1.0000
  C   C24       1.0  0.73981  0.96622  0.64717  1.0000
  C   C25       1.0  0.060390000000000006  0.46469  0.41839  1.0000
  C   C26       1.0  0.49885  0.9304500000000001  0.55582  1.0000
  C   C27       1.0  0.55476  0.96025  0.42048  1.0000
  C   C28       1.0  0.03214  0.33136000000000004  0.51567  1.0000
  C   C29       1.0  0.06226  0.34995000000000004  0.44924  1.0000
  C   C30       1.0  0.52224  0.8299700000000001  0.51781  1.0000
  C   C31       1.0  0.55237  0.8454600000000001  0.45119000000000004  1.0000
  C   C32       1.0  0.24302000000000004  0.90853  0.9255500000000001  1.0000
  C   C33       1.0  0.77292  0.86055  0.06572  1.0000
  C   C34       1.0  0.74302  0.4085200000000001  0.9255600000000002  1.0000
  C   C35       1.0  0.26213  0.9715500000000001  0.35542  1.0000
  C   C36       1.0  0.27293  0.36053  0.06572  1.0000
  C   C37       1.0  0.24543  0.89392  0.08729  1.0000
  C   C38       1.0  0.75928  0.8799500000000002  0.9062199999999999  1.0000
  C   C39       1.0  0.74542  0.39391  0.08729  1.0000
  C   C40       1.0  0.25928  0.37994000000000006  0.9062199999999999  1.0000
  C   C41       1.0  0.22779000000000002  0.87813  0.64933  1.0000
  C   C42       1.0  0.7736100000000001  0.87266  0.3532600000000001  1.0000
  C   C43       1.0  0.72778  0.37816  0.64934  1.0000
  C   C44       1.0  0.2897  0.33276  0.36041  1.0000
  C   C45       1.0  0.19182  0.9276300000000001  0.04629  1.0000
  C   C46       1.0  0.30493  0.89435  0.54679  1.0000
  C   C47       1.0  0.81776  0.9017400000000001  0.9443700000000002  1.0000
  C   C48       1.0  0.69182  0.42762  0.04629  1.0000
  C   C49       1.0  0.31776  0.40173  0.94436  1.0000
  C   C50       1.0  0.18901  0.8962200000000002  0.97181  1.0000
  C   C51       1.0  0.8257  0.8608400000000002  0.01815  1.0000
  C   C52       1.0  0.68901  0.39622000000000007  0.97181  1.0000
  C   C53       1.0  0.3257  0.36083000000000004  0.01814  1.0000
  C   C54       1.0  0.00934  0.6568  0.9255500000000001  1.0000
  C   C55       1.0  0.00838  0.66431  0.0831  1.0000
  C   C56       1.0  0.50934  0.1568  0.9255399999999999  1.0000
  C   C57       1.0  0.71828  0.8290800000000002  0.4662  1.0000
  C   C58       1.0  0.50838  0.16431  0.0831  1.0000
  C   C59       1.0  0.01758  0.56464  0.04414  1.0000
  C   C60       1.0  0.03391  0.5699400000000001  0.96922  1.0000
  C   C61       1.0  0.51758  0.06464  0.04414  1.0000
  C   C62       1.0  0.53391  0.06994  0.96922  1.0000
  C   C63       1.0  0.02872  0.6536600000000001  0.64466  1.0000
  C   C64       1.0  0.9744800000000001  0.6565200000000001  0.35228  1.0000
  C   C65       1.0  0.52823  0.15383000000000002  0.64503  1.0000
  C   C66       1.0  0.47432  0.15637000000000004  0.35250000000000004  1.0000
  C   C67       1.0  0.24079  0.45995  0.84747  1.0000
  C   C68       1.0  0.80511  0.39557000000000003  0.54695  1.0000
  C   C69       1.0  0.75996  0.4623900000000001  0.15133  1.0000
  C   C70       1.0  0.74079  0.95995  0.84748  1.0000
  C   C71       1.0  0.25996  0.9623900000000001  0.15133  1.0000
  C   C72       1.0  0.22693  0.87241  0.85336  1.0000
  C   C73       1.0  0.78965  0.8295  0.13886  1.0000
  C   C74       1.0  0.72693  0.3724  0.85336  1.0000
  C   C75       1.0  0.28965  0.32949  0.13886  1.0000
  C   C76       1.0  0.03117  0.65169  0.85197  1.0000
  C   C77       1.0  0.97166  0.6530700000000002  0.15005  1.0000
  C   C78       1.0  0.53117  0.15169000000000002  0.85197  1.0000
  C   C79       1.0  0.23257  0.29148  0.47467  1.0000
  C   C80       1.0  0.4716600000000001  0.15307  0.15005  1.0000
  C   C81       1.0  0.24995  0.9346000000000002  0.58311  1.0000
  C   C82       1.0  0.75372  0.9087100000000002  0.42487  1.0000
  C   C83       1.0  0.74972  0.43457  0.58304  1.0000
  C   C84       1.0  0.27394999999999997  0.36296  0.4340899999999999  1.0000
  C   C85       1.0  0.25431  0.9248100000000001  0.42744000000000004  1.0000
  C   C86       1.0  0.7563  0.9033700000000002  0.58149  1.0000
  C   C87       1.0  0.75441  0.4247900000000001  0.42744000000000004  1.0000
  C   C88       1.0  0.26072  0.39027  0.5874800000000001  1.0000
  C   C89       1.0  0.31113  0.9203700000000002  0.47066  1.0000
  C   C90       1.0  0.01358  0.6708600000000001  0.42037  1.0000
  C   C91       1.0  0.70609  0.8526000000000002  0.54168  1.0000
  C   C92       1.0  0.81122  0.42135  0.47076000000000007  1.0000
  C   C93       1.0  0.21480000000000002  0.32698  0.54806  1.0000
  C   C94       1.0  0.31445  0.95612  0.9423699999999999  1.0000
  C   C95       1.0  0.69965  0.8952900000000001  0.04877  1.0000
  C   C96       1.0  0.81445  0.45611  0.9423800000000001  1.0000
  C   C97       1.0  0.19965  0.39527  0.04877  1.0000
  C   C98       1.0  0.96243  0.10504000000000001  0.41783  1.0000
  C   C99       1.0  0.9262000000000001  0.08257000000000002  0.57749  1.0000
  C   C100      1.0  0.45734  0.60107  0.41548  1.0000
  Cr  Cr1       1.0  0.11397000000000002  0.50863  0.74792  1.0000
  Cr  Cr2       1.0  0.8876999999999999  0.8200700000000001  0.2502  1.0000
  Cr  Cr3       1.0  0.6123  0.32007  0.7498  1.0000
  Cr  Cr4       1.0  0.3877  0.32007  0.2502  1.0000
  Cr  Cr5       1.0  0.88603  0.50863  0.25208  1.0000
  Cr  Cr6       1.0  0.61397  0.00863  0.74792  1.0000
  Cr  Cr7       1.0  0.38603  0.008630000000000002  0.25208  1.0000
  Cr  Cr8       1.0  0.2692  0.66674  0.74985  1.0000
  Cr  Cr9       1.0  0.7308  0.66674  0.25015  1.0000
  Cr  Cr10      1.0  0.7692  0.16674000000000003  0.74985  1.0000
  Cr  Cr11      1.0  0.23080000000000003  0.16674000000000003  0.25015  1.0000
  Cr  Cr12      1.0  0.1123  0.8200700000000001  0.7498  1.0000
  H   H1        1.0  0.36364  0.93705  0.45028  1.0000
  H   H2        1.0  0.72073  0.81298  0.9235100000000002  1.0000
  H   H3        1.0  0.78487  0.33151  0.06762  1.0000
  H   H4        1.0  0.22073  0.31297  0.9235000000000001  1.0000
  H   H5        1.0  0.00888  0.47455000000000014  0.06627  1.0000
  H   H6        1.0  0.06327  0.4933900000000001  0.94863  1.0000
  H   H7        1.0  0.50886  0.97455  0.06626  1.0000
  H   H8        1.0  0.56327  0.99339  0.94863  1.0000
  H   H9        1.0  0.018870000000000005  0.7544300000000003  0.061590000000000006  1.0000
  H   H10       1.0  0.9798500000000001  0.7341  0.9448  1.0000
  H   H11       1.0  0.51887  0.25443  0.061590000000000006  1.0000
  H   H12       1.0  0.65479  0.83315  0.56373  1.0000
  H   H13       1.0  0.47985  0.2341  0.9448  1.0000
  H   H14       1.0  0.34465  0.8394100000000001  0.57246  1.0000
  H   H15       1.0  0.6971  0.74483  0.44449000000000005  1.0000
  H   H16       1.0  0.8453999999999999  0.34237000000000006  0.57293  1.0000
  H   H17       1.0  0.20721  0.21135000000000004  0.45215  1.0000
  H   H18       1.0  0.20165  0.90903  0.4477  1.0000
  H   H19       1.0  0.80881  0.9144300000000002  0.56009  1.0000
  H   H20       1.0  0.7018  0.4081200000000001  0.44760000000000005  1.0000
  H   H21       1.0  0.31469  0.3985000000000001  0.57006  1.0000
  H   H22       1.0  0.214  0.9989300000000001  0.55858  1.0000
  H   H23       1.0  0.86364  0.43913000000000013  0.45047  1.0000
  H   H24       1.0  0.7751400000000002  0.99279  0.4466899999999999  1.0000
  H   H25       1.0  0.71331  0.49788  0.55829  1.0000
  H   H26       1.0  0.29742  0.4457300000000001  0.45542000000000005  1.0000
  H   H27       1.0  0.01852  0.90124  0.37305  1.0000
  H   H28       1.0  0.95607  0.8671  0.62729  1.0000
  H   H29       1.0  0.51867  0.39994  0.37356  1.0000
  H   H30       1.0  0.4548400000000001  0.3680400000000001  0.6274  1.0000
  H   H31       1.0  0.0802  0.4761900000000001  0.36476000000000003  1.0000
  H   H32       1.0  0.97989  0.4096400000000001  0.6037  1.0000
  H   H33       1.0  0.57568  0.9697100000000002  0.36716  1.0000
  H   H34       1.0  0.16235  0.30882000000000004  0.56756  1.0000
  H   H35       1.0  0.47335999999999995  0.91354  0.60628  1.0000
  H   H36       1.0  0.030850000000000002  0.24109  0.53832  1.0000
  H   H37       1.0  0.08469  0.27469000000000005  0.42046000000000006  1.0000
  H   H38       1.0  0.51934  0.74035  0.54095  1.0000
  H   H39       1.0  0.57265  0.76821  0.42262  1.0000
  H   H40       1.0  0.41779  0.9501000000000001  0.9199700000000001  1.0000
  H   H41       1.0  0.5985  0.84023  0.04111  1.0000
  H   H42       1.0  0.91779  0.45007  0.9199900000000001  1.0000
  H   H43       1.0  0.0985  0.34021000000000007  0.04109  1.0000
  H   H44       1.0  0.90896  0.25880000000000003  0.39903  1.0000
  H   H45       1.0  0.13753  0.8656000000000001  0.95336  1.0000
  H   H46       1.0  0.93139  0.18558  0.6662100000000001  1.0000
  H   H47       1.0  0.40213  0.75267  0.3957300000000001  1.0000
  H   H48       1.0  0.42029  0.68267  0.66449  1.0000
  H   H49       1.0  0.15028  0.9856700000000003  0.06594  1.0000
  H   H50       1.0  0.8587199999999999  0.96189  0.92438  1.0000
  H   H51       1.0  0.65028  0.4856600000000001  0.06595  1.0000
  H   H52       1.0  0.35872  0.46187  0.92438  1.0000
  H   H53       1.0  0.8788800000000001  0.84141  0.03609  1.0000
  H   H54       1.0  0.63752  0.36559  0.95336  1.0000
  H   H55       1.0  0.37888  0.3414  0.03609  1.0000
  H   H56       1.0  0.28487  0.83151  0.06762  1.0000
  O   O1        1.0  0.04323  0.5493000000000001  0.66799  1.0000
  O   O2        1.0  0.83247  0.9051100000000002  0.16966  1.0000
  O   O3        1.0  0.66753  0.4051100000000001  0.83034  1.0000
  O   O4        1.0  0.33247  0.4051100000000001  0.16966  1.0000
  O   O5        1.0  0.05401  0.7484400000000002  0.82286  1.0000
  O   O6        1.0  0.94599  0.7484400000000002  0.17714  1.0000
  O   O7        1.0  0.55401  0.24844000000000005  0.82286  1.0000
  O   O8        1.0  0.44599000000000005  0.24844000000000005  0.17714  1.0000
  O   O9        1.0  0.16516  0.66515  0.74919  1.0000
  O   O10       1.0  0.83484  0.66515  0.25081  1.0000
  O   O11       1.0  0.66516  0.16515  0.74919  1.0000
  O   O12       1.0  0.95677  0.5493000000000001  0.33201  1.0000
  O   O13       1.0  0.33484  0.16515  0.25081  1.0000
  O   O14       1.0  0.17862  0.4576  0.6741  1.0000
  O   O15       1.0  0.82138  0.4576  0.3259  1.0000
  O   O16       1.0  0.67862  0.9576000000000001  0.6741  1.0000
  O   O17       1.0  0.32138  0.9576000000000001  0.3259  1.0000
  O   O18       1.0  0.28468  0.5421  0.66946  1.0000
  O   O19       1.0  0.71532  0.5421  0.33054  1.0000
  O   O20       1.0  0.78468  0.04210000000000001  0.66946  1.0000
  O   O21       1.0  0.21532  0.04210000000000001  0.33054  1.0000
  O   O22       1.0  0.26286  0.79039  0.67665  1.0000
  O   O23       1.0  0.54323  0.0493  0.66799  1.0000
  O   O24       1.0  0.73714  0.79039  0.32335  1.0000
  O   O25       1.0  0.76286  0.29039  0.67665  1.0000
  O   O26       1.0  0.23714  0.29039  0.32335  1.0000
  O   O27       1.0  0.16746  0.9070300000000001  0.67094  1.0000
  O   O28       1.0  0.83254  0.9070300000000001  0.32906  1.0000
  O   O29       1.0  0.66746  0.40703  0.67094  1.0000
  O   O30       1.0  0.33254  0.40703  0.32906  1.0000
  O   O31       1.0  0.053950000000000005  0.75022  0.6751  1.0000
  O   O32       1.0  0.9460500000000001  0.75022  0.3249  1.0000
  O   O33       1.0  0.55395  0.25022  0.6751  1.0000
  O   O34       1.0  0.45677  0.0493  0.33201  1.0000
  O   O35       1.0  0.44605  0.25022  0.3249  1.0000
  O   O36       1.0  0.0433  0.54737  0.82739  1.0000
  O   O37       1.0  0.9567  0.54737  0.17261  1.0000
  O   O38       1.0  0.5433  0.04737  0.82739  1.0000
  O   O39       1.0  0.4567  0.04737  0.17261  1.0000
  O   O40       1.0  0.17869  0.45582000000000006  0.82186  1.0000
  O   O41       1.0  0.82131  0.45582000000000006  0.17814  1.0000
  O   O42       1.0  0.67869  0.95582  0.82186  1.0000
  O   O43       1.0  0.32131  0.95582  0.17814  1.0000
  O   O44       1.0  0.28475  0.5401700000000002  0.82886  1.0000
  O   O45       1.0  0.26292  0.7886  0.82442  1.0000
  O   O46       1.0  0.71525  0.5401700000000002  0.17114  1.0000
  O   O47       1.0  0.78475  0.04017  0.82886  1.0000
  O   O48       1.0  0.21525  0.04017  0.17114  1.0000
  O   O49       1.0  0.3232  0.03560000000000001  0.9871600000000001  1.0000
  O   O50       1.0  0.37166  0.9127200000000001  0.90394  1.0000
  O   O51       1.0  0.68673  0.99793  0.027570000000000004  1.0000
  O   O52       1.0  0.64582  0.80943  0.05745999999999999  1.0000
  O   O53       1.0  0.8232  0.53561  0.9871500000000001  1.0000
  O   O54       1.0  0.8716600000000001  0.41268000000000005  0.90396  1.0000
  O   O55       1.0  0.18673  0.49791000000000013  0.02756  1.0000
  O   O56       1.0  0.73708  0.7886  0.17558  1.0000
  O   O57       1.0  0.14583  0.3094  0.05745  1.0000
  O   O58       1.0  0.9961500000000001  0.11919000000000002  0.36305  1.0000
  O   O59       1.0  0.91197  0.19092000000000003  0.43549  1.0000
  O   O60       1.0  0.87049  0.12705  0.55905  1.0000
  O   O61       1.0  0.9581599999999999  0.11864  0.64139  1.0000
  O   O62       1.0  0.48923  0.6133800000000001  0.35943  1.0000
  O   O63       1.0  0.40686  0.68681  0.43324999999999997  1.0000
  O   O64       1.0  0.36416  0.6216200000000001  0.55516  1.0000
  O   O65       1.0  0.44894  0.6170100000000001  0.64068  1.0000
  O   O66       1.0  0.76292  0.2886000000000001  0.82442  1.0000
  O   O67       1.0  0.23708  0.2886000000000001  0.17558  1.0000
  O   O68       1.0  0.16753  0.9051100000000002  0.83034  1.0000
