data_image0
_chemical_formula_structural       C32Cl2H14N4O24S4Zn2
_chemical_formula_sum              "C32 Cl2 H14 N4 O24 S4 Zn2"
_cell_length_a       7.74195
_cell_length_b       8.546499999999998
_cell_length_c       23.29208
_cell_angle_alpha    90.69574
_cell_angle_beta     85.88947999999999
_cell_angle_gamma    93.71974000000002

_symmetry_space_group_name_H-M    'P 1'
_symmetry_Int_Tables_number       1

loop_
  _symmetry_equiv_pos_as_xyz
  'x,y,z'

loop_
  _atom_site_type_symbol
  _atom_site_label
  _atom_site_symmetry_multiplicity
  _atom_site_fract_x
  _atom_site_fract_y
  _atom_site_fract_z
  _atom_site_occupancy
  C   C1        1.0  0.54596  0.79486  0.49871  1.0000
  C   C2        1.0  0.40853  0.35535  0.3034299999999999  1.0000
  C   C3        1.0  0.59382  0.65583  0.7571499999999999  1.0000
  C   C4        1.0  0.4076  0.33997000000000005  0.24325  1.0000
  C   C5        1.0  0.51466  0.5321000000000001  0.79116  1.0000
  C   C6        1.0  0.4872  0.46272  0.20891  1.0000
  C   C7        1.0  0.5702500000000003  0.95839  0.49792  1.0000
  C   C8        1.0  0.42974  0.04161  0.50197  1.0000
  C   C9        1.0  0.5021600000000002  0.49949000000000005  0.6104099999999999  1.0000
  C   C10       1.0  0.49779999999999985  0.50029  0.38959  1.0000
  C   C11       1.0  0.62912  0.4163700000000001  0.11592  1.0000
  C   C12       1.0  0.4540299999999998  0.20514  0.50125  1.0000
  C   C13       1.0  0.37250999999999995  0.57734  0.8841799999999999  1.0000
  C   C14       1.0  0.3458  0.51497  0.12358  1.0000
  C   C15       1.0  0.65556  0.47820000000000007  0.87648  1.0000
  C   C16       1.0  0.34874  0.53025  0.06393  1.0000
  C   C17       1.0  0.65256  0.4627000000000001  0.9361399999999998  1.0000
  C   C18       1.0  0.49695  0.48793999999999993  0.030049999999999997  1.0000
  C   C19       1.0  0.50437  0.50505  0.97002  1.0000
  C   C20       1.0  0.63814  0.42933  0.05609  1.0000
  C   C21       1.0  0.36329000000000006  0.56389  0.9439999999999997  1.0000
  C   C22       1.0  0.20905  0.58893  0.0376  1.0000
  C   C23       1.0  0.43404999999999994  0.4001200000000001  0.76617  1.0000
  C   C24       1.0  0.79223  0.40398  0.9624599999999999  1.0000
  C   C25       1.0  0.21629  0.6056600000000001  0.9780999999999999  1.0000
  C   C26       1.0  0.78508  0.38744  0.02198  1.0000
  C   C27       1.0  0.5671899999999997  0.59559  0.23353  1.0000
  C   C28       1.0  0.4296  0.38659  0.70695  1.0000
  C   C29       1.0  0.57038  0.61101  0.29274  1.0000
  C   C30       1.0  0.5088999999999998  0.50846  0.67231  1.0000
  C   C31       1.0  0.49094  0.4899800000000001  0.32772  1.0000
  C   C32       1.0  0.5918699999999998  0.64225  0.69698  1.0000
  Cl  Cl1       1.0  0.69082  0.7932200000000003  0.6518599999999999  1.0000
  Cl  Cl2       1.0  0.3089499999999999  0.2057  0.34903  1.0000
  H   H1        1.0  0.09400999999999997  0.62227  0.06284  1.0000
  H   H2        1.0  0.98597  0.61731  0.54317  1.0000
  H   H3        1.0  0.08438  0.31221  0.66944  1.0000
  H   H4        1.0  0.9160099999999999  0.68971  0.32924  1.0000
  H   H5        1.0  0.6861899999999999  0.07632  0.7773299999999999  1.0000
  H   H6        1.0  0.27341999999999994  0.06481  0.12841  1.0000
  H   H7        1.0  0.9072500000000001  0.37062  0.9372199999999999  1.0000
  H   H8        1.0  0.10646000000000005  0.6510400000000002  0.9589699999999999  1.0000
  H   H9        1.0  0.89495  0.34215  0.04112  1.0000
  H   H10       1.0  0.37578  0.30711  0.79377  1.0000
  H   H11       1.0  0.62565  0.68793  0.20566999999999996  1.0000
  H   H12       1.0  0.7028499999999999  0.00967  0.49391  1.0000
  H   H13       1.0  0.29714  0.9903300000000002  0.50597  1.0000
  H   H14       1.0  0.014029999999999997  0.38269  0.45683  1.0000
  N   N1        1.0  0.48472  0.45917  0.14799  1.0000
  N   N2        1.0  0.5168300000000001  0.53443  0.8521099999999998  1.0000
  N   N3        1.0  0.95033  0.45795  0.48456  1.0000
  N   N4        1.0  0.04967  0.54205  0.51544  1.0000
  O   O1        1.0  0.38925  0.73857  0.50379  1.0000
  O   O2        1.0  0.23839999999999997  0.6314  0.85802  1.0000
  O   O3        1.0  0.20668999999999993  0.55692  0.15716  1.0000
  O   O4        1.0  0.79457  0.43614  0.84288  1.0000
  O   O5        1.0  0.46172  0.13908000000000004  0.63671  1.0000
  O   O6        1.0  0.26982  0.09798  0.72398  1.0000
  O   O7        1.0  0.16089999999999993  0.25698  0.6411199999999999  1.0000
  O   O8        1.0  0.72612  0.9009000000000001  0.27502  1.0000
  O   O9        1.0  0.53668  0.85884  0.36279  1.0000
  O   O10       1.0  0.83912  0.7439600000000001  0.3577299999999999  1.0000
  O   O11       1.0  0.6661399999999997  0.82996  0.85291  1.0000
  O   O12       1.0  0.61075  0.26143  0.49620999999999993  1.0000
  O   O13       1.0  0.88716  0.82917  0.7723299999999997  1.0000
  O   O14       1.0  0.6158600000000001  0.9866  0.7618599999999999  1.0000
  O   O15       1.0  0.37635  0.02605  0.23663  1.0000
  O   O16       1.0  0.11435  0.16694  0.22816999999999998  1.0000
  O   O17       1.0  0.33887  0.16197  0.14016  1.0000
  O   O18       1.0  0.6783900000000002  0.71162  0.4938899999999999  1.0000
  O   O19       1.0  0.3216099999999999  0.2883800000000001  0.50611  1.0000
  O   O20       1.0  0.35540000000000005  0.51352  0.5887899999999999  1.0000
  O   O21       1.0  0.6446  0.48648  0.41120999999999996  1.0000
  O   O22       1.0  0.64455  0.48657000000000006  0.5789  1.0000
  O   O23       1.0  0.35545000000000004  0.51343  0.4211  1.0000
  O   O24       1.0  0.76346  0.36285  0.14212  1.0000
  S   S1        1.0  0.33119  0.21326  0.67749  1.0000
  S   S2        1.0  0.6672899999999998  0.7856  0.32176  1.0000
  S   S3        1.0  0.6954599999999997  0.82612  0.78846  1.0000
  S   S4        1.0  0.30612  0.16911  0.21227  1.0000
  Zn  Zn1       1.0  0.30693  0.518  0.50661  1.0000
  Zn  Zn2       1.0  0.69307  0.482  0.49339  1.0000
