data_image0
_chemical_formula_structural       C84Cl4H70O32Zn8
_chemical_formula_sum              "C84 Cl4 H70 O32 Zn8"
_cell_length_a       18.35956
_cell_length_b       18.24967
_cell_length_c       18.33239
_cell_angle_alpha    119.75323999999999
_cell_angle_beta     89.79292
_cell_angle_gamma    60.16152

_space_group_name_H-M_alt    "P 1"
_space_group_IT_number       1

loop_
  _space_group_symop_operation_xyz
  'x, y, z'

loop_
  _atom_site_type_symbol
  _atom_site_label
  _atom_site_symmetry_multiplicity
  _atom_site_fract_x
  _atom_site_fract_y
  _atom_site_fract_z
  _atom_site_occupancy
  C   C1        1.0  0.8599400000000001  0.77977  0.64081  1.0000
  C   C2        1.0  0.2770099999999998  0.29522000000000015  0.76971  1.0000
  C   C3        1.0  0.27053999999999995  0.2586900000000001  0.68434  1.0000
  C   C4        1.0  0.13931  0.21979999999999997  0.35995999999999995  1.0000
  C   C5        1.0  0.2594399999999999  0.3138300000000001  0.64775  1.0000
  C   C6        1.0  0.20323000000000002  0.052030000000000014  0.33933  1.0000
  C   C7        1.0  0.18773  0.10814000000000003  0.30334  1.0000
  C   C8        1.0  0.21507  0.05436999999999998  0.20989  1.0000
  C   C9        1.0  0.26821  0.94656  0.15582  1.0000
  C   C10       1.0  0.2958399999999998  0.8914600000000003  0.19461  1.0000
  C   C11       1.0  0.25667999999999996  0.94594  0.28617  1.0000
  C   C12       1.0  0.26059999999999994  0.6700500000000003  0.83343  1.0000
  C   C13       1.0  0.29463999999999985  0.9397100000000003  0.35635  1.0000
  C   C14       1.0  0.23453  0.05708000000000001  0.41555  1.0000
  C   C15       1.0  0.22237999999999994  0.56639  0.34125  1.0000
  C   C16       1.0  0.86034  0.50058  0.64116  1.0000
  C   C17       1.0  0.18756999999999993  0.50862  0.3049  1.0000
  C   C18       1.0  0.1945099999999999  0.4640300000000001  0.21476999999999996  1.0000
  C   C19       1.0  0.24666999999999997  0.46449  0.15953  1.0000
  C   C20       1.0  0.29393999999999987  0.5090300000000002  0.19496  1.0000
  C   C21       1.0  0.27475999999999995  0.56616  0.28721  1.0000
  C   C22       1.0  0.3352  0.56711  0.34139  1.0000
  C   C23       1.0  0.2632299999999999  0.5787900000000001  0.787  1.0000
  C   C24       1.0  0.27753  0.56696  0.40096  1.0000
  C   C25       1.0  0.8368399999999999  0.9485000000000002  0.71569  1.0000
  C   C26       1.0  0.8026099999999999  0.8911300000000002  0.69871  1.0000
  C   C27       1.0  0.7093199999999997  0.9461200000000002  0.7388  1.0000
  C   C28       1.0  0.13955  0.50063  0.36019  1.0000
  C   C29       1.0  0.6561399999999998  0.054870000000000016  0.79307  1.0000
  C   C30       1.0  0.6941300000000001  0.1093299999999999  0.80643  1.0000
  C   C31       1.0  0.7852600000000001  0.05228999999999988  0.76688  1.0000
  C   C32       1.0  0.86052  0.05988999999999999  0.75287  1.0000
  C   C33       1.0  0.9196099999999998  0.9410600000000002  0.69419  1.0000
  C   C34       1.0  0.23716000000000004  0.55495  0.71057  1.0000
  C   C35       1.0  0.7149299999999998  0.56959  0.33712  1.0000
  C   C36       1.0  0.8063799999999999  0.4964200000000001  0.30235  1.0000
  C   C37       1.0  0.8443699999999998  0.41991000000000006  0.20864  1.0000
  C   C38       1.0  0.7885  0.42022000000000004  0.15595  1.0000
  C   C39       1.0  0.69611  0.4972300000000001  0.19451  1.0000
  C   C40       1.0  0.8603999999999999  0.49943000000000015  0.35979  1.0000
  C   C41       1.0  0.6623599999999997  0.5697100000000003  0.28598999999999997  1.0000
  C   C42       1.0  0.57973  0.66499  0.36201  1.0000
  C   C43       1.0  0.64006  0.66504  0.42053  1.0000
  C   C44       1.0  0.71317  0.56351  0.72233  1.0000
  C   C45       1.0  0.28981  0.51211  0.81512  1.0000
  C   C46       1.0  0.8051599999999999  0.50739  0.70457  1.0000
  C   C47       1.0  0.8401299999999999  0.46494000000000013  0.75357  1.0000
  C   C48       1.0  0.7845399999999998  0.46634  0.80718  1.0000
  C   C49       1.0  0.6942899999999999  0.51186  0.81485  1.0000
  C   C50       1.0  0.6578699999999996  0.5696600000000003  0.77972  1.0000
  C   C51       1.0  0.5964899999999999  0.57069  0.72556  1.0000
  C   C52       1.0  0.14781  0.49242  0.6322  1.0000
  C   C53       1.0  0.6608699999999998  0.55759  0.65941  1.0000
  C   C54       1.0  0.35825999999999997  0.50121  0.13969  1.0000
  C   C55       1.0  0.6397  0.50164  0.86129  1.0000
  C   C56       1.0  0.2717300000000001  0.43586999999999987  0.77816  1.0000
  C   C57       1.0  0.35919999999999996  0.7800400000000002  0.1398  1.0000
  C   C58       1.0  0.6396499999999999  0.22031  0.86025  1.0000
  C   C59       1.0  0.6398599999999999  0.49958000000000014  0.13976  1.0000
  C   C60       1.0  0.35364  0.50584  0.8656  1.0000
  C   C61       1.0  0.23406999999999986  0.6047800000000002  0.66983  1.0000
  C   C62       1.0  0.2403199999999999  0.6883000000000002  0.71241  1.0000
  C   C63       1.0  0.24967999999999993  0.72369  0.79602  1.0000
  C   C64       1.0  0.19624  0.18355999999999995  0.65582  1.0000
  C   C65       1.0  0.21082999999999996  0.08231000000000008  0.6292  1.0000
  C   C66       1.0  0.12268  0.09413  0.64351  1.0000
  C   C67       1.0  0.24801000000000006  0.41081  0.7004  1.0000
  C   C68       1.0  0.6138600000000001  0.9038899999999999  0.6814899999999998  1.0000
  C   C69       1.0  0.52341  0.94207  0.73393  1.0000
  C   C70       1.0  0.46292  0.93922  0.67722  1.0000
  C   C71       1.0  0.9759199999999998  0.3521300000000001  0.11445  1.0000
  C   C72       1.0  0.07687  0.28149  0.08946  1.0000
  C   C73       1.0  0.12553000000000003  0.2861  0.02582  1.0000
  C   C74       1.0  0.44143000000000004  0.73401  0.44946  1.0000
  C   C75       1.0  0.41680000000000006  0.71499  0.51507  1.0000
  C   C76       1.0  0.32572  0.80704  0.5858  1.0000
  C   C77       1.0  0.49708  0.75659  0.8302  1.0000
  C   C78       1.0  0.21673000000000003  0.48116999999999993  0.6762899999999998  1.0000
  C   C79       1.0  0.46024  0.79285  0.92536  1.0000
  C   C80       1.0  0.43605  0.90114  0.99312  1.0000
  C   C81       1.0  0.34316  0.23387  0.50567  1.0000
  C   C82       1.0  0.33257999999999993  0.22181000000000012  0.41844  1.0000
  C   C83       1.0  0.41719999999999996  0.18624  0.3582099999999999  1.0000
  C   C84       1.0  0.27639  0.38337000000000004  0.81636  1.0000
  Cl  Cl1       1.0  0.25116  0.4058100000000001  0.04737  1.0000
  Cl  Cl2       1.0  0.9524599999999999  0.40548  0.74879  1.0000
  Cl  Cl3       1.0  0.61869  0.65878  0.64352  1.0000
  Cl  Cl4       1.0  0.29117  0.22772999999999996  0.81733  1.0000
  H   H1        1.0  0.29108000000000006  0.90702  0.08435  1.0000
  H   H2        1.0  0.23000000000000007  0.57781  0.60355  1.0000
  H   H3        1.0  0.24018999999999996  0.63972  0.46915  1.0000
  H   H4        1.0  0.5856599999999998  0.0958800000000001  0.82503  1.0000
  H   H5        1.0  0.85347  0.0938900000000001  0.7149  1.0000
  H   H6        1.0  0.8752599999999999  0.09450000000000001  0.81527  1.0000
  H   H7        1.0  0.94654  0.9066400000000002  0.6224299999999999  1.0000
  H   H8        1.0  0.9685599999999999  0.90691  0.72261  1.0000
  H   H9        1.0  0.81767  0.35979  0.0852  1.0000
  H   H10       1.0  0.5494099999999998  0.7297200000000003  0.35404  1.0000
  H   H11       1.0  0.23604  0.72679  0.6812  1.0000
  H   H12       1.0  0.27581  0.90413  0.38019  1.0000
  H   H13       1.0  0.64614  0.73061  0.44742  1.0000
  H   H14       1.0  0.6275899999999998  0.6501200000000003  0.4695  1.0000
  H   H15       1.0  0.81291  0.42838  0.84012  1.0000
  H   H16       1.0  0.59566  0.50131  0.69639  1.0000
  H   H17       1.0  0.6981799999999998  0.4798400000000001  0.59521  1.0000
  H   H18       1.0  0.2501299999999999  0.7917000000000002  0.83131  1.0000
  H   H19       1.0  0.26417999999999997  0.70294  0.9  1.0000
  H   H20       1.0  0.2769800000000001  0.4113799999999999  0.88369  1.0000
  H   H21       1.0  0.19922999999999996  0.09493000000000006  0.1785  1.0000
  H   H22       1.0  0.15654999999999997  0.21214  0.61891  1.0000
  H   H23       1.0  0.36674  0.90749  0.33807  1.0000
  H   H24       1.0  0.1572600000000001  0.24152999999999994  0.72851  1.0000
  H   H25       1.0  0.25302  0.021039999999999986  0.55808  1.0000
  H   H26       1.0  0.24643  0.05787  0.67013  1.0000
  H   H27       1.0  0.08045999999999998  0.1533  0.71481  1.0000
  H   H28       1.0  0.13569  0.01943000000000002  0.62384  1.0000
  H   H29       1.0  0.08639  0.11718999999999999  0.60225  1.0000
  H   H30       1.0  0.6436799999999999  0.82596  0.61916  1.0000
  H   H31       1.0  0.60353  0.9561000000000001  0.66136  1.0000
  H   H32       1.0  0.53304  0.89277  0.75689  1.0000
  H   H33       1.0  0.4906800000000001  0.022479999999999885  0.79355  1.0000
  H   H34       1.0  0.17993  0.08860999999999991  0.47182999999999997  1.0000
  H   H35       1.0  0.4520099999999999  0.9880600000000003  0.6534  1.0000
  H   H36       1.0  0.3974799999999997  0.96902  0.71768  1.0000
  H   H37       1.0  0.49316999999999994  0.8587200000000003  0.61906  1.0000
  H   H38       1.0  0.95577  0.43315  0.14938  1.0000
  H   H39       1.0  0.95848  0.32952  0.0523  1.0000
  H   H40       1.0  0.09542000000000002  0.30536  0.15086  1.0000
  H   H41       1.0  0.09821999999999995  0.2006600000000001  0.05708  1.0000
  H   H42       1.0  0.11135999999999999  0.2576500000000001  0.96217  1.0000
  H   H43       1.0  0.19842999999999997  0.23673000000000005  0.0113  1.0000
  H   H44       1.0  0.10422999999999995  0.36653000000000013  0.0562  1.0000
  H   H45       1.0  0.27169  0.09282  0.43329  1.0000
  H   H46       1.0  0.38828999999999986  0.7536100000000002  0.4194  1.0000
  H   H47       1.0  0.44464999999999993  0.80213  0.4875  1.0000
  H   H48       1.0  0.4160699999999999  0.6454  0.47863  1.0000
  H   H49       1.0  0.46784999999999993  0.70069  0.54828  1.0000
  H   H50       1.0  0.3255499999999999  0.8770300000000002  0.62432  1.0000
  H   H51       1.0  0.31028999999999984  0.7908300000000003  0.63246  1.0000
  H   H52       1.0  0.27331999999999995  0.82144  0.55419  1.0000
  H   H53       1.0  0.4480099999999999  0.81532  0.81998  1.0000
  H   H54       1.0  0.5583999999999999  0.75412  0.82213  1.0000
  H   H55       1.0  0.4002  0.79277  0.93281  1.0000
  H   H56       1.0  0.16192999999999994  0.42579000000000006  0.18637  1.0000
  H   H57       1.0  0.51111  0.73964  0.93938  1.0000
  H   H58       1.0  0.49451  0.90357  0.98416  1.0000
  H   H59       1.0  0.41511999999999993  0.92306  0.06166  1.0000
  H   H60       1.0  0.38039999999999996  0.95797  0.98531  1.0000
  H   H61       1.0  0.39639  0.15751  0.49086  1.0000
  H   H62       1.0  0.3640499999999998  0.2872200000000002  0.53743  1.0000
  H   H63       1.0  0.31689  0.16442000000000004  0.38243  1.0000
  H   H64       1.0  0.27653999999999995  0.2969900000000001  0.43337  1.0000
  H   H65       1.0  0.43300999999999995  0.24397000000000005  0.39158  1.0000
  H   H66       1.0  0.40733999999999987  0.17753  0.29538  1.0000
  H   H67       1.0  0.40402999999999983  0.49540000000000023  0.30427  1.0000
  H   H68       1.0  0.47402000000000005  0.11063999999999997  0.34167  1.0000
  H   H69       1.0  0.33033  0.64022  0.37493  1.0000
  H   H70       1.0  0.31264999999999993  0.49493000000000004  0.39823  1.0000
  O   O1        1.0  0.0  0.5  0.5  1.0000
  O   O2        1.0  0.67655  0.26832  0.88415  1.0000
  O   O3        1.0  0.55515  0.5606  0.17646  1.0000
  O   O4        1.0  0.9449499999999997  0.7315800000000002  0.6158  1.0000
  O   O5        1.0  0.38421999999999995  0.4392199999999999  0.88417  1.0000
  O   O6        1.0  0.67658  0.43917  0.05502  1.0000
  O   O7        1.0  0.38422999999999996  0.5606499999999999  0.88417  1.0000
  O   O8        1.0  0.38426  0.7315  0.05504  1.0000
  O   O9        1.0  0.5551  0.2683300000000001  0.88416  1.0000
  O   O10       1.0  0.38425000000000004  0.56062  0.17647  1.0000
  O   O11       1.0  0.6765699999999999  0.43918999999999997  0.88415  1.0000
  O   O12       1.0  0.9449100000000001  0.4392800000000001  0.6158  1.0000
  O   O13       1.0  0.11578  0.26841  0.44492  1.0000
  O   O14       1.0  0.8234699999999998  0.5607200000000002  0.6158  1.0000
  O   O15       1.0  0.11580000000000001  0.43929  0.32349  1.0000
  O   O16       1.0  0.82346  0.56074  0.44493  1.0000
  O   O17       1.0  0.11583000000000003  0.56069  0.61579  1.0000
  O   O18       1.0  0.9449  0.43931  0.32349  1.0000
  O   O19       1.0  0.11580999999999998  0.43926  0.61579  1.0000
  O   O20       1.0  0.28002000000000005  0.16578999999999994  0.6344499999999998  1.0000
  O   O21       1.0  0.67149  0.89468  0.73253  1.0000
  O   O22       1.0  0.93443  0.341  0.16966  1.0000
  O   O23       1.0  0.11581999999999996  0.56071  0.44492  1.0000
  O   O24       1.0  0.5216500000000001  0.6424200000000001  0.3803499999999999  1.0000
  O   O25       1.0  0.50769  0.6623599999999998  0.7670399999999999  1.0000
  O   O26       1.0  0.26186  0.27053  0.55994  1.0000
  O   O27       1.0  0.8234999999999998  0.7315900000000002  0.6158  1.0000
  O   O28       1.0  0.11576999999999997  0.26842  0.32349  1.0000
  O   O29       1.0  0.5000399999999999  0.4999100000000002  0.99996  1.0000
  O   O30       1.0  0.38423  0.4392  0.05504  1.0000
  O   O31       1.0  0.5551299999999999  0.5606300000000002  0.88416  1.0000
  O   O32       1.0  0.3842699999999999  0.7314900000000002  0.17647  1.0000
  Zn  Zn1       1.0  0.043369999999999916  0.41324000000000016  0.54337  1.0000
  Zn  Zn2       1.0  0.8698699999999999  0.5867600000000002  0.5433799999999999  1.0000
  Zn  Zn3       1.0  0.043359999999999975  0.4132600000000001  0.36988  1.0000
  Zn  Zn4       1.0  0.04338999999999999  0.58674  0.54337  1.0000
  Zn  Zn5       1.0  0.45666999999999985  0.5866700000000002  0.95658  1.0000
  Zn  Zn6       1.0  0.45668  0.58665  0.13008  1.0000
  Zn  Zn7       1.0  0.6301800000000001  0.4131499999999999  0.95657  1.0000
  Zn  Zn8       1.0  0.45664999999999983  0.4131700000000002  0.95658  1.0000
