data_image0
_chemical_formula_structural       O8C4O8C4O4V4C4H4C32H8NH2NH2NH2NH2
_chemical_formula_sum              "O20 C44 V4 H20 N4"
_cell_length_a       16.58071
_cell_length_b       7.25535
_cell_length_c       15.19819
_cell_angle_alpha    89.99893
_cell_angle_beta     94.8024
_cell_angle_gamma    89.99916

_space_group_name_H-M_alt    "P 1"
_space_group_IT_number       1

loop_
  _space_group_symop_operation_xyz
  'x, y, z'

loop_
  _atom_site_type_symbol
  _atom_site_label
  _atom_site_symmetry_multiplicity
  _atom_site_fract_x
  _atom_site_fract_y
  _atom_site_fract_z
  _atom_site_occupancy
  O   O1        1.0  0.6634600000000002  0.36176  0.16597000000000006  1.0000
  O   O2        1.0  0.33654  0.6382400000000001  0.8340300000000003  1.0000
  O   O3        1.0  0.83654  0.86176  0.3340300000000001  1.0000
  O   O4        1.0  0.16345999999999997  0.13824  0.6659700000000002  1.0000
  O   O5        1.0  0.8271  0.6898700000000001  0.16373  1.0000
  O   O6        1.0  0.17290000000000003  0.31013  0.8362700000000002  1.0000
  O   O7        1.0  0.6729  0.18987  0.3362700000000001  1.0000
  O   O8        1.0  0.3271  0.81013  0.6637300000000003  1.0000
  C   C1        1.0  0.8533299999999998  0.52295  0.14364000000000005  1.0000
  C   C2        1.0  0.14667  0.47705  0.8563600000000002  1.0000
  C   C3        1.0  0.64667  0.02295  0.3563600000000001  1.0000
  C   C4        1.0  0.3533300000000001  0.97705  0.6436400000000002  1.0000
  O   O9        1.0  0.6634899999999998  0.69137  0.1555  1.0000
  O   O10       1.0  0.33651  0.30863  0.8445000000000003  1.0000
  O   O11       1.0  0.83651  0.19137  0.3445000000000001  1.0000
  O   O12       1.0  0.16349  0.80863  0.6555000000000002  1.0000
  O   O13       1.0  0.67177  0.86332  0.3257400000000001  1.0000
  O   O14       1.0  0.3282300000000001  0.13668  0.6742600000000002  1.0000
  O   O15       1.0  0.82823  0.36332  0.17426  1.0000
  O   O16       1.0  0.17176999999999998  0.63668  0.82574  1.0000
  C   C5        1.0  0.63581  0.52299  0.13424000000000005  1.0000
  C   C6        1.0  0.36419000000000007  0.47701  0.8657600000000002  1.0000
  C   C7        1.0  0.8641899999999998  0.02298  0.3657600000000001  1.0000
  C   C8        1.0  0.13581000000000001  0.9770200000000002  0.6342400000000002  1.0000
  O   O17       1.0  0.75291  0.5288  0.30586  1.0000
  O   O18       1.0  0.24709  0.4712  0.69414  1.0000
  O   O19       1.0  0.74709  0.0288  0.19414000000000006  1.0000
  O   O20       1.0  0.25291  0.9712  0.8058600000000002  1.0000
  V   V1        1.0  0.74946  0.80301  0.23964000000000005  1.0000
  V   V2        1.0  0.25053999999999993  0.19699  0.76036  1.0000
  V   V3        1.0  0.75054  0.30301000000000006  0.26036  1.0000
  V   V4        1.0  0.24946  0.69699  0.73964  1.0000
  C   C9        1.0  0.46884  0.99476  0.5301400000000001  1.0000
  C   C10       1.0  0.53116  0.005240000000000001  0.4698600000000001  1.0000
  C   C11       1.0  0.031160000000000018  0.49476000000000003  0.9698600000000003  1.0000
  C   C12       1.0  0.9688399999999999  0.50524  0.030140000000000007  1.0000
  H   H1        1.0  0.76015  0.01283  0.65372  1.0000
  H   H2        1.0  0.23985000000000004  0.98716  0.3462800000000001  1.0000
  H   H3        1.0  0.73977  0.51678  0.8462100000000002  1.0000
  H   H4        1.0  0.2602299999999999  0.48325  0.15379  1.0000
  C   C13       1.0  0.0346  0.015340000000000001  0.31812  1.0000
  C   C14       1.0  0.9654  0.9846500000000002  0.68188  1.0000
  C   C15       1.0  0.46543  0.51358  0.18191000000000004  1.0000
  C   C16       1.0  0.53457  0.48644  0.81808  1.0000
  C   C17       1.0  0.1153  0.00757  0.29754000000000014  1.0000
  C   C18       1.0  0.8846999999999999  0.99243  0.7024600000000002  1.0000
  C   C19       1.0  0.38476  0.50471  0.20252000000000006  1.0000
  C   C20       1.0  0.61524  0.49532  0.7974800000000002  1.0000
  C   C21       1.0  0.17779999999999996  0.99285  0.3634000000000001  1.0000
  C   C22       1.0  0.8222  0.00715  0.6366000000000003  1.0000
  C   C23       1.0  0.3222599999999999  0.4897800000000001  0.13666  1.0000
  C   C24       1.0  0.67774  0.51024  0.86334  1.0000
  C   C25       1.0  0.16113999999999995  0.98597  0.45123000000000013  1.0000
  C   C26       1.0  0.83886  0.01403  0.5487700000000002  1.0000
  C   C27       1.0  0.3389099999999999  0.48384  0.04881000000000001  1.0000
  C   C28       1.0  0.66109  0.51617  0.9511900000000002  1.0000
  C   C29       1.0  0.08065999999999997  0.99301  0.4758400000000001  1.0000
  C   C30       1.0  0.91934  0.00698  0.52416  1.0000
  C   C31       1.0  0.41936  0.4919700000000001  0.02417  1.0000
  C   C32       1.0  0.5806400000000002  0.50804  0.9758200000000002  1.0000
  C   C33       1.0  0.01539  0.00727  0.40843  1.0000
  C   C34       1.0  0.9846099999999999  0.99273  0.5915700000000003  1.0000
  C   C35       1.0  0.48463  0.50633  0.09159000000000003  1.0000
  C   C36       1.0  0.51537  0.49368  0.9084100000000003  1.0000
  C   C37       1.0  0.06569  0.98643  0.56654  1.0000
  C   C38       1.0  0.93431  0.01357  0.43346  1.0000
  C   C39       1.0  0.43432  0.48638  0.93346  1.0000
  C   C40       1.0  0.56568  0.51362  0.06654  1.0000
  C   C41       1.0  0.4160399999999999  0.98618  0.5815200000000003  1.0000
  C   C42       1.0  0.58396  0.01382  0.41848000000000013  1.0000
  C   C43       1.0  0.08395999999999999  0.48618  0.9184900000000003  1.0000
  C   C44       1.0  0.91604  0.51382  0.08151  1.0000
  H   H5        1.0  0.21259  0.97489  0.4995900000000001  1.0000
  H   H6        1.0  0.78741  0.0251  0.50041  1.0000
  H   H7        1.0  0.28747  0.47263  0.00045  1.0000
  H   H8        1.0  0.71253  0.52738  0.9995500000000003  1.0000
  H   H9        1.0  0.12956  0.01354  0.22933000000000006  1.0000
  H   H10       1.0  0.87044  0.98645  0.7706700000000002  1.0000
  H   H11       1.0  0.3705  0.51002  0.27075  1.0000
  H   H12       1.0  0.6295  0.49002  0.72925  1.0000
  N   N1        1.0  0.97359  0.03283  0.24603  1.0000
  H   H13       1.0  0.9784299999999999  0.92042  0.20372000000000007  1.0000
  H   H14       1.0  0.98504  0.15284  0.21105000000000004  1.0000
  N   N2        1.0  0.02641  0.96717  0.75397  1.0000
  H   H15       1.0  0.02157000000000002  0.07958  0.7962800000000002  1.0000
  H   H16       1.0  0.014949999999999995  0.8471500000000001  0.78896  1.0000
  N   N3        1.0  0.52641  0.53146  0.254  1.0000
  H   H17       1.0  0.52182  0.41882  0.29624  1.0000
  H   H18       1.0  0.51472  0.6512000000000002  0.28908000000000006  1.0000
  N   N4        1.0  0.47359  0.46857  0.74599  1.0000
  H   H19       1.0  0.47817000000000004  0.58122  0.7037700000000002  1.0000
  H   H20       1.0  0.48529000000000005  0.34885  0.7109100000000003  1.0000
