data_image0
_chemical_formula_structural       Br2C63Cr6H46O27
_chemical_formula_sum              "Br2 C63 Cr6 H46 O27"
_cell_length_a       10.96139
_cell_length_b       10.95065
_cell_length_c       18.82918
_cell_angle_alpha    90.53563
_cell_angle_beta     90.22207
_cell_angle_gamma    60.28992

_space_group_name_H-M_alt    "P 1"
_space_group_IT_number       1

loop_
  _space_group_symop_operation_xyz
  'x, y, z'

loop_
  _atom_site_type_symbol
  _atom_site_label
  _atom_site_symmetry_multiplicity
  _atom_site_fract_x
  _atom_site_fract_y
  _atom_site_fract_z
  _atom_site_occupancy
  Br  Br1       1.0  0.06848999999999998  0.46267  0.35494  1.0000
  Br  Br2       1.0  0.16917  0.03263  0.33406  1.0000
  C   C1        1.0  0.23937  0.64567  0.61033  1.0000
  C   C2        1.0  0.57797  0.14199  0.71006  1.0000
  C   C3        1.0  0.5758799999999998  0.14461  0.78302  1.0000
  C   C4        1.0  0.65206  0.6205  0.60192  1.0000
  C   C5        1.0  0.9302999999999999  0.10279  0.78674  1.0000
  C   C6        1.0  0.9244799999999997  0.11176999999999998  0.7064  1.0000
  C   C7        1.0  0.6712899999999999  0.16992  0.67323  1.0000
  C   C8        1.0  0.17717  0.66962  0.83412  1.0000
  C   C9        1.0  0.15200999999999998  0.57695  0.79332  1.0000
  C   C10       1.0  0.16043999999999997  0.57432  0.71969  1.0000
  C   C11       1.0  0.20133000000000004  0.77019  0.72454  1.0000
  C   C12       1.0  0.69146  0.53855  0.79897  1.0000
  C   C13       1.0  0.2039299999999999  0.76557  0.79834  1.0000
  C   C14       1.0  0.22469999999999998  0.42051  0.7967300000000002  1.0000
  C   C15       1.0  0.23168000000000002  0.41839999999999994  0.71625  1.0000
  C   C16       1.0  0.6289599999999999  0.228  0.60248  1.0000
  C   C17       1.0  0.18991000000000002  0.66775  0.68386  1.0000
  C   C18       1.0  0.66329  0.67985  0.17154  1.0000
  C   C19       1.0  0.7562399999999999  0.55622  0.20541  1.0000
  C   C20       1.0  0.7559899999999999  0.54471  0.27748  1.0000
  C   C21       1.0  0.57749  0.78765  0.28851  1.0000
  C   C22       1.0  0.57772  0.79923  0.21400000000000002  1.0000
  C   C23       1.0  0.69835  0.67312  0.81276  1.0000
  C   C24       1.0  0.7813899999999998  0.41129  0.1923  1.0000
  C   C25       1.0  0.78001  0.39828  0.27209  1.0000
  C   C26       1.0  0.66277  0.65649  0.32043  1.0000
  C   C27       1.0  0.6711399999999998  0.12043  0.1825  1.0000
  C   C28       1.0  0.21911000000000003  0.65073  0.40243  1.0000
  C   C29       1.0  0.55815  0.12698  0.2185  1.0000
  C   C30       1.0  0.5494599999999998  0.14135  0.29083  1.0000
  C   C31       1.0  0.7827199999999999  0.11021  0.29614  1.0000
  C   C32       1.0  0.79042  0.09771  0.22216000000000002  1.0000
  C   C33       1.0  0.40518  0.22225  0.20711  1.0000
  C   C34       1.0  0.66877  0.65043  0.67673  1.0000
  C   C35       1.0  0.39422  0.24046  0.28685  1.0000
  C   C36       1.0  0.6549999999999999  0.14895  0.32973  1.0000
  C   C37       1.0  0.11394000000000004  0.69082  0.18928  1.0000
  C   C38       1.0  0.12616999999999995  0.79496  0.22542000000000004  1.0000
  C   C39       1.0  0.13879999999999998  0.79336  0.29701  1.0000
  C   C40       1.0  0.6428599999999999  0.62316  0.3926  1.0000
  C   C41       1.0  0.10185000000000004  0.59321  0.30278  1.0000
  C   C42       1.0  0.08777  0.5972  0.22854  1.0000
  C   C43       1.0  0.22290000000000007  0.8509399999999999  0.21203  1.0000
  C   C44       1.0  0.24108000000000002  0.8472599999999999  0.29154  1.0000
  C   C45       1.0  0.7960999999999998  0.67486  0.68868  1.0000
  C   C46       1.0  0.14368000000000003  0.68287  0.33605  1.0000
  C   C47       1.0  0.7019  0.10015000000000002  0.8954400000000001  1.0000
  C   C48       1.0  0.72286  0.68747  0.88856  1.0000
  C   C49       1.0  0.11843000000000001  0.70588  0.90571  1.0000
  C   C50       1.0  0.67975  0.09724  0.10678  1.0000
  C   C51       1.0  0.69684  0.6920499999999999  0.09832  1.0000
  C   C52       1.0  0.61828  0.22496  0.39651  1.0000
  C   C53       1.0  0.08611  0.71305  0.11456000000000001  1.0000
  C   C54       1.0  0.5594  0.8002799999999999  0.78586  1.0000
  C   C55       1.0  0.53526  0.7785999999999998  0.70756  1.0000
  C   C56       1.0  0.69134  0.51741  0.71851  1.0000
  C   C57       1.0  0.82413  0.66438  0.76968  1.0000
  C   C58       1.0  0.74894  0.83908  0.59422  1.0000
  C   C59       1.0  0.87466  0.74405  0.54688  1.0000
  C   C60       1.0  0.8499199999999998  0.80068  0.47129000000000004  1.0000
  C   C61       1.0  0.6812  0.15299  0.82273  1.0000
  C   C62       1.0  0.7747699999999998  0.18114  0.7860000000000001  1.0000
  C   C63       1.0  0.76807  0.19223  0.7121  1.0000
  Cr  Cr1       1.0  0.3929599999999999  0.39792  0.50224  1.0000
  Cr  Cr2       1.0  0.3983399999999999  0.70848  0.50125  1.0000
  Cr  Cr3       1.0  0.7086699999999998  0.39357  0.49646  1.0000
  Cr  Cr4       1.0  0.93765  0.9385399999999999  0.0076100000000000004  1.0000
  Cr  Cr5       1.0  0.62533  0.93737  0.99452  1.0000
  Cr  Cr6       1.0  0.9379399999999999  0.62523  0.00119  1.0000
  H   H1        1.0  0.56621  0.8974599999999999  0.791  1.0000
  H   H2        1.0  0.9621099999999998  0.00887  0.67909  1.0000
  H   H3        1.0  0.21638999999999997  0.85034  0.69961  1.0000
  H   H4        1.0  0.46851999999999994  0.81422  0.8182  1.0000
  H   H5        1.0  0.21728  0.8441400000000001  0.82728  1.0000
  H   H6        1.0  0.15554  0.38178  0.8177300000000001  1.0000
  H   H7        1.0  0.3285099999999999  0.37676  0.82317  1.0000
  H   H8        1.0  0.33943  0.37344  0.69513  1.0000
  H   H9        1.0  0.16521999999999998  0.38023  0.69051  1.0000
  H   H10       1.0  0.5063299999999998  0.87796  0.32027000000000005  1.0000
  H   H11       1.0  0.5114499999999997  0.9002100000000001  0.1898  1.0000
  H   H12       1.0  0.7943899999999998  0.42623  0.7032  1.0000
  H   H13       1.0  0.8862099999999998  0.34151  0.16828  1.0000
  H   H14       1.0  0.69163  0.40975  0.16538  1.0000
  H   H15       1.0  0.6878699999999999  0.39161999999999997  0.29140000000000005  1.0000
  H   H16       1.0  0.44712  0.75718  0.70391  1.0000
  H   H17       1.0  0.88346  0.31999  0.29425  1.0000
  H   H18       1.0  0.8695199999999998  0.10623  0.32552  1.0000
  H   H19       1.0  0.88674  0.07746  0.19626  1.0000
  H   H20       1.0  0.35199  0.16562  0.18594  1.0000
  H   H21       1.0  0.3817499999999999  0.31986  0.17844  1.0000
  H   H22       1.0  0.36499999999999994  0.34901  0.30376  1.0000
  H   H23       1.0  0.9187999999999998  0.56164  0.78076  1.0000
  H   H24       1.0  0.33337999999999995  0.19586  0.3118  1.0000
  H   H25       1.0  0.059389999999999984  0.52658  0.20208000000000004  1.0000
  H   H26       1.0  0.16732  0.95855  0.18951  1.0000
  H   H27       1.0  0.5055799999999998  0.87605  0.67727  1.0000
  H   H28       1.0  0.31973  0.77454  0.18318  1.0000
  H   H29       1.0  0.34856  0.76829  0.30833000000000005  1.0000
  H   H30       1.0  0.8471199999999998  0.74816  0.78769  1.0000
  H   H31       1.0  0.7831099999999999  0.4455700000000001  0.82284  1.0000
  H   H32       1.0  0.5945599999999998  0.54775  0.823  1.0000
  H   H33       1.0  0.60778  0.49125  0.70503  1.0000
  H   H34       1.0  0.8920399999999999  0.59051  0.66236  1.0000
  H   H35       1.0  0.72979  0.9472800000000001  0.58742  1.0000
  H   H36       1.0  0.6508  0.84466  0.57542  1.0000
  H   H37       1.0  0.9703999999999999  0.74079  0.5684  1.0000
  H   H38       1.0  0.8911099999999998  0.63567  0.5449  1.0000
  H   H39       1.0  0.7522599999999996  0.8085  0.44911  1.0000
  H   H40       1.0  0.9390299999999999  0.72845  0.43729  1.0000
  H   H41       1.0  0.8415999999999998  0.90599  0.47036  1.0000
  H   H42       1.0  0.49915000000000004  0.12704999999999997  0.68262  1.0000
  H   H43       1.0  0.49567999999999995  0.12899  0.80761  1.0000
  H   H44       1.0  0.9697200000000001  0.9955199999999998  0.8072  1.0000
  H   H45       1.0  0.9748699999999998  0.16412  0.81211  1.0000
  H   H46       1.0  0.9679699999999999  0.17655  0.68501  1.0000
  O   O1        1.0  0.5073799999999998  0.2557  0.5814400000000001  1.0000
  O   O2        1.0  0.8371699999999999  0.59341  0.91525  1.0000
  O   O3        1.0  0.06519999999999998  0.63553  0.9315700000000001  1.0000
  O   O4        1.0  0.28032000000000007  0.52735  0.57893  1.0000
  O   O5        1.0  0.06825999999999995  0.82889  0.09184  1.0000
  O   O6        1.0  0.79887  0.05741  0.07934  1.0000
  O   O7        1.0  0.58493  0.08035  0.07678  1.0000
  O   O8        1.0  0.62696  0.80965  0.06706  1.0000
  O   O9        1.0  0.81604  0.59661  0.07651  1.0000
  O   O10       1.0  0.04560999999999998  0.6385  0.08106  1.0000
  O   O11       1.0  0.8336400000000002  0.83371  0.0011  1.0000
  O   O12       1.0  0.52448  0.69581  0.42404  1.0000
  O   O13       1.0  0.26051  0.73959  0.58459  1.0000
  O   O14       1.0  0.5322999999999999  0.69508  0.57382  1.0000
  O   O15       1.0  0.7448399999999998  0.5035  0.57637  1.0000
  O   O16       1.0  0.69912  0.27656  0.57196  1.0000
  O   O17       1.0  0.49893999999999994  0.2565  0.41986  1.0000
  O   O18       1.0  0.2725  0.52808  0.42915000000000003  1.0000
  O   O19       1.0  0.25206  0.74038  0.42301  1.0000
  O   O20       1.0  0.7719199999999999  0.81004  0.6678  1.0000
  O   O21       1.0  0.7363899999999999  0.50429  0.41479  1.0000
  O   O22       1.0  0.6913  0.27729  0.42217000000000005  1.0000
  O   O23       1.0  0.49998999999999993  0.49999  0.49998  1.0000
  O   O24       1.0  0.08940000000000001  0.82569  0.93057  1.0000
  O   O25       1.0  0.81846  0.05444  0.92985  1.0000
  O   O26       1.0  0.6060599999999999  0.07715  0.91551  1.0000
  O   O27       1.0  0.6465499999999998  0.80668  0.9175700000000001  1.0000
