data_image0
_chemical_formula_structural       C58Cr6H32O28
_chemical_formula_sum              "C58 Cr6 H32 O28"
_cell_length_a       10.9025
_cell_length_b       10.92785
_cell_length_c       18.829609999999995
_cell_angle_alpha    90.10912
_cell_angle_beta     89.64842999999999
_cell_angle_gamma    119.84503

_symmetry_space_group_name_H-M    'P 1'
_symmetry_Int_Tables_number       1

loop_
  _symmetry_equiv_pos_as_xyz
  'x,y,z'

loop_
  _atom_site_type_symbol
  _atom_site_label
  _atom_site_symmetry_multiplicity
  _atom_site_fract_x
  _atom_site_fract_y
  _atom_site_fract_z
  _atom_site_occupancy
  C   C1        1.0  0.8682200000000002  0.63595  0.60513  1.0000
  C   C2        1.0  0.9371700000000001  0.14083  0.709  1.0000
  C   C3        1.0  0.9549000000000001  0.15219  0.78377  1.0000
  C   C4        1.0  0.26572  0.62918  0.60527  1.0000
  C   C5        1.0  0.7412600000000001  0.18867  0.7213  1.0000
  C   C6        1.0  0.7752200000000001  0.22257  0.79302  1.0000
  C   C7        1.0  0.6133  0.17776  0.69674  1.0000
  C   C8        1.0  0.53854  0.22489999999999996  0.73802  1.0000
  C   C9        1.0  0.58758  0.2811  0.80486  1.0000
  C   C10       1.0  0.7065800000000001  0.28233  0.83197  1.0000
  C   C11       1.0  0.8362  0.16828  0.67698  1.0000
  C   C12       1.0  0.27196000000000004  0.54884  0.796  1.0000
  C   C13       1.0  0.7083  0.59579  0.70712  1.0000
  C   C14       1.0  0.6911500000000003  0.60255  0.7798900000000001  1.0000
  C   C15       1.0  0.80886  0.65296  0.82512  1.0000
  C   C16       1.0  0.85959  0.22509999999999997  0.6033  1.0000
  C   C17       1.0  0.9428200000000001  0.69428  0.79758  1.0000
  C   C18       1.0  0.9601600000000002  0.69041  0.7252  1.0000
  C   C19       1.0  0.8437800000000002  0.64422  0.67977  1.0000
  C   C20       1.0  0.26326  0.53873  0.27699  1.0000
  C   C21       1.0  0.27435000000000004  0.55228  0.20447  1.0000
  C   C22       1.0  0.33157  0.6858  0.17348  1.0000
  C   C23       1.0  0.25611  0.53404  0.7235  1.0000
  C   C24       1.0  0.36147999999999997  0.80363  0.21559  1.0000
  C   C25       1.0  0.34549  0.78895  0.28906  1.0000
  C   C26       1.0  0.3011  0.65686  0.32002  1.0000
  C   C27       1.0  0.7217800000000002  0.14399  0.28919  1.0000
  C   C28       1.0  0.8699400000000002  0.63669  0.39555  1.0000
  C   C29       1.0  0.7190600000000001  0.13767  0.21679999999999996  1.0000
  C   C30       1.0  0.8325000000000001  0.1436  0.17827  1.0000
  C   C31       1.0  0.9524600000000001  0.15767  0.21389  1.0000
  C   C32       1.0  0.9574500000000001  0.17358  0.28836  1.0000
  C   C33       1.0  0.8434000000000001  0.16968  0.32532  1.0000
  C   C34       1.0  0.29922000000000004  0.65302  0.6801  1.0000
  C   C35       1.0  0.9651700000000002  0.71436  0.27637  1.0000
  C   C36       1.0  0.94947  0.71502  0.20387  1.0000
  C   C37       1.0  0.8140300000000001  0.65061  0.17478  1.0000
  C   C38       1.0  0.6945400000000002  0.57324  0.21840000000000004  1.0000
  C   C39       1.0  0.7107800000000001  0.56977  0.29146  1.0000
  C   C40       1.0  0.26715000000000005  0.63148  0.39496  1.0000
  C   C41       1.0  0.8459800000000001  0.64549  0.32072  1.0000
  C   C42       1.0  0.8125100000000002  0.10929000000000001  0.89656  1.0000
  C   C43       1.0  0.39413  0.70102  0.8969400000000001  1.0000
  C   C44       1.0  0.7964  0.69107  0.89716  1.0000
  C   C45       1.0  0.8633100000000001  0.18014  0.82641  1.0000
  C   C46       1.0  0.8056900000000002  0.10355  0.10378  1.0000
  C   C47       1.0  0.39291  0.70403  0.10304  1.0000
  C   C48       1.0  0.7974200000000001  0.69285  0.10417  1.0000
  C   C49       1.0  0.8617000000000001  0.22712  0.3964  1.0000
  C   C50       1.0  0.35168000000000016  0.78663  0.71048  1.0000
  C   C51       1.0  0.37077000000000004  0.80212  0.78361  1.0000
  C   C52       1.0  0.33541  0.68331  0.82623  1.0000
  C   C53       1.0  0.14012  0.11185  0.20897  1.0000
  C   C54       1.0  0.24362  0.08894  0.59569  1.0000
  C   C55       1.0  0.06412  0.1354  0.81362  1.0000
  C   C56       1.0  0.14329000000000003  0.09396  0.77209  1.0000
  C   C57       1.0  0.12050000000000002  0.07311  0.69925  1.0000
  C   C58       1.0  0.016080000000000004  0.09544  0.66805  1.0000
  Cr  Cr1       1.0  0.7916600000000001  0.39025  0.49993000000000004  1.0000
  Cr  Cr2       1.0  0.09852000000000002  0.70829  0.50054  1.0000
  Cr  Cr3       1.0  0.10977000000000008  0.40143  0.49948  1.0000
  Cr  Cr4       1.0  0.87479  0.92589  7e-05  1.0000
  Cr  Cr5       1.0  0.57412  0.9486699999999999  0.9992999999999999  1.0000
  Cr  Cr6       1.0  0.55142  0.62532  0.00092  1.0000
  H   H1        1.0  0.37945000000000007  0.87816  0.6777  1.0000
  H   H2        1.0  0.40401  0.90741  0.19229  1.0000
  H   H3        1.0  0.42026000000000013  0.9072700000000001  0.80604  1.0000
  H   H4        1.0  0.36939000000000005  0.8800100000000001  0.32152  1.0000
  H   H5        1.0  0.63147  0.13928  0.31623  1.0000
  H   H6        1.0  0.62442  0.12429  0.19133  1.0000
  H   H7        1.0  0.05159  0.19557  0.31726  1.0000
  H   H8        1.0  0.07123999999999991  0.7677  0.29769  1.0000
  H   H9        1.0  0.04296999999999993  0.77363  0.17106  1.0000
  H   H10       1.0  0.58865  0.52301  0.1968  1.0000
  H   H11       1.0  0.61851  0.51164  0.32507  1.0000
  H   H12       1.0  0.4436200000000001  0.21974000000000002  0.71772  1.0000
  H   H13       1.0  0.24234000000000006  0.4557  0.82792  1.0000
  H   H14       1.0  0.20853  0.42855  0.70157  1.0000
  H   H15       1.0  0.22349  0.07786  0.79694  1.0000
  H   H16       1.0  0.09234  0.15765  0.86894  1.0000
  H   H17       1.0  0.99174  0.07091  0.6125  1.0000
  H   H18       1.0  0.7405  0.3229  0.88511  1.0000
  H   H19       1.0  0.56704  0.12881  0.6466  1.0000
  H   H20       1.0  0.19784000000000002  0.0853  0.16869  1.0000
  H   H21       1.0  0.06894  0.013009999999999999  0.23840000000000003  1.0000
  H   H22       1.0  0.22024  0.19218  0.24493  1.0000
  H   H23       1.0  0.5310200000000002  0.31988  0.83658  1.0000
  H   H24       1.0  0.28531  0.20488  0.59907  1.0000
  H   H25       1.0  0.15892  0.0401  0.55529  1.0000
  H   H26       1.0  0.33192000000000005  0.07353  0.57744  1.0000
  H   H27       1.0  0.61771  0.55699  0.67236  1.0000
  H   H28       1.0  0.58712  0.57362  0.80042  1.0000
  H   H29       1.0  0.03458  0.73504  0.83168  1.0000
  H   H30       1.0  0.065  0.72374  0.70455  1.0000
  H   H31       1.0  0.22342999999999996  0.43452999999999997  0.29923  1.0000
  H   H32       1.0  0.24814000000000003  0.45934  0.17306  1.0000
  O   O1        1.0  0.7665000000000002  0.25004  0.57979  1.0000
  O   O2        1.0  0.41333  0.60336  0.92044  1.0000
  O   O3        1.0  0.67611  0.62625  0.92675  1.0000
  O   O4        1.0  0.7985700000000001  0.51678  0.57478  1.0000
  O   O5        1.0  0.8953500000000001  0.80987  0.08095  1.0000
  O   O6        1.0  0.8724900000000001  0.04976  0.0738  1.0000
  O   O7        1.0  0.69168  0.08807  0.07907  1.0000
  O   O8        1.0  0.45172000000000007  0.82525  0.07405  1.0000
  O   O9        1.0  0.41358  0.60637  0.08096  1.0000
  O   O10       1.0  0.6763400000000002  0.62904  0.07555  1.0000
  O   O11       1.0  0.66678  0.83329  9e-05  1.0000
  O   O12       1.0  0.21869000000000002  0.7019  0.42596  1.0000
  O   O13       1.0  0.984  0.73295  0.58109  1.0000
  O   O14       1.0  0.2186  0.70089  0.57476  1.0000
  O   O15       1.0  0.24939000000000006  0.51535  0.57994  1.0000
  O   O16       1.0  0.9827900000000003  0.2809  0.5737  1.0000
  O   O17       1.0  0.7666  0.25113  0.41926  1.0000
  O   O18       1.0  0.7986600000000001  0.51779  0.42598  1.0000
  O   O19       1.0  0.9841000000000001  0.73404  0.42057  1.0000
  O   O20       1.0  0.06494  0.16769  0.17363  1.0000
  O   O21       1.0  0.19521000000000002  0.02106  0.66199  1.0000
  O   O22       1.0  0.24949000000000005  0.51644  0.41942  1.0000
  O   O23       1.0  0.98288  0.28191  0.42489  1.0000
  O   O24       1.0  0.99998  0.49999  0.49998  1.0000
  O   O25       1.0  0.89511  0.80686  0.9204300000000001  1.0000
  O   O26       1.0  0.8722600000000001  0.04697  0.925  1.0000
  O   O27       1.0  0.69143  0.08506  0.91855  1.0000
  O   O28       1.0  0.45149000000000006  0.82246  0.92525  1.0000
