data_image0
_chemical_formula_structural       C72Cr6H24O26H12
_chemical_formula_sum              "C72 Cr6 H36 O26"
_cell_length_a       11.00618
_cell_length_b       11.00618
_cell_length_c       18.8742
_cell_angle_alpha    90.00002
_cell_angle_beta     89.99993000000002
_cell_angle_gamma    120.00017999999999

_symmetry_space_group_name_H-M    'P 1'
_symmetry_Int_Tables_number       1

loop_
  _symmetry_equiv_pos_as_xyz
  'x,y,z'

loop_
  _atom_site_type_symbol
  _atom_site_label
  _atom_site_symmetry_multiplicity
  _atom_site_fract_x
  _atom_site_fract_y
  _atom_site_fract_z
  _atom_site_occupancy
  C   C1        1.0  0.52097  0.45419  0.1456  1.0000
  C   C2        1.0  0.5458100000000001  0.06677  0.1456  1.0000
  C   C3        1.0  0.93323  0.47903  0.1456  1.0000
  C   C4        1.0  0.45986000000000005  0.51987  0.85249  1.0000
  C   C5        1.0  0.05999999999999999  0.54014  0.85249  1.0000
  C   C6        1.0  0.48013  0.94  0.85249  1.0000
  C   C7        1.0  0.39128000000000024  0.9551100000000002  0.45808000000000004  1.0000
  C   C8        1.0  0.04488000000000005  0.43616000000000005  0.45808000000000004  1.0000
  C   C9        1.0  0.56383  0.60872  0.45808000000000004  1.0000
  C   C10       1.0  0.06412999999999998  0.44173  0.5308700000000001  1.0000
  C   C11       1.0  0.37761000000000006  0.9358600000000001  0.5308700000000001  1.0000
  C   C12       1.0  0.5582600000000002  0.6223900000000002  0.5308700000000001  1.0000
  C   C13       1.0  0.7537000000000001  0.12002  0.58677  1.0000
  C   C14       1.0  0.8799700000000001  0.63368  0.58677  1.0000
  C   C15       1.0  0.36633  0.24630000000000002  0.58677  1.0000
  C   C16       1.0  0.94844  0.71744  0.44710000000000005  1.0000
  C   C17       1.0  0.769  0.05155  0.44709  1.0000
  C   C18       1.0  0.28256000000000003  0.23100000000000004  0.44710000000000005  1.0000
  C   C19       1.0  0.87837  0.1356  0.56081  1.0000
  C   C20       1.0  0.8643900000000001  0.74277  0.56082  1.0000
  C   C21       1.0  0.25724  0.12163  0.56082  1.0000
  C   C22       1.0  0.89843  0.78416  0.49094000000000004  1.0000
  C   C23       1.0  0.88573  0.10156000000000003  0.49094000000000004  1.0000
  C   C24       1.0  0.21584  0.11427000000000001  0.49094000000000004  1.0000
  C   C25       1.0  0.51622  0.45425  0.35439  1.0000
  C   C26       1.0  0.5457500000000001  0.061970000000000004  0.35439  1.0000
  C   C27       1.0  0.93803  0.48378000000000004  0.35439  1.0000
  C   C28       1.0  0.45758  0.51948  0.64632  1.0000
  C   C29       1.0  0.06190000000000003  0.5424200000000001  0.64632  1.0000
  C   C30       1.0  0.48052  0.9381  0.64632  1.0000
  C   C31       1.0  0.4974  0.00513  0.9227  1.0000
  C   C32       1.0  0.99487  0.49227  0.9227  1.0000
  C   C33       1.0  0.50773  0.5026  0.9227  1.0000
  C   C34       1.0  0.9720400000000002  0.49233  0.07072  1.0000
  C   C35       1.0  0.52028  0.027960000000000002  0.07072  1.0000
  C   C36       1.0  0.50767  0.47972  0.07072  1.0000
  C   C37       1.0  0.3790800000000001  0.9819800000000002  0.96426  1.0000
  C   C38       1.0  0.018020000000000033  0.3971  0.96426  1.0000
  C   C39       1.0  0.6029  0.62092  0.96426  1.0000
  C   C40       1.0  0.020960000000000003  0.4087  0.03907000000000001  1.0000
  C   C41       1.0  0.38775000000000004  0.9790500000000001  0.03907000000000001  1.0000
  C   C42       1.0  0.5913  0.61225  0.03907000000000001  1.0000
  C   C43       1.0  0.63959  0.07331  0.02768  1.0000
  C   C44       1.0  0.9266900000000001  0.56628  0.02768  1.0000
  C   C45       1.0  0.4337200000000001  0.3604100000000001  0.02768  1.0000
  C   C46       1.0  0.94128  0.56913  0.95506  1.0000
  C   C47       1.0  0.62785  0.05872  0.95506  1.0000
  C   C48       1.0  0.43087  0.3721500000000001  0.95506  1.0000
  C   C49       1.0  0.2521100000000001  0.9605100000000001  0.9341900000000001  1.0000
  C   C50       1.0  0.03949  0.2916  0.9341900000000001  1.0000
  C   C51       1.0  0.7084000000000001  0.7478900000000003  0.9341900000000001  1.0000
  C   C52       1.0  0.07027  0.33439  0.07987  1.0000
  C   C53       1.0  0.26411999999999997  0.92973  0.07987  1.0000
  C   C54       1.0  0.6656100000000003  0.7358800000000002  0.07987  1.0000
  C   C55       1.0  0.13314000000000015  0.9174100000000002  0.97566  1.0000
  C   C56       1.0  0.08259  0.21573  0.97566  1.0000
  C   C57       1.0  0.78427  0.86686  0.97566  1.0000
  C   C58       1.0  0.09957000000000003  0.23794000000000004  0.0482  1.0000
  C   C59       1.0  0.13838000000000006  0.9004300000000001  0.0482  1.0000
  C   C60       1.0  0.76206  0.86162  0.0482  1.0000
  C   C61       1.0  0.49715000000000004  0.9925300000000001  0.5747200000000001  1.0000
  C   C62       1.0  0.007470000000000013  0.50462  0.5747200000000001  1.0000
  C   C63       1.0  0.49538  0.50285  0.5747200000000001  1.0000
  C   C64       1.0  0.99069  0.51385  0.42743000000000003  1.0000
  C   C65       1.0  0.52316  0.00931  0.42743000000000003  1.0000
  C   C66       1.0  0.48615  0.47684000000000004  0.42743000000000003  1.0000
  C   C67       1.0  0.63122  0.057290000000000015  0.54448  1.0000
  C   C68       1.0  0.94271  0.57393  0.54448  1.0000
  C   C69       1.0  0.42607  0.36878000000000005  0.54448  1.0000
  C   C70       1.0  0.9599700000000001  0.60159  0.47161000000000003  1.0000
  C   C71       1.0  0.64162  0.04003  0.47161000000000003  1.0000
  C   C72       1.0  0.39841000000000004  0.35837  0.47161000000000003  1.0000
  Cr  Cr1       1.0  0.7685500000000001  0.5413200000000001  0.25066  1.0000
  Cr  Cr2       1.0  0.45868000000000003  0.22723  0.25066  1.0000
  Cr  Cr3       1.0  0.77277  0.23145  0.25066  1.0000
  Cr  Cr4       1.0  0.5413200000000002  0.7685500000000002  0.7493400000000002  1.0000
  Cr  Cr5       1.0  0.22723000000000002  0.45868  0.7493400000000002  1.0000
  Cr  Cr6       1.0  0.23145000000000004  0.7727700000000001  0.7493400000000002  1.0000
  H   H1        1.0  0.74398  0.12075  0.05014  1.0000
  H   H2        1.0  0.8792500000000001  0.62323  0.05014  1.0000
  H   H3        1.0  0.37677  0.25603  0.05014  1.0000
  H   H4        1.0  0.9153600000000001  0.63611  0.9242500000000002  1.0000
  H   H5        1.0  0.72075  0.08464  0.9242500000000002  1.0000
  H   H6        1.0  0.36389  0.27925  0.9242500000000002  1.0000
  H   H7        1.0  0.24343999999999993  0.98202  0.8792200000000001  1.0000
  H   H8        1.0  0.01798000000000001  0.26142  0.8792200000000001  1.0000
  H   H9        1.0  0.73858  0.7565700000000001  0.8792200000000001  1.0000
  H   H10       1.0  0.08794000000000007  0.3506400000000001  0.13626  1.0000
  H   H11       1.0  0.2627000000000001  0.9120500000000001  0.13626  1.0000
  H   H12       1.0  0.64936  0.7373  0.13626  1.0000
  H   H13       1.0  0.75091  0.14816000000000001  0.6415  1.0000
  H   H14       1.0  0.8518400000000002  0.60275  0.6415  1.0000
  H   H15       1.0  0.39725000000000005  0.24909  0.6415  1.0000
  H   H16       1.0  0.9857600000000001  0.7653  0.39589  1.0000
  H   H17       1.0  0.77953  0.014230000000000001  0.39589  1.0000
  H   H18       1.0  0.2347  0.22046  0.39589  1.0000
  H   H19       1.0  0.9688000000000001  0.17273  0.59515  1.0000
  H   H20       1.0  0.8272700000000001  0.7960700000000003  0.59515  1.0000
  H   H21       1.0  0.20394  0.031200000000000006  0.5951600000000001  1.0000
  H   H22       1.0  0.88572  0.86792  0.4700500000000001  1.0000
  H   H23       1.0  0.9822000000000001  0.11427000000000001  0.4700500000000001  1.0000
  H   H24       1.0  0.13208  0.01779  0.4700500000000001  1.0000
  O   O1        1.0  0.9109600000000002  0.57241  0.17101  1.0000
  O   O2        1.0  0.42759  0.33855  0.17101  1.0000
  O   O3        1.0  0.66145  0.08904  0.17101  1.0000
  O   O4        1.0  0.57241  0.91096  0.8289900000000001  1.0000
  O   O5        1.0  0.33855  0.42759  0.8289900000000001  1.0000
  O   O6        1.0  0.08903999999999998  0.66145  0.8289900000000001  1.0000
  O   O7        1.0  0.63975  0.52853  0.1756  1.0000
  O   O8        1.0  0.47147  0.11122  0.1756  1.0000
  O   O9        1.0  0.88878  0.36025  0.1756  1.0000
  O   O10       1.0  0.5285300000000002  0.6397500000000003  0.8244  1.0000
  O   O11       1.0  0.11122  0.47147  0.8244  1.0000
  O   O12       1.0  0.3602500000000001  0.8887800000000001  0.8244  1.0000
  O   O13       1.0  0.9093300000000001  0.5724  0.33154  1.0000
  O   O14       1.0  0.42760000000000004  0.33693  0.33154  1.0000
  O   O15       1.0  0.66307  0.09067  0.33154  1.0000
  O   O16       1.0  0.5724000000000002  0.9093300000000002  0.66846  1.0000
  O   O17       1.0  0.3369300000000001  0.42760000000000004  0.66846  1.0000
  O   O18       1.0  0.09067000000000007  0.66307  0.66846  1.0000
  O   O19       1.0  0.63824  0.52852  0.32441  1.0000
  O   O20       1.0  0.47148  0.10972  0.32441  1.0000
  O   O21       1.0  0.89028  0.3617600000000001  0.32441  1.0000
  O   O22       1.0  0.52852  0.63824  0.6755900000000001  1.0000
  O   O23       1.0  0.10972  0.47148000000000007  0.6755900000000001  1.0000
  O   O24       1.0  0.36176  0.89028  0.6755900000000001  1.0000
  O   O25       1.0  0.66667  0.33333  0.25063  1.0000
  O   O26       1.0  0.33333  0.66667  0.74937  1.0000
  H   H25       1.0  0.036460000000000055  0.8966600000000001  0.9508800000000001  1.0000
  H   H26       1.0  0.10335000000000003  0.13980000000000004  0.9508800000000001  1.0000
  H   H27       1.0  0.8602  0.96354  0.9508800000000001  1.0000
  H   H28       1.0  0.13383  0.17906  0.08018  1.0000
  H   H29       1.0  0.04522999999999998  0.86617  0.08018  1.0000
  H   H30       1.0  0.82094  0.95477  0.08018  1.0000
  H   H31       1.0  0.2991  0.92377  0.42562000000000005  1.0000
  H   H32       1.0  0.07622000000000007  0.37532000000000004  0.42562000000000005  1.0000
  H   H33       1.0  0.62467  0.7009  0.42562000000000005  1.0000
  H   H34       1.0  0.12469  0.39769  0.55272  1.0000
  H   H35       1.0  0.2730000000000001  0.8753000000000001  0.55272  1.0000
  H   H36       1.0  0.6023  0.727  0.55272  1.0000
