data_image0
_chemical_formula_structural       O4C2O4C2O2V2C4H2C4H4C36H18O4C2O4C2O2V2OHOHOHOH
_chemical_formula_sum              "O24 C52 V4 H28"
_cell_length_a       21.97818
_cell_length_b       7.20678
_cell_length_c       14.93758
_cell_angle_alpha    89.93984
_cell_angle_beta     107.22235
_cell_angle_gamma    89.97817999999998

_symmetry_space_group_name_H-M    'P 1'
_symmetry_Int_Tables_number       1

loop_
  _symmetry_equiv_pos_as_xyz
  'x,y,z'

loop_
  _atom_site_type_symbol
  _atom_site_label
  _atom_site_symmetry_multiplicity
  _atom_site_fract_x
  _atom_site_fract_y
  _atom_site_fract_z
  _atom_site_occupancy
  O   O1        1.0  0.58477  0.50577  0.00209  1.0000
  O   O2        1.0  0.41523000000000004  0.005769999999999999  0.99791  1.0000
  O   O3        1.0  0.46706  0.17333999999999994  0.86195  1.0000
  O   O4        1.0  0.53294  0.6733399999999998  0.13805  1.0000
  C   C1        1.0  0.45496  0.34412  0.8259200000000001  1.0000
  C   C2        1.0  0.54505  0.84388  0.17411  1.0000
  O   O5        1.0  0.58751  0.17589  0.99321  1.0000
  O   O6        1.0  0.4124900000000001  0.67589  0.00679  1.0000
  O   O7        1.0  0.53654  0.00815  0.1301  1.0000
  O   O8        1.0  0.46346  0.50815  0.8699  1.0000
  C   C3        1.0  0.6125300000000001  0.3450499999999999  0.99586  1.0000
  C   C4        1.0  0.38747  0.84509  0.00415  1.0000
  O   O9        1.0  0.48314000000000007  0.34004  0.04476  1.0000
  O   O10       1.0  0.51686  0.84004  0.95524  1.0000
  V   V1        1.0  0.50313  0.06419  0.9917  1.0000
  V   V2        1.0  0.49687  0.56419  0.0083  1.0000
  C   C5        1.0  0.21674999999999997  0.7386  0.01602  1.0000
  C   C6        1.0  0.7833199999999999  0.23859999999999998  0.98417  1.0000
  C   C7        1.0  0.17769000000000004  0.8847399999999997  0.98308  1.0000
  C   C8        1.0  0.8222899999999999  0.38480999999999993  0.01688  1.0000
  H   H1        1.0  0.19934  0.623  0.04818  1.0000
  H   H2        1.0  0.8008100000000001  0.12295  0.95221  1.0000
  C   C9        1.0  0.28247  0.7181  0.0076  1.0000
  C   C10       1.0  0.7176099999999999  0.21804999999999994  0.99261  1.0000
  C   C11       1.0  0.32195  0.86253  0.01106  1.0000
  C   C12       1.0  0.6780399999999999  0.36245  0.98892  1.0000
  H   H3        1.0  0.29961  0.57794  0.00354  1.0000
  H   H4        1.0  0.70055  0.0779  0.99687  1.0000
  H   H5        1.0  0.30665  0.00161  0.02184  1.0000
  H   H6        1.0  0.69326  0.50153  0.97795  1.0000
  C   C13       1.0  0.9274  0.8866999999999998  0.72375  1.0000
  C   C14       1.0  0.07272  0.38515  0.27614  1.0000
  C   C15       1.0  0.57403  0.8467  0.27572  1.0000
  C   C16       1.0  0.42597  0.34812  0.72436  1.0000
  C   C17       1.0  0.9382  0.9160299999999998  0.56824  1.0000
  C   C18       1.0  0.06139  0.39776  0.43182  1.0000
  C   C19       1.0  0.96552  0.9156799999999998  0.6651  1.0000
  C   C20       1.0  0.03417  0.40257  0.33496000000000004  1.0000
  C   C21       1.0  0.8620899999999999  0.85493  0.68547  1.0000
  C   C22       1.0  0.13839  0.35953  0.31414000000000003  1.0000
  C   C23       1.0  0.83379  0.84315  0.58742  1.0000
  C   C24       1.0  0.16668  0.34157  0.41193  1.0000
  C   C25       1.0  0.8726200000000001  0.8843299999999997  0.52916  1.0000
  C   C26       1.0  0.12731999999999996  0.37144  0.47062  1.0000
  C   C27       1.0  0.76748  0.8047799999999998  0.54566  1.0000
  C   C28       1.0  0.23333  0.30721  0.45327  1.0000
  C   C29       1.0  0.7393099999999999  0.84273  0.44798  1.0000
  C   C30       1.0  0.26096  0.33861999999999987  0.5516  1.0000
  C   C31       1.0  0.77997  0.8860299999999999  0.39309  1.0000
  C   C32       1.0  0.21977  0.3709099999999999  0.60698  1.0000
  C   C33       1.0  0.84542  0.9002299999999998  0.43271  1.0000
  C   C34       1.0  0.15421  0.3808599999999999  0.56734  1.0000
  C   C35       1.0  0.7280899999999999  0.72901  0.59725  1.0000
  C   C36       1.0  0.27354  0.24133  0.40065  1.0000
  C   C37       1.0  0.66224  0.73072  0.55932  1.0000
  C   C38       1.0  0.33934  0.24682  0.43898  1.0000
  C   C39       1.0  0.63362  0.78181  0.46644  1.0000
  C   C40       1.0  0.36732  0.29227  0.53274  1.0000
  C   C41       1.0  0.67161  0.83262  0.4083  1.0000
  C   C42       1.0  0.32871  0.33301  0.59139  1.0000
  C   C43       1.0  0.5671  0.7698  0.42962  1.0000
  C   C44       1.0  0.43394  0.28503  0.56968  1.0000
  C   C45       1.0  0.53763  0.79953  0.33461  1.0000
  C   C46       1.0  0.46298000000000006  0.31042  0.66512  1.0000
  C   C47       1.0  0.64006  0.86768  0.31231  1.0000
  C   C48       1.0  0.35976  0.36358  0.68786  1.0000
  H   H7        1.0  0.87472  0.9321399999999997  0.3877  1.0000
  H   H8        1.0  0.12449  0.404  0.61271  1.0000
  H   H9        1.0  0.66529  0.9033399999999998  0.26293  1.0000
  H   H10       1.0  0.33411  0.39264999999999994  0.73751  1.0000
  H   H11       1.0  0.48663  0.7801199999999998  0.30639  1.0000
  H   H12       1.0  0.51418  0.29559  0.69325  1.0000
  H   H13       1.0  0.6333  0.6785399999999998  0.60136  1.0000
  H   H14       1.0  0.36888  0.20224  0.39628  1.0000
  H   H15       1.0  0.96817  0.94471  0.52382  1.0000
  H   H16       1.0  0.031029999999999985  0.41741  0.47651  1.0000
  H   H17       1.0  0.016079999999999997  0.9417  0.69438  1.0000
  H   H18       1.0  0.98327  0.4231199999999999  0.30589  1.0000
  H   H19       1.0  0.83388  0.84919  0.73357  1.0000
  H   H20       1.0  0.1667  0.36209999999999987  0.26613  1.0000
  H   H21       1.0  0.76298  0.90807  0.31857  1.0000
  H   H22       1.0  0.23641  0.3868699999999999  0.6819  1.0000
  H   H23       1.0  0.53803  0.72975  0.47375  1.0000
  H   H24       1.0  0.4635  0.25267  0.52514  1.0000
  O   O11       1.0  0.03645  0.23307  0.13013  1.0000
  O   O12       1.0  0.96355  0.7330699999999998  0.86987  1.0000
  O   O13       1.0  0.91247  0.56057  0.00679  1.0000
  O   O14       1.0  0.08752999999999996  0.06056999999999999  0.99321  1.0000
  C   C49       1.0  0.8875400000000001  0.3917899999999999  0.00532  1.0000
  C   C50       1.0  0.11245000000000004  0.89175  0.99468  1.0000
  O   O15       1.0  0.03292  0.56294  0.13805  1.0000
  O   O16       1.0  0.96708  0.06294  0.86195  1.0000
  O   O17       1.0  0.08479  0.7305  0.00209  1.0000
  O   O18       1.0  0.91521  0.2305  0.99791  1.0000
  C   C51       1.0  0.04493  0.3943299999999999  0.17451  1.0000
  C   C52       1.0  0.9550500000000001  0.8945899999999998  0.82546  1.0000
  O   O19       1.0  0.01681999999999999  0.3961699999999999  0.95526  1.0000
  O   O20       1.0  0.98318  0.89617  0.04474  1.0000
  V   V3        1.0  0.99688  0.67209  0.0083  1.0000
  V   V4        1.0  0.003119999999999981  0.17209  0.9917  1.0000
  O   O21       1.0  0.7516599999999999  0.6342599999999999  0.68052  1.0000
  H   H25       1.0  0.7902900000000002  0.56641  0.67762  1.0000
  O   O22       1.0  0.25101  0.15234  0.31566  1.0000
  H   H26       1.0  0.21303000000000002  0.07956999999999997  0.31711  1.0000
  O   O23       1.0  0.19759  0.02361  0.9341  1.0000
  H   H27       1.0  0.16173  0.10962999999999999  0.90686  1.0000
  O   O24       1.0  0.80229  0.52375  0.06562  1.0000
  H   H28       1.0  0.8381  0.60985  0.09273  1.0000
