data_image0
_chemical_formula_structural       C51Cr6FH23O26
_chemical_formula_sum              "C51 Cr6 F1 H23 O26"
_cell_length_a       10.7639
_cell_length_b       10.79087
_cell_length_c       17.067950000000003
_cell_angle_alpha    100.22745
_cell_angle_beta     100.33972999999999
_cell_angle_gamma    60.399480000000004

_space_group_name_H-M_alt    "P 1"
_space_group_IT_number       1

loop_
  _space_group_symop_operation_xyz
  'x, y, z'

loop_
  _atom_site_type_symbol
  _atom_site_label
  _atom_site_symmetry_multiplicity
  _atom_site_fract_x
  _atom_site_fract_y
  _atom_site_fract_z
  _atom_site_occupancy
  C   C1        1.0  0.35114000000000006  0.78002  0.4019  1.0000
  C   C2        1.0  0.8310200000000002  0.32538  0.32573000000000013  1.0000
  C   C3        1.0  0.28846999999999995  0.9333300000000001  0.18036  1.0000
  C   C4        1.0  0.36593  0.34288  0.35869  1.0000
  C   C5        1.0  0.42592  0.86912  0.22373  1.0000
  C   C6        1.0  0.4333299999999999  0.8702800000000002  0.30717  1.0000
  C   C7        1.0  0.1830700000000001  0.9219699999999998  0.28832  1.0000
  C   C8        1.0  0.16800000000000004  0.9810299999999998  0.21919  1.0000
  C   C9        1.0  0.5552799999999999  0.79262  0.18794000000000005  1.0000
  C   C10       1.0  0.6862000000000001  0.74164  0.23541  1.0000
  C   C11       1.0  0.6909600000000001  0.77797  0.31804  1.0000
  C   C12       1.0  0.788  0.25107  0.18401  1.0000
  C   C13       1.0  0.5640699999999998  0.84527  0.35394  1.0000
  C   C14       1.0  0.31791  0.87011  0.33672  1.0000
  C   C15       1.0  0.29862  0.27787  0.79927  1.0000
  C   C16       1.0  0.7744500000000002  0.37475  0.40283  1.0000
  C   C17       1.0  0.4237600000000001  0.17654  0.76204  1.0000
  C   C18       1.0  0.47684999999999994  0.22442999999999996  0.71196  1.0000
  C   C19       1.0  0.2487  0.4466899999999999  0.70705  1.0000
  C   C20       1.0  0.21075  0.4118  0.77024  1.0000
  C   C21       1.0  0.5016400000000001  0.030510000000000002  0.77638  1.0000
  C   C22       1.0  0.6398600000000002  0.94261  0.75414  1.0000
  C   C23       1.0  0.78597  0.24073000000000003  0.26501  1.0000
  C   C24       1.0  0.7029799999999999  0.99906  0.71744  1.0000
  C   C25       1.0  0.6225600000000001  0.13874000000000003  0.6965700000000001  1.0000
  C   C26       1.0  0.38059000000000004  0.35309  0.6765600000000002  1.0000
  C   C27       1.0  0.8183400000000001  0.3425500000000001  0.7090400000000002  1.0000
  C   C28       1.0  0.38172000000000006  0.71506  0.63134  1.0000
  C   C29       1.0  0.8451000000000001  0.31355  0.77658  1.0000
  C   C30       1.0  0.35915000000000014  0.76426  0.71376  1.0000
  C   C31       1.0  0.32567000000000024  0.8108699999999999  0.78066  1.0000
  C   C32       1.0  0.89516  0.30955  0.08826  1.0000
  C   C33       1.0  0.2912600000000001  0.26093  0.1219  1.0000
  C   C34       1.0  0.9020899999999998  0.39172  0.30653  1.0000
  C   C35       1.0  0.26005000000000006  0.95558  0.09609000000000002  1.0000
  C   C36       1.0  0.8859500000000006  0.29737  0.85905  1.0000
  C   C37       1.0  0.27894000000000013  0.25342  0.87686  1.0000
  C   C38       1.0  0.28082000000000007  0.88077  0.8578100000000002  1.0000
  C   C39       1.0  0.4072200000000001  0.37496999999999997  0.60026  1.0000
  C   C40       1.0  0.77346  0.38095  0.6297600000000002  1.0000
  C   C41       1.0  0.3248900000000001  0.3161399999999999  0.27679  1.0000
  C   C42       1.0  0.30538000000000004  0.29146  0.20606000000000005  1.0000
  C   C43       1.0  0.85254  0.32743  0.16651  1.0000
  C   C44       1.0  0.07866000000000002  0.8659  0.28477  1.0000
  C   C45       1.0  0.9150200000000005  0.3901  0.22813  1.0000
  C   C46       1.0  0.14109999999999998  0.71508  0.23916  1.0000
  C   C47       1.0  0.02867000000000001  0.66694  0.21835  1.0000
  C   C48       1.0  0.7351  0.17668  0.12271  1.0000
  C   C49       1.0  0.69909  0.07903  0.1408  1.0000
  C   C50       1.0  0.69725  0.0669  0.21976  1.0000
  C   C51       1.0  0.74143  0.14455  0.28122  1.0000
  Cr  Cr1       1.0  0.6081  0.61086  0.52225  1.0000
  Cr  Cr2       1.0  0.2888900000000001  0.59999  0.48841999999999997  1.0000
  Cr  Cr3       1.0  0.6030400000000001  0.28919  0.48939000000000005  1.0000
  Cr  Cr4       1.0  0.05396  0.05225000000000001  0.96738  1.0000
  Cr  Cr5       1.0  0.05989000000000003  0.37316  0.99271  1.0000
  Cr  Cr6       1.0  0.3733700000000002  0.061689999999999995  0.99171  1.0000
  F   F1        1.0  0.81803  0.74091  0.36413  1.0000
  H   H1        1.0  0.94353  0.4496  0.35225  1.0000
  H   H2        1.0  0.7243099999999999  0.18999  0.06014  1.0000
  H   H3        1.0  0.9774100000000002  0.43624  0.21586  1.0000
  H   H4        1.0  0.67087  0.013520000000000006  0.09320000000000003  1.0000
  H   H5        1.0  0.66638  0.9932999999999998  0.23381  1.0000
  H   H6        1.0  0.7552700000000002  0.11222000000000003  0.33961000000000013  1.0000
  H   H7        1.0  0.55869  0.7626799999999999  0.12434  1.0000
  H   H8        1.0  0.06346000000000003  0.030450000000000005  0.18509  1.0000
  H   H9        1.0  0.001919999999999994  0.65064  0.27401  1.0000
  H   H10       1.0  0.9326  0.74755  0.18463  1.0000
  H   H11       1.0  0.07069  0.56511  0.17965000000000003  1.0000
  H   H12       1.0  0.7823100000000001  0.67669  0.20675000000000004  1.0000
  H   H13       1.0  0.17696000000000003  0.71579  0.18207  1.0000
  H   H14       1.0  0.23558000000000007  0.63589  0.27428  1.0000
  H   H15       1.0  0.044109999999999996  0.873  0.34346  1.0000
  H   H16       1.0  0.97833  0.9331  0.24919  1.0000
  H   H17       1.0  0.56994  0.87006  0.41832  1.0000
  H   H18       1.0  0.17522000000000001  0.54707  0.6823  1.0000
  H   H19       1.0  0.4569300000000001  0.98402  0.80549  1.0000
  H   H20       1.0  0.11325000000000009  0.4897099999999999  0.79655  1.0000
  H   H21       1.0  0.6992  0.8322  0.76751  1.0000
  H   H22       1.0  0.81275  0.93368  0.70316  1.0000
  H   H23       1.0  0.6751200000000002  0.17795999999999998  0.66773  1.0000
  O   O1        1.0  0.7498100000000002  0.49978999999999996  0.43804  1.0000
  O   O2        1.0  0.41173000000000004  0.18102  0.09153  1.0000
  O   O3        1.0  0.36501000000000006  0.9443599999999999  0.06332  1.0000
  O   O4        1.0  0.47766  0.72626  0.43929  1.0000
  O   O5        1.0  0.15937999999999994  0.90667  0.87621  1.0000
  O   O6        1.0  0.9308200000000001  0.17742  0.88673  1.0000
  O   O7        1.0  0.9103600000000001  0.39541999999999994  0.89572  1.0000
  O   O8        1.0  0.18601000000000004  0.36173  0.91987  1.0000
  O   O9        1.0  0.4  0.17301000000000005  0.9146300000000003  1.0000
  O   O10       1.0  0.35414000000000007  0.9369399999999999  0.89934  1.0000
  O   O11       1.0  0.16241  0.16237  0.98393  1.0000
  O   O12       1.0  0.29897  0.4688  0.55739  1.0000
  O   O13       1.0  0.26015  0.743  0.41227  1.0000
  O   O14       1.0  0.29774  0.46655  0.39472  1.0000
  O   O15       1.0  0.48808000000000007  0.2535  0.38643  1.0000
  O   O16       1.0  0.72267  0.3038  0.4219400000000001  1.0000
  O   O17       1.0  0.7511300000000003  0.5022200000000001  0.6135200000000002  1.0000
  O   O18       1.0  0.4788899999999999  0.7285100000000001  0.6019600000000003  1.0000
  O   O19       1.0  0.26147000000000004  0.74543  0.58775  1.0000
  O   O20       1.0  0.4894000000000001  0.25593  0.56191  1.0000
  O   O21       1.0  0.72389  0.30605  0.58461  1.0000
  O   O22       1.0  0.50001  0.50001  0.50002  1.0000
  O   O23       1.0  0.1711  0.91468  0.0531  1.0000
  O   O24       1.0  0.94168  0.18484  0.05071000000000001  1.0000
  O   O25       1.0  0.92208  0.40342  0.07261  1.0000
  O   O26       1.0  0.19687999999999997  0.36915  0.08385  1.0000
