data_image0
_chemical_formula_structural       C48Cl2Cr6H15IO26
_chemical_formula_sum              "C48 Cl2 Cr6 H15 I1 O26"
_cell_length_a       10.72091
_cell_length_b       10.71124
_cell_length_c       16.92015
_cell_angle_alpha    99.21893
_cell_angle_beta     99.21984000000002
_cell_angle_gamma    60.92838

_space_group_name_H-M_alt    "P 1"
_space_group_IT_number       1

loop_
  _space_group_symop_operation_xyz
  'x, y, z'

loop_
  _atom_site_type_symbol
  _atom_site_label
  _atom_site_symmetry_multiplicity
  _atom_site_fract_x
  _atom_site_fract_y
  _atom_site_fract_z
  _atom_site_occupancy
  C   C1        1.0  0.3825799999999999  0.7127  0.38772  1.0000
  C   C2        1.0  0.88605  0.31663  0.34625  1.0000
  C   C3        1.0  0.36467  0.78899  0.1468  1.0000
  C   C4        1.0  0.40685999999999994  0.37443000000000004  0.35622  1.0000
  C   C5        1.0  0.47625  0.79644  0.2007  1.0000
  C   C6        1.0  0.47813000000000005  0.78766  0.28344  1.0000
  C   C7        1.0  0.29874000000000006  0.70321  0.24706  1.0000
  C   C8        1.0  0.28827  0.72723  0.16820000000000002  1.0000
  C   C9        1.0  0.58001  0.82159  0.17453  1.0000
  C   C10       1.0  0.66322  0.86789  0.22886  1.0000
  C   C11       1.0  0.6581299999999999  0.8731  0.31039  1.0000
  C   C12       1.0  0.9387500000000001  0.16906  0.21948  1.0000
  C   C13       1.0  0.57102  0.82944  0.33767  1.0000
  C   C14       1.0  0.3837800000000001  0.74203  0.30637  1.0000
  C   C15       1.0  0.28353  0.25975  0.79264  1.0000
  C   C16       1.0  0.7870000000000001  0.37206  0.40882  1.0000
  C   C17       1.0  0.3855700000000001  0.14469  0.74326  1.0000
  C   C18       1.0  0.37843  0.16395  0.6618  1.0000
  C   C19       1.0  0.19794999999999996  0.41243  0.6838  1.0000
  C   C20       1.0  0.18419999999999997  0.38817  0.75921  1.0000
  C   C21       1.0  0.49718  0.012780000000000005  0.77065  1.0000
  C   C22       1.0  0.59634  0.90958  0.71947  1.0000
  C   C23       1.0  0.92597  0.18212000000000003  0.30328  1.0000
  C   C24       1.0  0.5765399999999998  0.9254000000000001  0.63793  1.0000
  C   C25       1.0  0.45875  0.04547  0.60817  1.0000
  C   C26       1.0  0.30323  0.30396  0.63774  1.0000
  C   C27       1.0  0.8474600000000002  0.32795000000000013  0.7049900000000001  1.0000
  C   C28       1.0  0.35739  0.77023  0.62705  1.0000
  C   C29       1.0  0.89457  0.2933  0.77183  1.0000
  C   C30       1.0  0.3385  0.81003  0.70923  1.0000
  C   C31       1.0  0.3136300000000002  0.8371799999999999  0.77775  1.0000
  C   C32       1.0  0.9615700000000001  0.28066  0.1005  1.0000
  C   C33       1.0  0.32238  0.30297  0.11874  1.0000
  C   C34       1.0  0.91526  0.41417  0.31853  1.0000
  C   C35       1.0  0.30047999999999997  0.8802600000000002  0.08039  1.0000
  C   C36       1.0  0.9439799999999995  0.27344  0.85445  1.0000
  C   C37       1.0  0.27721999999999997  0.24879000000000004  0.87747  1.0000
  C   C38       1.0  0.2798  0.88368  0.85769  1.0000
  C   C39       1.0  0.36355000000000004  0.34324  0.57973  1.0000
  C   C40       1.0  0.77828  0.37799  0.62871  1.0000
  C   C41       1.0  0.37667  0.36149  0.27161  1.0000
  C   C42       1.0  0.35124000000000005  0.34325  0.2006  1.0000
  C   C43       1.0  0.94428  0.28316000000000013  0.18647  1.0000
  C   C44       1.0  0.9469299999999999  0.39759  0.24078  1.0000
  C   C45       1.0  0.94514  0.04247  0.17453  1.0000
  C   C46       1.0  0.95934  0.9293900000000002  0.21194  1.0000
  C   C47       1.0  0.96793  0.93651  0.29488  1.0000
  C   C48       1.0  0.9527  0.06135  0.34125  1.0000
  Cl  Cl1       1.0  0.40351  0.041320000000000016  0.5043  1.0000
  Cl  Cl2       1.0  0.99201  0.05251  0.44634  1.0000
  Cr  Cr1       1.0  0.6081000000000002  0.61086  0.52225  1.0000
  Cr  Cr2       1.0  0.28889  0.59999  0.48842  1.0000
  Cr  Cr3       1.0  0.60304  0.28919  0.48939  1.0000
  Cr  Cr4       1.0  0.053959999999999966  0.052250000000000026  0.96738  1.0000
  Cr  Cr5       1.0  0.05989000000000001  0.37316  0.99271  1.0000
  Cr  Cr6       1.0  0.37337  0.06169  0.99171  1.0000
  H   H1        1.0  0.9021699999999998  0.51133  0.35567  1.0000
  H   H2        1.0  0.93788  0.02333  0.11059  1.0000
  H   H3        1.0  0.9678100000000001  0.83342  0.17566  1.0000
  H   H4        1.0  0.9874700000000001  0.8441300000000003  0.32321  1.0000
  H   H5        1.0  0.23345999999999995  0.66074  0.26251  1.0000
  H   H6        1.0  0.5971899999999999  0.8070400000000001  0.11174  1.0000
  H   H7        1.0  0.21016000000000004  0.70984  0.12543  1.0000
  H   H8        1.0  0.7327900000000002  0.8979000000000001  0.20712  1.0000
  H   H9        1.0  0.7246199999999999  0.9079500000000001  0.35289  1.0000
  H   H10       1.0  0.5794799999999999  0.8354100000000002  0.4016300000000001  1.0000
  H   H11       1.0  0.13402999999999995  0.51936  0.66449  1.0000
  H   H12       1.0  0.5144300000000002  0.98372  0.83058  1.0000
  H   H13       1.0  0.10333999999999999  0.47553  0.79403  1.0000
  H   H14       1.0  0.68319  0.81224  0.74223  1.0000
  H   H15       1.0  0.6461399999999999  0.83932  0.59728  1.0000
  I   I1        1.0  0.9866099999999999  0.56315  0.21685  1.0000
  O   O1        1.0  0.7498099999999999  0.4997900000000001  0.43804  1.0000
  O   O2        1.0  0.41173000000000004  0.18102  0.09153  1.0000
  O   O3        1.0  0.36501000000000006  0.94436  0.06332  1.0000
  O   O4        1.0  0.4776599999999999  0.72626  0.43929  1.0000
  O   O5        1.0  0.15937999999999994  0.9066700000000001  0.87621  1.0000
  O   O6        1.0  0.93082  0.17742000000000002  0.88673  1.0000
  O   O7        1.0  0.91036  0.39542  0.89572  1.0000
  O   O8        1.0  0.18601000000000006  0.36173  0.91987  1.0000
  O   O9        1.0  0.4000000000000001  0.17301000000000002  0.91463  1.0000
  O   O10       1.0  0.35414  0.93694  0.89934  1.0000
  O   O11       1.0  0.16241  0.16237000000000001  0.9839300000000001  1.0000
  O   O12       1.0  0.29897  0.4688  0.55739  1.0000
  O   O13       1.0  0.2601499999999999  0.7430000000000001  0.41227  1.0000
  O   O14       1.0  0.29774  0.4665500000000001  0.39472  1.0000
  O   O15       1.0  0.48808000000000007  0.2535  0.38643  1.0000
  O   O16       1.0  0.7226700000000001  0.3038  0.42194  1.0000
  O   O17       1.0  0.7511300000000002  0.5022200000000001  0.6135200000000001  1.0000
  O   O18       1.0  0.4788899999999998  0.7285100000000002  0.60196  1.0000
  O   O19       1.0  0.26147000000000004  0.74543  0.58775  1.0000
  O   O20       1.0  0.48940000000000006  0.25593  0.56191  1.0000
  O   O21       1.0  0.72389  0.30605  0.58461  1.0000
  O   O22       1.0  0.50001  0.5000100000000001  0.50002  1.0000
  O   O23       1.0  0.17109999999999997  0.91468  0.0531  1.0000
  O   O24       1.0  0.94168  0.18484  0.05071  1.0000
  O   O25       1.0  0.9220799999999999  0.40342000000000006  0.07261  1.0000
  O   O26       1.0  0.19687999999999997  0.36915000000000003  0.08385  1.0000
