data_image0
_chemical_formula_structural       O3CO2CO2VOCOCVOCH2C13H5C8H2C2H2C6H4CH3C13H5O3CO2CO2VOCOCVONH2F4
_chemical_formula_sum              "O20 C52 V4 H25 N1 F4"
_cell_length_a       6.94604
_cell_length_b       13.490059999999998
_cell_length_c       20.128250000000005
_cell_angle_alpha    104.04176000000001
_cell_angle_beta     89.83771
_cell_angle_gamma    90.64388

_symmetry_space_group_name_H-M    'P 1'
_symmetry_Int_Tables_number       1

loop_
  _symmetry_equiv_pos_as_xyz
  'x,y,z'

loop_
  _atom_site_type_symbol
  _atom_site_label
  _atom_site_symmetry_multiplicity
  _atom_site_fract_x
  _atom_site_fract_y
  _atom_site_fract_z
  _atom_site_occupancy
  O   O1        1.0  0.50678  0.60006  0.4499499999999999  1.0000
  O   O2        1.0  0.17984000000000006  0.59711  0.58941  1.0000
  O   O3        1.0  0.00457  0.39994  0.55005  1.0000
  C   C1        1.0  0.3481900000000001  0.6190200000000002  0.6169299999999999  1.0000
  O   O4        1.0  0.17738000000000007  0.61216  0.45289  1.0000
  O   O5        1.0  0.0020999999999999986  0.41509999999999997  0.4125599999999999  1.0000
  C   C2        1.0  0.3469300000000001  0.63899  0.4363699999999999  1.0000
  O   O6        1.0  0.5092500000000002  0.5849000000000002  0.58744  1.0000
  O   O7        1.0  0.3375700000000001  0.43533  0.48693  1.0000
  V   V1        1.0  0.06465000000000001  0.512  0.50243  1.0000
  O   O8        1.0  0.67209  0.40289  0.41059  1.0000
  C   C3        1.0  0.84056  0.38168  0.3830799999999999  1.0000
  O   O9        1.0  0.67454  0.38784000000000013  0.54711  1.0000
  C   C4        1.0  0.8425100000000001  0.36075  0.5634899999999999  1.0000
  V   V2        1.0  0.5640400000000001  0.4880000000000001  0.49757  1.0000
  O   O10       1.0  0.8409900000000001  0.56467  0.51307  1.0000
  C   C5        1.0  0.8354300000000002  0.10460000000000005  0.60749  1.0000
  H   H1        1.0  0.8342900000000002  0.97912  0.6904  1.0000
  H   H2        1.0  0.8269100000000003  0.02412999999999996  0.5817899999999999  1.0000
  C   C6        1.0  0.8478100000000001  0.28170999999999996  0.6020599999999998  1.0000
  C   C7        1.0  0.8736600000000003  0.31904  0.9319  1.0000
  C   C8        1.0  0.87452  0.39559999999999995  0.89659  1.0000
  C   C9        1.0  0.8677100000000002  0.371  0.8252799999999999  1.0000
  C   C10       1.0  0.8595800000000002  0.26782  0.7870599999999999  1.0000
  C   C11       1.0  0.8569500000000002  0.18964999999999999  0.82376  1.0000
  C   C12       1.0  0.8540200000000002  0.23962999999999998  0.7138399999999999  1.0000
  C   C13       1.0  0.8439300000000002  0.13447000000000006  0.67928  1.0000
  C   C14       1.0  0.8415400000000002  0.05947999999999993  0.7164499999999998  1.0000
  C   C15       1.0  0.84832  0.08640000000000002  0.78745  1.0000
  C   C16       1.0  0.85754  0.31209  0.67355  1.0000
  C   C17       1.0  0.8354700000000003  0.17769000000000004  0.56849  1.0000
  C   C18       1.0  0.86441  0.2164399999999999  0.8962999999999999  1.0000
  H   H3        1.0  0.8657200000000002  0.3931200000000001  0.6959199999999999  1.0000
  H   H4        1.0  0.88062  0.33985  0.98736  1.0000
  H   H5        1.0  0.8690400000000003  0.43479000000000007  0.8018899999999998  1.0000
  H   H6        1.0  0.8813000000000002  0.47491000000000005  0.9247299999999999  1.0000
  H   H7        1.0  0.8463500000000002  0.02516  0.81367  1.0000
  C   C19       1.0  0.67934  0.21890000000000007  0.2297  1.0000
  C   C20       1.0  0.7811700000000003  0.20032  0.29322  1.0000
  C   C21       1.0  0.8491300000000002  0.3125300000000001  0.31254  1.0000
  C   C22       1.0  0.74576  0.33223  0.24884999999999996  1.0000
  C   C23       1.0  0.93266  0.30189  0.20576999999999998  1.0000
  C   C24       1.0  0.03326  0.28252  0.26994  1.0000
  C   C25       1.0  0.9651800000000003  0.1704  0.25077  1.0000
  C   C26       1.0  0.8635100000000002  0.18888000000000005  0.18706  1.0000
  H   H8        1.0  0.6533200000000001  0.3986  0.24820999999999996  1.0000
  H   H9        1.0  0.9970400000000003  0.34368  0.16980999999999996  1.0000
  C   C27       1.0  0.4548700000000001  0.7945600000000002  0.7068999999999999  1.0000
  C   C28       1.0  0.27476  0.8397600000000001  0.7486599999999998  1.0000
  H   H10       1.0  0.20671  0.91364  0.7480999999999998  1.0000
  H   H11       1.0  0.5363800000000001  0.83049  0.6712  1.0000
  C   C29       1.0  0.35872  0.81154  0.81222  1.0000
  C   C30       1.0  0.5392400000000003  0.76719  0.7712699999999999  1.0000
  C   C31       1.0  0.43826  0.66117  0.7511199999999999  1.0000
  C   C32       1.0  0.25813  0.70634  0.79284  1.0000
  C   C33       1.0  0.17376  0.7337400000000001  0.7284799999999999  1.0000
  C   C34       1.0  0.35427999999999993  0.6893  0.6875399999999999  1.0000
  H   H12       1.0  0.69051  0.78121  0.78909  1.0000
  H   H13       1.0  0.5063  0.5872999999999999  0.7517099999999998  1.0000
  H   H14       1.0  0.17663  0.6704499999999999  0.8285599999999997  1.0000
  H   H15       1.0  0.022470000000000007  0.7199  0.71066  1.0000
  C   C35       1.0  0.40142  0.89186  0.3914799999999999  1.0000
  H   H16       1.0  0.3977700000000001  0.84242  0.48506  1.0000
  H   H17       1.0  0.4238300000000001  0.017060000000000006  0.30878  1.0000
  H   H18       1.0  0.42319  0.9713  0.4179999999999999  1.0000
  C   C36       1.0  0.35866  0.71625  0.3967799999999999  1.0000
  C   C37       1.0  0.3267100000000001  0.68117  0.06733999999999998  1.0000
  C   C38       1.0  0.3113500000000001  0.6047100000000002  0.10254  1.0000
  C   C39       1.0  0.3227700000000001  0.62852  0.17378  1.0000
  C   C40       1.0  0.3503100000000001  0.73075  0.212  1.0000
  C   C41       1.0  0.36707  0.8087300000000003  0.17543  1.0000
  C   C42       1.0  0.3613200000000001  0.75827  0.28512  1.0000
  C   C43       1.0  0.38906  0.86268  0.31973  1.0000
  C   C44       1.0  0.40460000000000007  0.9373700000000001  0.28267  1.0000
  C   C45       1.0  0.39446  0.91104  0.21174  1.0000
  C   C46       1.0  0.34582  0.6859800000000003  0.32537999999999995  1.0000
  C   C47       1.0  0.38685  0.8189200000000001  0.4297499999999999  1.0000
  C   C48       1.0  0.3547100000000001  0.78281  0.10301999999999999  1.0000
  H   H19       1.0  0.3248900000000001  0.6055  0.30315  1.0000
  H   H20       1.0  0.3164300000000001  0.66107  0.01196  1.0000
  H   H21       1.0  0.3091200000000001  0.56496  0.19713999999999998  1.0000
  H   H22       1.0  0.2897800000000001  0.52614  0.07437  1.0000
  H   H23       1.0  0.40763000000000005  0.9720600000000001  0.18558  1.0000
  O   O11       1.0  0.20358  0.9149200000000002  0.9126099999999999  1.0000
  O   O12       1.0  0.5357100000000002  0.88781  0.04712  1.0000
  O   O13       1.0  0.7107300000000001  0.08494999999999998  0.08742999999999998  1.0000
  C   C49       1.0  0.3662300000000001  0.86084  0.06361  1.0000
  O   O14       1.0  0.5330100000000001  0.9028500000000002  0.9105999999999997  1.0000
  O   O15       1.0  0.7080100000000001  0.10009000000000005  0.94993  1.0000
  C   C50       1.0  0.3647200000000001  0.88131  0.8829799999999999  1.0000
  O   O16       1.0  0.20630000000000007  0.89978  0.0501  1.0000
  O   O17       1.0  0.37517000000000006  0.06458  0.0131  1.0000
  V   V3        1.0  0.6482000000000002  0.9880199999999999  0.9975699999999998  1.0000
  O   O18       1.0  0.03803  0.11233000000000003  0.9528399999999999  1.0000
  C   C51       1.0  0.8700500000000002  0.13866000000000006  0.93595  1.0000
  O   O19       1.0  0.04073000000000001  0.09730000000000001  0.08935999999999997  1.0000
  C   C52       1.0  0.87223  0.11871000000000004  0.11682  1.0000
  V   V4        1.0  0.14878  0.012220000000000002  0.00236  1.0000
  O   O20       1.0  0.87193  0.9354300000000002  0.9868999999999999  1.0000
  N   N1        1.0  0.8242200000000001  0.14706999999999998  0.49503  1.0000
  H   H24       1.0  0.69017  0.16974  0.4808  1.0000
  H   H25       1.0  0.8272200000000002  0.06743000000000002  0.47805999999999993  1.0000
  F   F1        1.0  0.49535  0.1851  0.20911  1.0000
  F   F2        1.0  0.21754  0.31513  0.2909999999999999  1.0000
  F   F3        1.0  0.07831  0.08738  0.25218  1.0000
  F   F4        1.0  0.70375  0.14795  0.33822  1.0000
