data_image0
_chemical_formula_structural       O8C4O8C4O8C4O8C4O8C4O8C4Cr12O4C8H4C8H4C40H16C20H8C40H16NO2NO2NO2NO2H20
_chemical_formula_sum              "O60 C140 Cr12 H68 N4"
_cell_length_a       19.11928
_cell_length_b       11.00561
_cell_length_c       18.590459999999997
_cell_angle_alpha    90.04667
_cell_angle_beta     90.4951
_cell_angle_gamma    89.84017999999999

_symmetry_space_group_name_H-M    'P 1'
_symmetry_Int_Tables_number       1

loop_
  _symmetry_equiv_pos_as_xyz
  'x,y,z'

loop_
  _atom_site_type_symbol
  _atom_site_label
  _atom_site_symmetry_multiplicity
  _atom_site_fract_x
  _atom_site_fract_y
  _atom_site_fract_z
  _atom_site_occupancy
  O   O1        1.0  0.78819  0.043  0.17252  1.0000
  O   O2        1.0  0.21181  0.043  0.82748  1.0000
  O   O3        1.0  0.28818999999999995  0.543  0.17252  1.0000
  O   O4        1.0  0.71181  0.543  0.82748  1.0000
  O   O5        1.0  0.76624  0.2923  0.17686  1.0000
  O   O6        1.0  0.23376  0.2923  0.82314  1.0000
  O   O7        1.0  0.26624  0.7922999999999999  0.17686  1.0000
  O   O8        1.0  0.73376  0.7922999999999999  0.82314  1.0000
  C   C1        1.0  0.73042  0.37558  0.146  1.0000
  C   C2        1.0  0.2712699999999999  0.3714299999999999  0.85594  1.0000
  C   C3        1.0  0.21463  0.8338600000000002  0.1386  1.0000
  C   C4        1.0  0.77068  0.87345  0.85506  1.0000
  O   O9        1.0  0.67031  0.40916  0.16872  1.0000
  O   O10       1.0  0.32969  0.40916  0.83128  1.0000
  O   O11       1.0  0.17030999999999996  0.90916  0.16872  1.0000
  O   O12       1.0  0.8296899999999998  0.90916  0.83128  1.0000
  O   O13       1.0  0.55616  0.2519  0.17338  1.0000
  O   O14       1.0  0.44384  0.2519  0.82662  1.0000
  O   O15       1.0  0.05616  0.7519000000000001  0.17338  1.0000
  O   O16       1.0  0.94384  0.7519000000000001  0.82662  1.0000
  C   C5        1.0  0.53167  0.15573  0.145  1.0000
  C   C6        1.0  0.4673799999999999  0.1554  0.85564  1.0000
  C   C7        1.0  0.03141  0.65581  0.14514  1.0000
  C   C8        1.0  0.96687  0.6552  0.85589  1.0000
  O   O17       1.0  0.54541  0.05014  0.16824  1.0000
  O   O18       1.0  0.45459  0.05014  0.83176  1.0000
  O   O19       1.0  0.04540999999999999  0.55014  0.16824  1.0000
  O   O20       1.0  0.9545899999999999  0.55014  0.83176  1.0000
  O   O21       1.0  0.68153  0.95835  0.17697  1.0000
  O   O22       1.0  0.31847  0.95835  0.82303  1.0000
  O   O23       1.0  0.18153  0.45835  0.17697  1.0000
  O   O24       1.0  0.8184699999999998  0.45835  0.82303  1.0000
  C   C9        1.0  0.7430199999999998  0.96505  0.15077  1.0000
  C   C10       1.0  0.25634  0.96431  0.84849  1.0000
  C   C11       1.0  0.24334999999999998  0.46413  0.15128  1.0000
  C   C12       1.0  0.75714  0.46649  0.84991  1.0000
  O   O25       1.0  0.78861  0.04448  0.33445  1.0000
  O   O26       1.0  0.21138999999999997  0.04448  0.66555  1.0000
  O   O27       1.0  0.28861  0.54448  0.33445  1.0000
  O   O28       1.0  0.7113899999999999  0.54448  0.66555  1.0000
  O   O29       1.0  0.76663  0.29367  0.32697  1.0000
  O   O30       1.0  0.23336999999999997  0.29367  0.67303  1.0000
  O   O31       1.0  0.26663  0.79367  0.32697  1.0000
  O   O32       1.0  0.73337  0.79367  0.67303  1.0000
  C   C13       1.0  0.7146099999999999  0.33949  0.36289  1.0000
  C   C14       1.0  0.29024  0.33067  0.63771  1.0000
  C   C15       1.0  0.20977  0.8305700000000001  0.36232  1.0000
  C   C16       1.0  0.78514  0.84014  0.63713  1.0000
  O   O33       1.0  0.67073  0.41064  0.33064  1.0000
  O   O34       1.0  0.32927  0.41064  0.66936  1.0000
  O   O35       1.0  0.17073  0.9106399999999999  0.33064  1.0000
  O   O36       1.0  0.82927  0.9106399999999999  0.66936  1.0000
  O   O37       1.0  0.55655  0.25326  0.32348  1.0000
  O   O38       1.0  0.44345  0.25326  0.67652  1.0000
  O   O39       1.0  0.05655  0.75326  0.32348  1.0000
  O   O40       1.0  0.94345  0.75326  0.67652  1.0000
  C   C17       1.0  0.52966  0.15868  0.3507  1.0000
  C   C18       1.0  0.43621999999999994  0.15221  0.63884  1.0000
  C   C19       1.0  0.06381  0.65212  0.36114  1.0000
  C   C20       1.0  0.9703599999999999  0.65844  0.64932  1.0000
  O   O41       1.0  0.54583  0.05161  0.33016  1.0000
  O   O42       1.0  0.45417  0.05161  0.66984  1.0000
  O   O43       1.0  0.045829999999999996  0.55161  0.33016  1.0000
  O   O44       1.0  0.9541699999999999  0.55161  0.66984  1.0000
  O   O45       1.0  0.68192  0.95972  0.32707  1.0000
  O   O46       1.0  0.3180799999999999  0.95972  0.67293  1.0000
  O   O47       1.0  0.18191999999999997  0.45972  0.32707  1.0000
  O   O48       1.0  0.8180799999999999  0.45972  0.67293  1.0000
  C   C21       1.0  0.74383  0.96164  0.35185  1.0000
  C   C22       1.0  0.25292  0.9584699999999999  0.65038  1.0000
  C   C23       1.0  0.24712999999999996  0.45864  0.34969  1.0000
  C   C24       1.0  0.75626  0.46158  0.64811  1.0000
  Cr  Cr1       1.0  0.7728200000000001  0.16982  0.25264  1.0000
  Cr  Cr2       1.0  0.22717999999999997  0.16982  0.74736  1.0000
  Cr  Cr3       1.0  0.27282  0.66982  0.25264  1.0000
  Cr  Cr4       1.0  0.7271799999999998  0.66982  0.74736  1.0000
  Cr  Cr5       1.0  0.61504  0.32361  0.24915  1.0000
  Cr  Cr6       1.0  0.38496  0.32361  0.75085  1.0000
  Cr  Cr7       1.0  0.11503999999999999  0.82361  0.24915  1.0000
  Cr  Cr8       1.0  0.8849599999999997  0.82361  0.75085  1.0000
  Cr  Cr9       1.0  0.6167199999999999  0.01113  0.25066  1.0000
  Cr  Cr10      1.0  0.38328  0.01113  0.74934  1.0000
  Cr  Cr11      1.0  0.11672  0.51113  0.25066  1.0000
  Cr  Cr12      1.0  0.88328  0.51113  0.74934  1.0000
  O   O49       1.0  0.6681899999999997  0.16819  0.25082  1.0000
  O   O50       1.0  0.33181  0.16819  0.74918  1.0000
  O   O51       1.0  0.16818999999999998  0.66819  0.25082  1.0000
  O   O52       1.0  0.83181  0.66819  0.74918  1.0000
  C   C25       1.0  0.53975  0.24766  0.96887  1.0000
  C   C26       1.0  0.48411  0.27379  0.027120000000000002  1.0000
  C   C27       1.0  0.03289  0.7541900000000001  0.9695100000000001  1.0000
  C   C28       1.0  0.9767399999999999  0.76975  0.02841  1.0000
  C   C29       1.0  0.56665  0.1375  0.01275  1.0000
  C   C30       1.0  0.43196999999999997  0.1884  0.9879799999999999  1.0000
  C   C31       1.0  0.06648  0.64834  0.01231  1.0000
  C   C32       1.0  0.92926  0.67706  0.9890100000000001  1.0000
  H   H1        1.0  0.62239  0.11593  0.02453  1.0000
  H   H2        1.0  0.37604  0.20636  0.9757399999999999  1.0000
  H   H3        1.0  0.12326  0.6363  0.02346  1.0000
  H   H4        1.0  0.8724999999999999  0.68801  0.97745  1.0000
  C   C33       1.0  0.5103999999999999  0.16334  0.06971  1.0000
  C   C34       1.0  0.4881599999999999  0.16244  0.9311899999999999  1.0000
  C   C35       1.0  0.00962  0.6635  0.06992  1.0000
  C   C36       1.0  0.98624  0.6615  0.9317199999999999  1.0000
  C   C37       1.0  0.45887  0.07839  0.03169  1.0000
  C   C38       1.0  0.51451  0.05266  0.9740799999999998  1.0000
  C   C39       1.0  0.9627  0.57117  0.0317  1.0000
  C   C40       1.0  0.019089999999999996  0.55571  0.9735099999999999  1.0000
  H   H5        1.0  0.42556  0.00981  0.05852  1.0000
  H   H6        1.0  0.5259  0.96325  0.94978  1.0000
  H   H7        1.0  0.9339599999999999  0.49804  0.05942  1.0000
  H   H8        1.0  0.0361  0.46866  0.94927  1.0000
  C   C41       1.0  0.7570699999999999  0.89795  0.9312399999999998  1.0000
  C   C42       1.0  0.22852999999999998  0.8522000000000001  0.06165  1.0000
  C   C43       1.0  0.25859  0.39149  0.93306  1.0000
  C   C44       1.0  0.74746  0.40653  0.07157  1.0000
  C   C45       1.0  0.69836  0.85049  0.96832  1.0000
  C   C46       1.0  0.28746  0.80414  0.02295  1.0000
  C   C47       1.0  0.20068  0.34129  0.9707400000000002  1.0000
  C   C48       1.0  0.80159  0.34724  0.03243  1.0000
  C   C49       1.0  0.70093  0.8448  0.04444  1.0000
  C   C50       1.0  0.28852  0.8188299999999998  0.94708  1.0000
  C   C51       1.0  0.20372  0.33674  0.04696  1.0000
  C   C52       1.0  0.79689  0.34395  0.95632  1.0000
  C   C53       1.0  0.8139  0.9446200000000001  0.04446  1.0000
  C   C54       1.0  0.18138999999999997  0.93671  0.95208  1.0000
  C   C55       1.0  0.31614999999999993  0.43616  0.04652  1.0000
  C   C56       1.0  0.69274  0.47061  0.9609099999999999  1.0000
  C   C57       1.0  0.81465  0.94112  0.97101  1.0000
  C   C58       1.0  0.17496  0.9114399999999999  0.02373  1.0000
  C   C59       1.0  0.3167400000000001  0.43252  0.97285  1.0000
  C   C60       1.0  0.69466  0.4687299999999999  0.0342  1.0000
  C   C61       1.0  0.63763  0.80742  0.9327600000000001  1.0000
  C   C62       1.0  0.34584  0.7439099999999998  0.055  1.0000
  C   C63       1.0  0.14078  0.29276  0.9361100000000001  1.0000
  C   C64       1.0  0.85984  0.29047  0.06591  1.0000
  C   C65       1.0  0.09219  0.22513000000000002  0.9745199999999999  1.0000
  C   C66       1.0  0.90669  0.22125  0.02607  1.0000
  C   C67       1.0  0.58582  0.7465899999999999  0.9705599999999999  1.0000
  C   C68       1.0  0.39826999999999996  0.69225  0.01314  1.0000
  C   C69       1.0  0.59199  0.73096  0.04443  1.0000
  C   C70       1.0  0.39353  0.69495  0.93881  1.0000
  C   C71       1.0  0.1004  0.20874000000000004  0.04822  1.0000
  C   C72       1.0  0.8977  0.20884  0.95224  1.0000
  C   C73       1.0  0.64905  0.77907  0.08122  1.0000
  C   C74       1.0  0.33868999999999994  0.7560699999999999  0.9058700000000001  1.0000
  C   C75       1.0  0.15471  0.26626  0.08463  1.0000
  C   C76       1.0  0.8433199999999998  0.26929  0.91745  1.0000
  C   C77       1.0  0.75524  0.90612  0.08161  1.0000
  C   C78       1.0  0.23998  0.89805  0.91426  1.0000
  C   C79       1.0  0.25689  0.4011  0.08352  1.0000
  C   C80       1.0  0.74565  0.41556  0.9211799999999999  1.0000
  H   H9        1.0  0.8624399999999999  0.97014  0.94571  1.0000
  H   H10       1.0  0.1278  0.9427400000000001  0.04991  1.0000
  H   H11       1.0  0.36495999999999995  0.45881  0.94741  1.0000
  H   H12       1.0  0.65166  0.51215  0.06154  1.0000
  H   H13       1.0  0.04891  0.18324000000000001  0.9465  1.0000
  H   H14       1.0  0.94916  0.17487  0.05301  1.0000
  H   H15       1.0  0.5410399999999999  0.711  0.94206  1.0000
  H   H16       1.0  0.44085  0.6437  0.0387  1.0000
  H   H17       1.0  0.65327  0.76083  0.13826  1.0000
  H   H18       1.0  0.33525  0.7517500000000001  0.84782  1.0000
  H   H19       1.0  0.15986  0.25096  0.14194  1.0000
  H   H20       1.0  0.8368200000000001  0.25424  0.86027  1.0000
  H   H21       1.0  0.5351799999999999  0.34227  0.44562  1.0000
  H   H22       1.0  0.49571999999999994  0.33506  0.56897  1.0000
  H   H23       1.0  0.005020000000000001  0.83576  0.43161000000000005  1.0000
  H   H24       1.0  0.96527  0.84268  0.55489  1.0000
  C   C81       1.0  0.45214  0.1562  0.56122  1.0000
  C   C82       1.0  0.48788  0.17209  0.41544  1.0000
  C   C83       1.0  0.012159999999999999  0.67149  0.58459  1.0000
  C   C84       1.0  0.04809  0.65611  0.43881999999999993  1.0000
  C   C85       1.0  0.43557  0.059559999999999995  0.51286  1.0000
  C   C86       1.0  0.44624  0.07576  0.43828  1.0000
  C   C87       1.0  0.05369  0.57471  0.56151  1.0000
  C   C88       1.0  0.06446  0.55889  0.48690000000000005  1.0000
  C   C89       1.0  0.50406  0.26625  0.46286  1.0000
  C   C90       1.0  0.48372999999999994  0.26025  0.53398  1.0000
  C   C91       1.0  0.01678  0.76052  0.46637  1.0000
  C   C92       1.0  0.9962799999999999  0.76628  0.53747  1.0000
  C   C93       1.0  0.4127899999999999  0.94458  0.5353  1.0000
  C   C94       1.0  0.42167  0.9882599999999999  0.38866  1.0000
  C   C95       1.0  0.07814  0.48662  0.6109  1.0000
  C   C96       1.0  0.08726  0.44379  0.46414  1.0000
  C   C97       1.0  0.09869999999999997  0.37376  0.58667  1.0000
  C   C98       1.0  0.10067  0.35243  0.51359  1.0000
  C   C99       1.0  0.39948  0.85356  0.48557000000000006  1.0000
  C   C100      1.0  0.4013  0.87537  0.41256  1.0000
  H   H25       1.0  0.40861999999999987  0.9186799999999999  0.59036  1.0000
  H   H26       1.0  0.42246  0.00408  0.33118  1.0000
  H   H27       1.0  0.07730999999999998  0.50209  0.66842  1.0000
  H   H28       1.0  0.09151999999999999  0.41801  0.40905  1.0000
  H   H29       1.0  0.11108999999999998  0.30187  0.62427  1.0000
  H   H30       1.0  0.1159  0.26566  0.49463000000000007  1.0000
  H   H31       1.0  0.3845899999999999  0.76662  0.50419  1.0000
  H   H32       1.0  0.38902  0.80376  0.37474  1.0000
  C   C101      1.0  0.77255  0.8640200000000001  0.56084  1.0000
  C   C102      1.0  0.20955  0.8411  0.44273000000000007  1.0000
  C   C103      1.0  0.29066  0.34105  0.5573  1.0000
  C   C104      1.0  0.72716  0.3633  0.43918  1.0000
  C   C105      1.0  0.82415  0.91816  0.51788  1.0000
  C   C106      1.0  0.16061  0.91643  0.48116999999999993  1.0000
  C   C107      1.0  0.33953  0.41620000000000007  0.51899  1.0000
  C   C108      1.0  0.6755299999999997  0.41756  0.48230000000000006  1.0000
  C   C109      1.0  0.82452  0.89057  0.44455000000000006  1.0000
  C   C110      1.0  0.16283  0.91418  0.55695  1.0000
  C   C111      1.0  0.33728  0.41429999999999995  0.4432  1.0000
  C   C112      1.0  0.67554  0.39026  0.55565  1.0000
  C   C113      1.0  0.70243  0.8330300000000002  0.45363000000000003  1.0000
  C   C114      1.0  0.26196  0.7847900000000001  0.55892  1.0000
  C   C115      1.0  0.23868999999999999  0.28466  0.44095  1.0000
  C   C116      1.0  0.7979099999999999  0.33329  0.54609  1.0000
  C   C117      1.0  0.7127499999999999  0.8162400000000001  0.52718  1.0000
  C   C118      1.0  0.25134  0.76177  0.48464  1.0000
  C   C119      1.0  0.24920999999999996  0.26174  0.51524  1.0000
  C   C120      1.0  0.7873199999999999  0.31596  0.47262  1.0000
  C   C121      1.0  0.8652999999999998  0.01664  0.54075  1.0000
  C   C122      1.0  0.11015  0.99609  0.45026  1.0000
  C   C123      1.0  0.39002  0.4952500000000001  0.55006  1.0000
  C   C124      1.0  0.63408  0.51614  0.4596  1.0000
  C   C125      1.0  0.9084199999999999  0.07502  0.4920900000000001  1.0000
  C   C126      1.0  0.0653  0.06263  0.4927500000000001  1.0000
  C   C127      1.0  0.4344299999999999  0.56233  0.5077  1.0000
  C   C128      1.0  0.5912  0.57507  0.50849  1.0000
  C   C129      1.0  0.92019  0.024830000000000005  0.42438  1.0000
  C   C130      1.0  0.05982  0.04017  0.56559  1.0000
  C   C131      1.0  0.43988999999999995  0.5403  0.43479  1.0000
  C   C132      1.0  0.57972  0.52502  0.57621  1.0000
  C   C133      1.0  0.8825199999999999  0.92341  0.40323  1.0000
  C   C134      1.0  0.10602999999999999  0.95946  0.59706  1.0000
  C   C135      1.0  0.39397999999999994  0.4596  0.40318  1.0000
  C   C136      1.0  0.61759  0.42338  0.59717  1.0000
  C   C137      1.0  0.75864  0.8793  0.41234  1.0000
  C   C138      1.0  0.22551  0.87959  0.59085  1.0000
  C   C139      1.0  0.27474  0.3797  0.40919  1.0000
  C   C140      1.0  0.74162  0.37927999999999995  0.5876  1.0000
  H   H33       1.0  0.85864  0.05893  0.5922  1.0000
  H   H34       1.0  0.10222999999999999  0.01609  0.39471  1.0000
  H   H35       1.0  0.3984599999999999  0.51421  0.60567  1.0000
  H   H36       1.0  0.6403  0.5581  0.40808  1.0000
  H   H37       1.0  0.9332199999999999  0.15839  0.50759  1.0000
  H   H38       1.0  0.03564  0.13391  0.46748000000000006  1.0000
  H   H39       1.0  0.46387999999999996  0.63345  0.53317  1.0000
  H   H40       1.0  0.5662999999999999  0.65866  0.49311  1.0000
  H   H41       1.0  0.95535  0.06735  0.38678  1.0000
  H   H42       1.0  0.021739999999999995  0.08783  0.5979  1.0000
  H   H43       1.0  0.4778  0.58812  0.40258  1.0000
  H   H44       1.0  0.54463  0.56781  0.61396  1.0000
  H   H45       1.0  0.8874999999999998  0.89166  0.34828  1.0000
  H   H46       1.0  0.10199999999999998  0.9425700000000001  0.65431  1.0000
  H   H47       1.0  0.39814  0.44275  0.34592  1.0000
  H   H48       1.0  0.61286  0.39176000000000005  0.65214  1.0000
  N   N1        1.0  0.63279  0.82093  0.425  1.0000
  O   O53       1.0  0.6213  0.76276  0.36508  1.0000
  O   O54       1.0  0.58084  0.8741100000000002  0.45720999999999995  1.0000
  N   N2        1.0  0.29362  0.69552  0.60402  1.0000
  O   O55       1.0  0.34802  0.72307  0.64314  1.0000
  O   O56       1.0  0.25531  0.60376  0.6228  1.0000
  N   N3        1.0  0.20766999999999997  0.19493000000000002  0.3958  1.0000
  O   O57       1.0  0.15427999999999994  0.22251  0.35513  1.0000
  O   O58       1.0  0.24583  0.10141  0.37907  1.0000
  N   N4        1.0  0.86781  0.32238  0.57429  1.0000
  O   O59       1.0  0.8801999999999999  0.26404  0.63396  1.0000
  O   O60       1.0  0.9192  0.37562000000000006  0.54152  1.0000
  H   H49       1.0  0.6713  0.77622  0.55853  1.0000
  H   H50       1.0  0.27837  0.68655  0.45943999999999996  1.0000
  H   H51       1.0  0.22241  0.18650000000000003  0.54034  1.0000
  H   H52       1.0  0.8288799999999998  0.27613  0.44113  1.0000
  H   H53       1.0  0.57269  0.31567  0.94124  1.0000
  H   H54       1.0  0.4717199999999999  0.36399  0.05051  1.0000
  H   H55       1.0  0.05878  0.828  0.93973  1.0000
  H   H56       1.0  0.9602399999999999  0.85704  0.05284  1.0000
  H   H57       1.0  0.8581  0.98554  0.07196  1.0000
  H   H58       1.0  0.14118  0.9923299999999999  0.92716  1.0000
  H   H59       1.0  0.36083  0.47428  0.07449  1.0000
  H   H60       1.0  0.6509  0.52192  0.93557  1.0000
  H   H61       1.0  0.62791  0.82267  0.8762499999999999  1.0000
  H   H62       1.0  0.3547  0.73463  0.11160999999999999  1.0000
  H   H63       1.0  0.12954  0.30703  0.87983  1.0000
  H   H64       1.0  0.87197  0.30201  0.12226999999999999  1.0000
  H   H65       1.0  0.06468  0.15175  0.07759  1.0000
  H   H66       1.0  0.93247  0.15136  0.92167  1.0000
  H   H67       1.0  0.55305  0.68053  0.07361  1.0000
  H   H68       1.0  0.43151999999999996  0.64736  0.9064000000000001  1.0000
