data_image0
_chemical_formula_structural       C42Cr6H15O26H2OH
_chemical_formula_sum              "C42 Cr6 H18 O27"
_cell_length_a       10.6507
_cell_length_b       10.58028
_cell_length_c       16.90631
_cell_angle_alpha    98.96572
_cell_angle_beta     98.738
_cell_angle_gamma    61.2741

_space_group_name_H-M_alt    "P 1"
_space_group_IT_number       1

loop_
  _space_group_symop_operation_xyz
  'x, y, z'

loop_
  _atom_site_type_symbol
  _atom_site_label
  _atom_site_symmetry_multiplicity
  _atom_site_fract_x
  _atom_site_fract_y
  _atom_site_fract_z
  _atom_site_occupancy
  C   C1        1.0  0.35384  0.77678  0.3990799999999999  1.0000
  C   C2        1.0  0.7321699999999999  0.30347  0.23608  1.0000
  C   C3        1.0  0.78137  0.36951  0.31396  1.0000
  C   C4        1.0  0.9377399999999996  0.26497  0.30139  1.0000
  C   C5        1.0  0.9471200000000001  0.37533  0.25693  1.0000
  C   C6        1.0  0.7878  0.48163  0.26918  1.0000
  C   C7        1.0  0.7383899999999999  0.41578  0.19035  1.0000
  C   C8        1.0  0.8968299999999999  0.30982  0.17915  1.0000
  C   C9        1.0  0.47018999999999994  0.7850600000000001  0.22184  1.0000
  C   C10       1.0  0.41684000000000004  0.69149  0.25395  1.0000
  C   C11       1.0  0.34457  0.81531  0.31932  1.0000
  C   C12       1.0  0.40576  0.37412  0.3571  1.0000
  C   C13       1.0  0.3992100000000001  0.90743  0.28911  1.0000
  C   C14       1.0  0.25785999999999987  0.97206  0.23418  1.0000
  C   C15       1.0  0.20428000000000002  0.8786899999999999  0.26551999999999987  1.0000
  C   C16       1.0  0.27558000000000005  0.75588  0.19947  1.0000
  C   C17       1.0  0.32902  0.8483  0.16866  1.0000
  C   C18       1.0  0.4579799999999999  0.24724000000000002  0.7811  1.0000
  C   C19       1.0  0.40967  0.39955  0.75703  1.0000
  C   C20       1.0  0.36129  0.3517  0.67335  1.0000
  C   C21       1.0  0.40904  0.19984  0.69682  1.0000
  C   C22       1.0  0.25673000000000007  0.25372  0.72158  1.0000
  C   C23       1.0  0.71832  0.40915  0.38962  1.0000
  C   C24       1.0  0.20879  0.40629  0.69687  1.0000
  C   C25       1.0  0.25710000000000005  0.45308999999999994  0.78238  1.0000
  C   C26       1.0  0.30595  0.3007  0.80529  1.0000
  C   C27       1.0  0.8177699999999998  0.3413600000000001  0.70954  1.0000
  C   C28       1.0  0.8435099999999995  0.31465999999999994  0.7780699999999998  1.0000
  C   C29       1.0  0.32231999999999994  0.84383  0.7055  1.0000
  C   C30       1.0  0.28583999999999987  0.88945  0.7722999999999998  1.0000
  C   C31       1.0  0.95444  0.28636  0.10311  1.0000
  C   C32       1.0  0.32165  0.30315  0.11942999999999998  1.0000
  C   C33       1.0  0.29687999999999987  0.88728  0.08727  1.0000
  C   C34       1.0  0.35343  0.77822  0.6259  1.0000
  C   C35       1.0  0.8837499999999997  0.29985  0.8609799999999997  1.0000
  C   C36       1.0  0.2834599999999999  0.25996  0.87728  1.0000
  C   C37       1.0  0.24751999999999988  0.9412400000000001  0.8526399999999997  1.0000
  C   C38       1.0  0.40271999999999997  0.37378  0.60154  1.0000
  C   C39       1.0  0.77502  0.37889999999999996  0.6295199999999997  1.0000
  C   C40       1.0  0.37316  0.36152  0.27266  1.0000
  C   C41       1.0  0.34767999999999993  0.34375  0.20166  1.0000
  C   C42       1.0  0.89171  0.19613  0.22326  1.0000
  Cr  Cr1       1.0  0.6083399999999999  0.6110399999999999  0.5204299999999997  1.0000
  Cr  Cr2       1.0  0.28765  0.60112  0.48935  1.0000
  Cr  Cr3       1.0  0.6040399999999999  0.28787  0.49027999999999994  1.0000
  Cr  Cr4       1.0  0.054019999999999985  0.05269999999999997  0.9708499999999999  1.0000
  Cr  Cr5       1.0  0.059230000000000005  0.37512  0.99339  1.0000
  Cr  Cr6       1.0  0.37495  0.061199999999999984  0.99234  1.0000
  H   H1        1.0  0.19585  0.08781  0.22303  1.0000
  H   H2        1.0  0.09747999999999986  0.9136800000000002  0.28618  1.0000
  H   H3        1.0  0.47303  0.45970999999999995  0.76941  1.0000
  H   H4        1.0  0.56108  0.18190999999999996  0.81605  1.0000
  H   H5        1.0  0.4715  0.09545  0.66121  1.0000
  H   H6        1.0  0.19309  0.19386  0.70912  1.0000
  H   H7        1.0  0.1077999999999999  0.47174000000000005  0.6604099999999998  1.0000
  H   H8        1.0  0.19439  0.55565  0.8193  1.0000
  H   H9        1.0  0.9329299999999999  0.08034999999999999  0.20074999999999996  1.0000
  H   H10       1.0  0.03750999999999998  0.4018  0.26414  1.0000
  H   H11       1.0  0.74687  0.5977  0.29119  1.0000
  H   H12       1.0  0.65746  0.4769300000000001  0.14243999999999996  1.0000
  H   H13       1.0  0.47940000000000005  0.5759  0.2651  1.0000
  H   H14       1.0  0.5759  0.74928  0.19946  1.0000
  H   H15       1.0  0.44782999999999995  0.9703099999999999  0.32786  1.0000
  O   O1        1.0  0.7512200000000001  0.49923  0.43517  1.0000
  O   O2        1.0  0.2978799999999998  0.46908  0.5600499999999998  1.0000
  O   O3        1.0  0.4897199999999999  0.25459  0.56481  1.0000
  O   O4        1.0  0.72522  0.30423  0.58508  1.0000
  O   O5        1.0  0.50001  0.50001  0.50002  1.0000
  O   O6        1.0  0.17183000000000007  0.91388  0.05750999999999999  1.0000
  O   O7        1.0  0.9406899999999998  0.18605  0.05473  1.0000
  O   O8        1.0  0.92047  0.40572  0.07500999999999997  1.0000
  O   O9        1.0  0.19668999999999998  0.37046  0.08412  1.0000
  O   O10       1.0  0.4129899999999999  0.18075  0.09161  1.0000
  O   O11       1.0  0.36662000000000006  0.94313  0.06575999999999997  1.0000
  O   O12       1.0  0.47722  0.7276  0.43687  1.0000
  O   O13       1.0  0.16051000000000015  0.9063299999999999  0.8792099999999998  1.0000
  O   O14       1.0  0.9301899999999997  0.17905  0.88945  1.0000
  O   O15       1.0  0.90914  0.39817  0.8967099999999998  1.0000
  O   O16       1.0  0.18618999999999997  0.36346  0.9188299999999999  1.0000
  O   O17       1.0  0.40166999999999997  0.1732  0.91331  1.0000
  O   O18       1.0  0.35612000000000005  0.93613  0.90047  1.0000
  O   O19       1.0  0.16274000000000002  0.16300999999999996  0.9855299999999999  1.0000
  O   O20       1.0  0.25864999999999994  0.7451199999999999  0.4114699999999999  1.0000
  O   O21       1.0  0.29706999999999995  0.46724  0.39596  1.0000
  O   O22       1.0  0.48882999999999993  0.25261  0.3877899999999999  1.0000
  O   O23       1.0  0.7244000000000002  0.30239  0.4209799999999999  1.0000
  O   O24       1.0  0.7520999999999998  0.5012099999999999  0.6121899999999998  1.0000
  O   O25       1.0  0.4780399999999997  0.72944  0.60097  1.0000
  O   O26       1.0  0.25953  0.74711  0.58849  1.0000
  H   H16       1.0  0.64465  0.27332  0.22875  1.0000
  H   H17       1.0  0.22694999999999999  0.69249  0.16121999999999995  1.0000
  O   O27       1.0  0.040299999999999975  0.19  0.3620899999999999  1.0000
  H   H18       1.0  0.0039499999999999995  0.13093  0.3814  1.0000
