data_image0
_chemical_formula_structural       O8C4O8C4O4V4C4H4C4O4N4C44H4C20O4C4H20CNCNCNCNCNCNCNCN
_chemical_formula_sum              "O28 C92 V4 H28 N12"
_cell_length_a       28.27338
_cell_length_b       7.18409
_cell_length_c       17.18632
_cell_angle_alpha    89.99985
_cell_angle_beta     102.08265999999999
_cell_angle_gamma    89.99995999999999

_symmetry_space_group_name_H-M    'P 1'
_symmetry_Int_Tables_number       1

loop_
  _symmetry_equiv_pos_as_xyz
  'x,y,z'

loop_
  _atom_site_type_symbol
  _atom_site_label
  _atom_site_symmetry_multiplicity
  _atom_site_fract_x
  _atom_site_fract_y
  _atom_site_fract_z
  _atom_site_occupancy
  O   O1        1.0  0.0007000000000000241  0.43651  0.8579200000000002  1.0000
  O   O2        1.0  0.9993000000000002  0.56349  0.14208  1.0000
  O   O3        1.0  0.9993000000000002  0.93651  0.64208  1.0000
  O   O4        1.0  0.0007000000000000042  0.06349  0.35792  1.0000
  O   O5        1.0  0.9300800000000002  0.7663799999999997  0.72189  1.0000
  O   O6        1.0  0.06992  0.23362  0.27811  1.0000
  O   O7        1.0  0.06992  0.26638  0.77811  1.0000
  O   O8        1.0  0.9300800000000002  0.73362  0.22189  1.0000
  C   C1        1.0  0.91061  0.5973399999999998  0.70737  1.0000
  C   C2        1.0  0.08942  0.40252  0.29249  1.0000
  C   C3        1.0  0.08942  0.09748  0.79249  1.0000
  C   C4        1.0  0.91061  0.90266  0.20737  1.0000
  O   O9        1.0  0.99618  0.7662299999999999  0.86231  1.0000
  O   O10       1.0  0.0038199999999999996  0.23376999999999995  0.13769  1.0000
  O   O11       1.0  0.0038199999999999944  0.26623  0.63769  1.0000
  O   O12       1.0  0.99618  0.73377  0.36231000000000013  1.0000
  O   O13       1.0  0.06587  0.93646  0.7835  1.0000
  O   O14       1.0  0.93413  0.06354  0.21650000000000005  1.0000
  O   O15       1.0  0.93413  0.4364599999999999  0.7165  1.0000
  O   O16       1.0  0.06587  0.5635399999999998  0.2835  1.0000
  C   C5        1.0  0.9984500000000002  0.59645  0.8945000000000002  1.0000
  C   C6        1.0  0.0015699999999999993  0.4035499999999999  0.10551  1.0000
  C   C7        1.0  0.0015699999999999941  0.09645  0.60551  1.0000
  C   C8        1.0  0.9984500000000002  0.9035499999999997  0.3945  1.0000
  O   O17       1.0  0.022789999999999998  0.60302  0.7239800000000001  1.0000
  O   O18       1.0  0.9772100000000002  0.39698  0.27602  1.0000
  O   O19       1.0  0.9772100000000002  0.10302  0.77602  1.0000
  O   O20       1.0  0.022790000000000005  0.8969799999999998  0.22398000000000004  1.0000
  V   V1        1.0  0.9957700000000003  0.8779  0.75483  1.0000
  V   V2        1.0  0.004230000000000008  0.12209999999999997  0.24517000000000003  1.0000
  V   V3        1.0  0.004229999999999999  0.3778999999999999  0.74517  1.0000
  V   V4        1.0  0.9957700000000003  0.6220999999999999  0.25483  1.0000
  C   C9        1.0  0.0017300000000000058  0.08274  0.51957  1.0000
  C   C10       1.0  0.9983  0.9172599999999997  0.48044000000000003  1.0000
  C   C11       1.0  0.9983  0.58274  0.9804399999999999  1.0000
  C   C12       1.0  0.00173  0.41725999999999996  0.01957  1.0000
  H   H1        1.0  0.004510000000000005  0.21177  0.48789  1.0000
  H   H2        1.0  0.99552  0.78822  0.51212  1.0000
  H   H3        1.0  0.99552  0.7117699999999998  0.01212  1.0000
  H   H4        1.0  0.004509999999999994  0.28823  0.98789  1.0000
  C   C13       1.0  0.68279  0.9294899999999998  0.02227  1.0000
  C   C14       1.0  0.31679  0.0651  0.9800199999999999  1.0000
  C   C15       1.0  0.31679  0.43489999999999995  0.48001  1.0000
  C   C16       1.0  0.68279  0.57052  0.52226  1.0000
  O   O21       1.0  0.7122400000000002  0.9083  0.9705100000000001  1.0000
  O   O22       1.0  0.28678  0.06695  0.03151  1.0000
  O   O23       1.0  0.28678  0.43304  0.5315000000000002  1.0000
  O   O24       1.0  0.7122400000000002  0.5917  0.4705000000000001  1.0000
  N   N1        1.0  0.70277  0.93139  0.1021  1.0000
  N   N2        1.0  0.29736  0.08107999999999997  0.90025  1.0000
  N   N3        1.0  0.29736  0.41893  0.40024  1.0000
  N   N4        1.0  0.70277  0.5686499999999998  0.60208  1.0000
  C   C17       1.0  0.6745100000000003  0.94938  0.15713  1.0000
  C   C18       1.0  0.32636  0.08672  0.84586  1.0000
  C   C19       1.0  0.32636  0.41328999999999994  0.34586  1.0000
  C   C20       1.0  0.6745100000000003  0.55067  0.6571100000000001  1.0000
  C   C21       1.0  0.7774300000000002  0.76863  0.16915  1.0000
  C   C22       1.0  0.22197  0.24088999999999994  0.83423  1.0000
  C   C23       1.0  0.2219800000000001  0.25913  0.33421  1.0000
  C   C24       1.0  0.7774300000000002  0.7314499999999999  0.66909  1.0000
  C   C25       1.0  0.82786  0.7630599999999997  0.1941  1.0000
  C   C26       1.0  0.17162  0.24279999999999996  0.80827  1.0000
  C   C27       1.0  0.17162  0.25722  0.30825  1.0000
  C   C28       1.0  0.82787  0.7369999999999998  0.69405  1.0000
  C   C29       1.0  0.83345  0.07027999999999998  0.13725  1.0000
  C   C30       1.0  0.16728000000000007  0.93002  0.86037  1.0000
  C   C31       1.0  0.16728000000000007  0.5699599999999998  0.36039  1.0000
  C   C32       1.0  0.83345  0.4296799999999999  0.63729  1.0000
  C   C33       1.0  0.78297  0.0738  0.11272  1.0000
  C   C34       1.0  0.21776000000000006  0.9296599999999999  0.8854900000000002  1.0000
  C   C35       1.0  0.2177600000000001  0.5703199999999998  0.38551000000000013  1.0000
  C   C36       1.0  0.78297  0.42617  0.61276  1.0000
  C   C37       1.0  0.75473  0.92409  0.12833  1.0000
  C   C38       1.0  0.24538000000000004  0.08431999999999999  0.87301  1.0000
  C   C39       1.0  0.24538000000000004  0.41568999999999995  0.373  1.0000
  C   C40       1.0  0.75473  0.5759399999999999  0.62832  1.0000
  C   C41       1.0  0.6023600000000002  0.9683799999999998  0.05102000000000002  1.0000
  C   C42       1.0  0.39794  0.051579999999999994  0.9521500000000002  1.0000
  C   C43       1.0  0.39794  0.44843  0.45214  1.0000
  C   C44       1.0  0.6023600000000002  0.53165  0.55101  1.0000
  C   C45       1.0  0.63197  0.94936  0.9943800000000002  1.0000
  C   C46       1.0  0.36765  0.04783  0.00821  1.0000
  C   C47       1.0  0.36766  0.45218999999999987  0.5082  1.0000
  C   C48       1.0  0.63197  0.55066  0.49436  1.0000
  C   C49       1.0  0.60962  0.9510699999999997  0.91249  1.0000
  C   C50       1.0  0.3893500000000001  0.02444  0.08975  1.0000
  C   C51       1.0  0.38936  0.47559  0.58974  1.0000
  C   C52       1.0  0.60962  0.54894  0.41247  1.0000
  C   C53       1.0  0.62404  0.96694  0.13282000000000005  1.0000
  C   C54       1.0  0.3768800000000001  0.07345  0.87066  1.0000
  C   C55       1.0  0.3768800000000001  0.4265599999999999  0.37065  1.0000
  C   C56       1.0  0.62404  0.5331  0.63281  1.0000
  C   C57       1.0  0.8568500000000002  0.91336  0.17925  1.0000
  C   C58       1.0  0.14324  0.08824999999999997  0.82049  1.0000
  C   C59       1.0  0.14324  0.41175  0.32049  1.0000
  C   C60       1.0  0.8568500000000002  0.5866399999999998  0.67925  1.0000
  H   H5        1.0  0.7652700000000002  0.19365999999999997  0.0809  1.0000
  H   H6        1.0  0.23593000000000008  0.8085799999999997  0.9155600000000003  1.0000
  H   H7        1.0  0.23593000000000006  0.69139  0.4156  1.0000
  H   H8        1.0  0.7652600000000003  0.30628  0.58097  1.0000
  C   C61       1.0  0.47879000000000005  0.03014  0.91951  1.0000
  C   C62       1.0  0.52189  0.00345  0.08413  1.0000
  C   C63       1.0  0.5218900000000001  0.49657999999999997  0.5841200000000002  1.0000
  C   C64       1.0  0.47879000000000005  0.46987  0.4195  1.0000
  C   C65       1.0  0.47051  0.01549  0.05914000000000001  1.0000
  C   C66       1.0  0.5296  0.999  0.94409  1.0000
  C   C67       1.0  0.5296  0.50102  0.4440800000000001  1.0000
  C   C68       1.0  0.47051  0.48455  0.55913  1.0000
  C   C69       1.0  0.44923  0.03255  0.97709  1.0000
  C   C70       1.0  0.55112  0.9901399999999998  0.02628  1.0000
  C   C71       1.0  0.55112  0.50988  0.52627  1.0000
  C   C72       1.0  0.44923  0.46746999999999994  0.47708000000000006  1.0000
  C   C73       1.0  0.4563200000000001  0.060709999999999986  0.83888  1.0000
  C   C74       1.0  0.54531  0.0056  0.16543  1.0000
  C   C75       1.0  0.54531  0.49445  0.66542  1.0000
  C   C76       1.0  0.45633  0.43928  0.33887  1.0000
  C   C77       1.0  0.40655  0.08068  0.81516  1.0000
  C   C78       1.0  0.59514  0.98713  0.18901  1.0000
  C   C79       1.0  0.59514  0.51291  0.6889900000000001  1.0000
  C   C80       1.0  0.40655  0.41931999999999997  0.3151500000000001  1.0000
  O   O25       1.0  0.30629  0.10177  0.7676400000000002  1.0000
  O   O26       1.0  0.69531  0.9533499999999998  0.23532  1.0000
  O   O27       1.0  0.69531  0.54671  0.73531  1.0000
  O   O28       1.0  0.30629  0.39825  0.26763  1.0000
  C   C81       1.0  0.55965  0.97405  0.8888  1.0000
  C   C82       1.0  0.43951  0.00838  0.11374  1.0000
  C   C83       1.0  0.43951  0.49166  0.61374  1.0000
  C   C84       1.0  0.55965  0.52596  0.3887900000000001  1.0000
  H   H9        1.0  0.15492000000000006  0.36608  0.77818  1.0000
  H   H10       1.0  0.84416  0.64096  0.22576  1.0000
  H   H11       1.0  0.84416  0.85914  0.72568  1.0000
  H   H12       1.0  0.15492000000000006  0.13395  0.2781400000000001  1.0000
  H   H13       1.0  0.24281  0.36186  0.82439  1.0000
  H   H14       1.0  0.7559800000000002  0.65156  0.18138  1.0000
  H   H15       1.0  0.7559900000000002  0.84855  0.6812800000000002  1.0000
  H   H16       1.0  0.24282000000000006  0.13818  0.32434  1.0000
  H   H17       1.0  0.39137  0.10177  0.75247  1.0000
  H   H18       1.0  0.611  0.98971  0.25212  1.0000
  H   H19       1.0  0.611  0.51034  0.75211  1.0000
  H   H20       1.0  0.39137  0.39820999999999995  0.25246  1.0000
  H   H21       1.0  0.47621  0.07376  0.79214  1.0000
  H   H22       1.0  0.5264  0.02594  0.213  1.0000
  H   H23       1.0  0.5264  0.4741  0.71299  1.0000
  H   H24       1.0  0.47621  0.4262199999999999  0.29214  1.0000
  H   H25       1.0  0.54504  0.9677099999999997  0.82569  1.0000
  H   H26       1.0  0.45323  0.9848499999999998  0.17633  1.0000
  H   H27       1.0  0.45323  0.51521  0.67632  1.0000
  H   H28       1.0  0.5450300000000001  0.53229  0.32568  1.0000
  C   C85       1.0  0.85967  0.22834  0.11584  1.0000
  N   N5        1.0  0.8804300000000003  0.35540999999999995  0.09853  1.0000
  C   C86       1.0  0.1417  0.76763  0.87926  1.0000
  N   N6        1.0  0.12139000000000003  0.6372699999999999  0.8946000000000002  1.0000
  C   C87       1.0  0.14169000000000004  0.73233  0.3793  1.0000
  N   N7        1.0  0.12139  0.8626799999999998  0.39466  1.0000
  C   C88       1.0  0.85965  0.27153999999999995  0.61594  1.0000
  N   N8        1.0  0.8804200000000002  0.14442  0.59867  1.0000
  C   C89       1.0  0.63625  0.9318999999999997  0.8496  1.0000
  N   N9        1.0  0.6573100000000001  0.91718  0.79896  1.0000
  C   C90       1.0  0.36184  0.012409999999999996  0.15177  1.0000
  N   N10       1.0  0.34009  0.002449999999999999  0.20168000000000005  1.0000
  C   C91       1.0  0.36184  0.48762  0.65176  1.0000
  N   N11       1.0  0.34009  0.49759  0.70168  1.0000
  C   C92       1.0  0.63625  0.56809  0.34958  1.0000
  N   N12       1.0  0.6573000000000002  0.58279  0.2989400000000001  1.0000
