data_image0
_chemical_formula_structural       O2CO2CO2CO2CO2CO2CCr3OC8H6C14H6C8H4O2CO2CO2CO2CO2CO2CCr3ONO2CH3
_chemical_formula_sum              "O28 C43 Cr6 H19 N1"
_cell_length_a       10.65258
_cell_length_b       10.71743
_cell_length_c       16.96069
_cell_angle_alpha    80.56242
_cell_angle_beta     99.00147999999999
_cell_angle_gamma    118.74792999999997

_symmetry_space_group_name_H-M    'P 1'
_symmetry_Int_Tables_number       1

loop_
  _symmetry_equiv_pos_as_xyz
  'x,y,z'

loop_
  _atom_site_type_symbol
  _atom_site_label
  _atom_site_symmetry_multiplicity
  _atom_site_fract_x
  _atom_site_fract_y
  _atom_site_fract_z
  _atom_site_occupancy
  O   O1        1.0  0.75402  0.4975900000000001  0.60993  1.0000
  O   O2        1.0  0.48142  0.27139  0.6006299999999999  1.0000
  C   C1        1.0  0.38477999999999996  0.28567000000000004  0.6317399999999997  1.0000
  O   O3        1.0  0.26381000000000004  0.2545500000000001  0.5895899999999998  1.0000
  O   O4        1.0  0.30082  0.5312  0.56089  1.0000
  C   C2        1.0  0.41371  0.61983  0.60171  1.0000
  O   O5        1.0  0.4914799999999999  0.74402  0.56427  1.0000
  O   O6        1.0  0.7262900000000001  0.6938000000000002  0.5830099999999998  1.0000
  C   C3        1.0  0.77733  0.61916  0.62667  1.0000
  O   O7        1.0  0.74783  0.5001900000000001  0.43408999999999986  1.0000
  O   O8        1.0  0.4756800000000001  0.2738000000000001  0.4376299999999999  1.0000
  C   C4        1.0  0.35123  0.22472  0.40063  1.0000
  O   O9        1.0  0.25762  0.25716  0.41375  1.0000
  O   O10       1.0  0.29508  0.53362  0.3978899999999999  1.0000
  C   C5        1.0  0.3625800000000001  0.6572800000000002  0.36185  1.0000
  O   O11       1.0  0.48528  0.74662  0.38844  1.0000
  O   O12       1.0  0.7205499999999998  0.69622  0.4200099999999999  1.0000
  C   C6        1.0  0.6991  0.5820900000000001  0.38999  1.0000
  Cr  Cr1       1.0  0.6084399999999999  0.38908  0.51968  1.0000
  Cr  Cr2       1.0  0.2886399999999999  0.40008999999999995  0.4907599999999999  1.0000
  Cr  Cr3       1.0  0.60294  0.7108  0.48950999999999995  1.0000
  O   O13       1.0  0.50001  0.49999000000000005  0.49998  1.0000
  C   C7        1.0  0.3542600000000001  0.6511600000000001  0.83783  1.0000
  C   C8        1.0  0.24961999999999993  0.53794  0.7958899999999998  1.0000
  C   C9        1.0  0.27217  0.52063  0.72127  1.0000
  C   C10       1.0  0.5150799999999999  0.7105399999999998  0.73482  1.0000
  C   C11       1.0  0.493  0.72696  0.8108  1.0000
  C   C12       1.0  0.09420000000000003  0.49451000000000006  0.77189  1.0000
  C   C13       1.0  0.11878000000000002  0.47485  0.69007  1.0000
  C   C14       1.0  0.3992800000000002  0.6170300000000002  0.68609  1.0000
  H   H1        1.0  0.61864  0.7795400000000002  0.71171  1.0000
  H   H2        1.0  0.58003  0.81  0.84386  1.0000
  H   H3        1.0  0.06772  0.58342  0.77015  1.0000
  H   H4        1.0  0.02253000000000004  0.39247000000000004  0.80568  1.0000
  H   H5        1.0  0.061879999999999984  0.36132  0.67683  1.0000
  H   H6        1.0  0.10567999999999997  0.55196  0.6413  1.0000
  C   C15       1.0  0.8229799999999999  0.6568100000000001  0.70594  1.0000
  C   C16       1.0  0.85025  0.68461  0.77383  1.0000
  C   C17       1.0  0.36546000000000006  0.23617000000000002  0.71442  1.0000
  C   C18       1.0  0.3347  0.18896  0.7819  1.0000
  C   C19       1.0  0.3189  0.68343  0.28051  1.0000
  C   C20       1.0  0.2969  0.7066  0.20984  1.0000
  C   C21       1.0  0.7897899999999999  0.6447900000000002  0.14784999999999995  1.0000
  C   C22       1.0  0.7634  0.51605  0.19534  1.0000
  C   C23       1.0  0.7260400000000001  0.49292000000000025  0.27223999999999987  1.0000
  C   C24       1.0  0.6953900000000001  0.7041600000000001  0.24965000000000004  1.0000
  C   C25       1.0  0.74158  0.73269  0.17212  1.0000
  C   C26       1.0  0.85881  0.44706000000000007  0.21913  1.0000
  C   C27       1.0  0.8199200000000001  0.42443  0.30375  1.0000
  C   C28       1.0  0.7068  0.59393  0.30364  1.0000
  H   H7        1.0  0.66485  0.7759500000000001  0.26948  1.0000
  H   H8        1.0  0.7507500000000001  0.8283500000000001  0.13477  1.0000
  H   H9        1.0  0.97405  0.52381  0.21302  1.0000
  H   H10       1.0  0.81745  0.34567000000000003  0.19149  1.0000
  H   H11       1.0  0.7586999999999996  0.31008  0.32589  1.0000
  H   H12       1.0  0.91333  0.4892500000000001  0.34495  1.0000
  C   C29       1.0  0.32461  0.16708  0.15968  1.0000
  C   C30       1.0  0.22701  0.19585  0.18904  1.0000
  C   C31       1.0  0.23174  0.19941  0.26907  1.0000
  C   C32       1.0  0.44104  0.16370000000000004  0.29435  1.0000
  C   C33       1.0  0.43779  0.15934  0.21224  1.0000
  C   C34       1.0  0.06456999999999997  0.1258  0.18052  1.0000
  C   C35       1.0  0.07257999999999999  0.13183000000000003  0.27025  1.0000
  C   C36       1.0  0.33327999999999997  0.17853999999999998  0.32331  1.0000
  H   H13       1.0  0.52482  0.15294  0.33511  1.0000
  H   H14       1.0  0.51619  0.13841  0.1913  1.0000
  H   H15       1.0  0.013439999999999994  0.014940000000000012  0.16325999999999993  1.0000
  H   H16       1.0  0.02359000000000001  0.19585  0.14261  1.0000
  O   O14       1.0  0.16331999999999997  0.09290000000000007  0.8744499999999997  1.0000
  O   O15       1.0  0.93465  0.8220800000000003  0.88284  1.0000
  C   C37       1.0  0.891  0.7017  0.85609  1.0000
  O   O16       1.0  0.9155200000000002  0.6041400000000001  0.89367  1.0000
  O   O17       1.0  0.1917600000000002  0.6381100000000002  0.92323  1.0000
  C   C38       1.0  0.3165599999999999  0.7059699999999999  0.8987  1.0000
  O   O18       1.0  0.40617999999999993  0.82693  0.92066  1.0000
  O   O19       1.0  0.35861999999999994  0.06287000000000001  0.90195  1.0000
  C   C39       1.0  0.28718999999999995  0.11945  0.85868  1.0000
  O   O20       1.0  0.16391  0.08546  0.050209999999999984  1.0000
  O   O21       1.0  0.9352000000000001  0.81517  0.04577  1.0000
  C   C40       1.0  0.8815  0.68821  0.08226  1.0000
  O   O22       1.0  0.91612  0.59669  0.06943  1.0000
  O   O23       1.0  0.19230999999999998  0.6312  0.08617  1.0000
  C   C41       1.0  0.28435  0.73831  0.1256  1.0000
  O   O24       1.0  0.40677000000000013  0.8194800000000001  0.09641999999999999  1.0000
  O   O25       1.0  0.35917  0.05596000000000001  0.06488  1.0000
  C   C42       1.0  0.28584  0.10861000000000001  0.0844  1.0000
  Cr  Cr4       1.0  0.05253  0.9475600000000001  0.96421  1.0000
  Cr  Cr5       1.0  0.059970000000000086  0.6268000000000001  0.99292  1.0000
  Cr  Cr6       1.0  0.3733199999999999  0.93844  0.9953700000000001  1.0000
  O   O26       1.0  0.16194000000000006  0.8376000000000001  0.9841600000000001  1.0000
  N   N1        1.0  0.02733000000000006  0.23188000000000003  0.28951  1.0000
  O   O27       1.0  0.09178000000000001  0.36573  0.26107  1.0000
  O   O28       1.0  0.9330999999999999  0.19191000000000003  0.34107  1.0000
  C   C43       1.0  0.007539999999999971  0.98512  0.32016  1.0000
  H   H17       1.0  0.046330000000000024  0.99652  0.38451  1.0000
  H   H18       1.0  0.8894800000000002  0.9399500000000001  0.315  1.0000
  H   H19       1.0  0.03635000000000014  0.9096600000000002  0.2995  1.0000
