data_image0
_chemical_formula_structural       C40Cr6H27O26C3H7C3H7CO2HCO2HCO2H
_chemical_formula_sum              "C49 Cr6 H44 O32"
_cell_length_a       10.95659
_cell_length_b       10.96781
_cell_length_c       18.705599999999997
_cell_angle_alpha    90.05456999999998
_cell_angle_beta     89.96818
_cell_angle_gamma    60.13684

_space_group_name_H-M_alt    "P 1"
_space_group_IT_number       1

loop_
  _space_group_symop_operation_xyz
  'x, y, z'

loop_
  _atom_site_type_symbol
  _atom_site_label
  _atom_site_symmetry_multiplicity
  _atom_site_fract_x
  _atom_site_fract_y
  _atom_site_fract_z
  _atom_site_occupancy
  C   C1        1.0  0.31379000000000007  0.61041  0.61056  1.0000
  C   C2        1.0  0.68912  0.54374  0.79871  1.0000
  C   C3        1.0  0.70308  0.67608  0.81167  1.0000
  C   C4        1.0  0.6741299999999999  0.65035  0.67556  1.0000
  C   C5        1.0  0.8059  0.66456  0.68689  1.0000
  C   C6        1.0  0.69554  0.51871  0.71811  1.0000
  C   C7        1.0  0.6710099999999999  0.16576  0.67326  1.0000
  C   C8        1.0  0.67632  0.17774  0.8307700000000001  1.0000
  C   C9        1.0  0.7826900000000002  0.15766  0.7889000000000003  1.0000
  C   C10       1.0  0.76306  0.18558000000000005  0.71175  1.0000
  C   C11       1.0  0.32466  0.58764  0.6874500000000001  1.0000
  C   C12       1.0  0.6551100000000001  0.62348  0.6006500000000001  1.0000
  C   C13       1.0  0.18088  0.67753  0.83334  1.0000
  C   C14       1.0  0.22298000000000015  0.5517  0.79868  1.0000
  C   C15       1.0  0.24582  0.54272  0.72066  1.0000
  C   C16       1.0  0.5953500000000002  0.59333  0.30988  1.0000
  C   C17       1.0  0.6400300000000001  0.6632  0.16021  1.0000
  C   C18       1.0  0.6935800000000002  0.53265  0.18634  1.0000
  C   C19       1.0  0.7010700000000001  0.50747  0.26408  1.0000
  C   C20       1.0  0.67747  0.12552  0.33798  1.0000
  C   C21       1.0  0.68225  0.08423000000000003  0.18562  1.0000
  C   C22       1.0  0.62541  0.03236  0.23093000000000002  1.0000
  C   C23       1.0  0.6273300000000002  0.22932  0.60254  1.0000
  C   C24       1.0  0.59905  0.07956  0.30518  1.0000
  C   C25       1.0  0.11838999999999997  0.68363  0.34631  1.0000
  C   C26       1.0  0.10259999999999997  0.69421  0.19232000000000005  1.0000
  C   C27       1.0  0.037800000000000014  0.80835  0.23501  1.0000
  C   C28       1.0  0.07092000000000012  0.80294  0.31036  1.0000
  C   C29       1.0  0.70064  0.10517  0.89873  1.0000
  C   C30       1.0  0.72597  0.6902  0.88759  1.0000
  C   C31       1.0  0.11615999999999997  0.70872  0.90567  1.0000
  C   C32       1.0  0.70179  0.04288000000000001  0.11175  1.0000
  C   C33       1.0  0.69277  0.68769  0.09424000000000002  1.0000
  C   C34       1.0  0.21461  0.65207  0.40501  1.0000
  C   C35       1.0  0.08160999999999999  0.7156  0.11643000000000002  1.0000
  C   C36       1.0  0.6111800000000002  0.58319  0.3887  1.0000
  C   C37       1.0  0.62117  0.22171000000000002  0.39797000000000005  1.0000
  C   C38       1.0  0.56674  0.80644  0.78393  1.0000
  C   C39       1.0  0.54487  0.7861  0.70486  1.0000
  C   C40       1.0  0.82919  0.66845  0.76806  1.0000
  Cr  Cr1       1.0  0.39301  0.39805  0.5014800000000001  1.0000
  Cr  Cr2       1.0  0.3988199999999999  0.7079800000000002  0.50163  1.0000
  Cr  Cr3       1.0  0.70814  0.39394  0.49685000000000007  1.0000
  Cr  Cr4       1.0  0.93795  0.9384500000000001  0.00894  1.0000
  Cr  Cr5       1.0  0.62618  0.9370300000000001  0.9947500000000001  1.0000
  Cr  Cr6       1.0  0.9377900000000001  0.62576  0.00141  1.0000
  H   H1        1.0  0.5752599999999999  0.9030300000000001  0.78975  1.0000
  H   H2        1.0  0.80093  0.4306  0.70334  1.0000
  H   H3        1.0  0.9289700000000001  0.57316  0.78287  1.0000
  H   H4        1.0  0.90048  0.57461  0.6623  1.0000
  H   H5        1.0  0.8866400000000002  0.118  0.81166  1.0000
  H   H6        1.0  0.8269100000000001  0.22242  0.68598  1.0000
  H   H7        1.0  0.57046  0.22758  0.8094000000000001  1.0000
  H   H8        1.0  0.6121000000000001  0.12121000000000001  0.69783  1.0000
  H   H9        1.0  0.17889000000000002  0.51586  0.68951  1.0000
  H   H10       1.0  0.47385999999999995  0.8225400000000003  0.81557  1.0000
  H   H11       1.0  0.3959100000000001  0.60828  0.71703  1.0000
  H   H12       1.0  0.7605700000000002  0.44343  0.15232000000000004  1.0000
  H   H13       1.0  0.57956  0.75534  0.19306  1.0000
  H   H14       1.0  0.58536  0.96569  0.21162000000000006  1.0000
  H   H15       1.0  0.50372  0.09156  0.32964  1.0000
  H   H16       1.0  0.71758  0.15612  0.20286  1.0000
  H   H17       1.0  0.77818  0.10336  0.31623000000000007  1.0000
  H   H18       1.0  0.9737200000000003  0.91257  0.21248  1.0000
  H   H19       1.0  0.4478300000000002  0.77972  0.69905  1.0000
  H   H20       1.0  0.07665999999999998  0.8916000000000001  0.3325  1.0000
  H   H21       1.0  0.16926999999999998  0.58844  0.21235  1.0000
  H   H22       1.0  0.10395999999999997  0.5988  0.32591  1.0000
  H   H23       1.0  0.5292700000000001  0.8793299999999998  0.6737900000000001  1.0000
  H   H24       1.0  0.8418899999999999  0.76079  0.7806400000000001  1.0000
  H   H25       1.0  0.7913000000000001  0.76251  0.66129  1.0000
  H   H26       1.0  0.58357  0.56672  0.8181700000000001  1.0000
  H   H27       1.0  0.61938  0.48500000000000004  0.70259  1.0000
  O   O1        1.0  0.5071100000000001  0.25628  0.5803  1.0000
  O   O2        1.0  0.52464  0.69537  0.4251  1.0000
  O   O3        1.0  0.73589  0.50439  0.41598  1.0000
  O   O4        1.0  0.6905600000000002  0.27782  0.42235  1.0000
  O   O5        1.0  0.49999000000000005  0.49999  0.49998000000000004  1.0000
  O   O6        1.0  0.08919  0.82587  0.9323200000000001  1.0000
  O   O7        1.0  0.81907  0.05396  0.9314400000000002  1.0000
  O   O8        1.0  0.60707  0.07644  0.91646  1.0000
  O   O9        1.0  0.64711  0.80655  0.9176900000000001  1.0000
  O   O10       1.0  0.83708  0.59386  0.9153  1.0000
  O   O11       1.0  0.06477000000000002  0.63608  0.93255  1.0000
  O   O12       1.0  0.28083  0.52719  0.57794  1.0000
  O   O13       1.0  0.06824999999999998  0.8292  0.09294  1.0000
  O   O14       1.0  0.79965  0.05704  0.08033000000000001  1.0000
  O   O15       1.0  0.58613  0.07976000000000001  0.07708000000000001  1.0000
  O   O16       1.0  0.6276999999999999  0.80963  0.06658  1.0000
  O   O17       1.0  0.8161400000000001  0.59718  0.07592  1.0000
  O   O18       1.0  0.04535999999999998  0.63917  0.08144  1.0000
  O   O19       1.0  0.8339800000000002  0.8337500000000001  0.0017  1.0000
  O   O20       1.0  0.26136  0.73899  0.58427  1.0000
  O   O21       1.0  0.53259  0.69478  0.57437  1.0000
  O   O22       1.0  0.7444700000000002  0.50375  0.577  1.0000
  O   O23       1.0  0.6985200000000003  0.27723  0.57162  1.0000
  O   O24       1.0  0.49853000000000003  0.25692  0.41928  1.0000
  O   O25       1.0  0.27288  0.52778  0.42868  1.0000
  O   O26       1.0  0.25278  0.73963  0.42325  1.0000
  C   C41       1.0  0.22716999999999998  0.4242  0.83514  1.0000
  C   C42       1.0  0.26647  0.297  0.78578  1.0000
  C   C43       1.0  0.28064999999999996  0.171  0.82748  1.0000
  H   H28       1.0  0.36997  0.13201  0.86531  1.0000
  H   H29       1.0  0.18306000000000008  0.19996000000000003  0.85799  1.0000
  H   H30       1.0  0.29972  0.08518000000000002  0.7896700000000001  1.0000
  H   H31       1.0  0.18239999999999998  0.32577000000000006  0.7452  1.0000
  H   H32       1.0  0.3667000000000001  0.26547  0.75733  1.0000
  H   H33       1.0  0.3034  0.39073  0.8801100000000001  1.0000
  H   H34       1.0  0.12209000000000006  0.45291  0.85643  1.0000
  C   C44       1.0  0.18032999999999993  0.8044700000000001  0.79662  1.0000
  C   C45       1.0  0.07494999999999997  0.8690600000000002  0.73457  1.0000
  C   C46       1.0  0.09622  0.9799  0.69576  1.0000
  H   H35       1.0  0.07194  0.06996  0.7315400000000001  1.0000
  H   H36       1.0  0.20669  0.93456  0.67763  1.0000
  H   H37       1.0  0.02805  0.01741  0.6477  1.0000
  H   H38       1.0  0.08001000000000007  0.79357  0.69438  1.0000
  H   H39       1.0  0.9676800000000001  0.9127  0.75595  1.0000
  H   H40       1.0  0.15356000000000003  0.89321  0.8336200000000001  1.0000
  H   H41       1.0  0.28747  0.77893  0.78194  1.0000
  C   C47       1.0  0.8414  0.39499  0.28755  1.0000
  O   O27       1.0  0.9261  0.42553  0.31222  1.0000
  O   O28       1.0  0.8804800000000002  0.25454  0.27576  1.0000
  H   H42       1.0  0.97984  0.18716  0.29242  1.0000
  C   C48       1.0  0.45199  0.6934  0.28179  1.0000
  O   O29       1.0  0.3827699999999999  0.8107600000000001  0.3078600000000001  1.0000
  O   O30       1.0  0.39982  0.6557700000000001  0.22279  1.0000
  H   H43       1.0  0.3158200000000001  0.74018  0.20092000000000004  1.0000
  C   C49       1.0  0.7968200000000002  0.41391  0.83835  1.0000
  O   O31       1.0  0.9193000000000001  0.349  0.8182600000000001  1.0000
  O   O32       1.0  0.7569999999999999  0.37518  0.9015700000000001  1.0000
  H   H44       1.0  0.8391100000000002  0.29273  0.9260200000000001  1.0000
