data_image0
_chemical_formula_structural       O2CO2CO2CO2CO2CO2CCr3OCH2CH4C3H2C3H5C10H5C10H6C10H6C10H6C10H5O2CO2CO2CO2CO2CO2CCr3ONO2
_chemical_formula_sum              "O28 C70 Cr6 H41 N1"
_cell_length_a       10.88556
_cell_length_b       10.99917
_cell_length_c       18.86202
_cell_angle_alpha    90.54016
_cell_angle_beta     90.19543
_cell_angle_gamma    61.201060000000005

_space_group_name_H-M_alt    "P 1"
_space_group_IT_number       1

loop_
  _space_group_symop_operation_xyz
  'x, y, z'

loop_
  _atom_site_type_symbol
  _atom_site_label
  _atom_site_symmetry_multiplicity
  _atom_site_fract_x
  _atom_site_fract_y
  _atom_site_fract_z
  _atom_site_occupancy
  O   O1        1.0  0.50734  0.25569  0.5814300000000001  1.0000
  O   O2        1.0  0.28036  0.52738  0.57891  1.0000
  C   C1        1.0  0.24219999999999997  0.64292  0.61143  1.0000
  O   O3        1.0  0.2606  0.73961  0.5845800000000001  1.0000
  O   O4        1.0  0.5323700000000001  0.69505  0.57383  1.0000
  C   C2        1.0  0.65376  0.62124  0.60101  1.0000
  O   O5        1.0  0.74485  0.50343  0.57638  1.0000
  O   O6        1.0  0.6990800000000001  0.2765  0.57195  1.0000
  C   C3        1.0  0.62745  0.22942999999999997  0.60329  1.0000
  O   O7        1.0  0.49885999999999997  0.25652  0.41986  1.0000
  O   O8        1.0  0.27249  0.52815  0.42914  1.0000
  C   C4        1.0  0.21993  0.64824  0.40269  1.0000
  O   O9        1.0  0.2521099999999999  0.74044  0.42301  1.0000
  O   O10       1.0  0.5245100000000001  0.69582  0.4240500000000001  1.0000
  C   C5        1.0  0.6410100000000001  0.62283  0.39203  1.0000
  O   O11       1.0  0.73637  0.50426  0.41481  1.0000
  O   O12       1.0  0.69122  0.27727  0.42218  1.0000
  C   C6        1.0  0.57804  0.292  0.3878  1.0000
  Cr  Cr1       1.0  0.39293999999999996  0.3979500000000001  0.50223  1.0000
  Cr  Cr2       1.0  0.3984  0.7085  0.50126  1.0000
  Cr  Cr3       1.0  0.7086400000000002  0.39353  0.49646  1.0000
  O   O13       1.0  0.49999  0.49998999999999993  0.4999800000000001  1.0000
  C   C7        1.0  0.57361  0.80796  0.78228  1.0000
  H   H1        1.0  0.5837299999999997  0.9019200000000002  0.79472  1.0000
  H   H2        1.0  0.47638000000000014  0.82044  0.80781  1.0000
  C   C8        1.0  0.56405  0.79611  0.70122  1.0000
  H   H3        1.0  0.45608999999999994  0.82205  0.68649  1.0000
  H   H4        1.0  0.5868599999999998  0.87314  0.67474  1.0000
  H   H5        1.0  0.8485399999999998  0.74476  0.77591  1.0000
  H   H6        1.0  0.84008  0.69713  0.65763  1.0000
  C   C9        1.0  0.8321799999999998  0.65274  0.7697500000000003  1.0000
  C   C10       1.0  0.67421  0.55095  0.79948  1.0000
  C   C11       1.0  0.7003300000000001  0.67524  0.81183  1.0000
  H   H7        1.0  0.76678  0.45325  0.817  1.0000
  H   H8        1.0  0.5820999999999998  0.56408  0.8308600000000003  1.0000
  C   C12       1.0  0.6703899999999999  0.64742  0.6762800000000001  1.0000
  C   C13       1.0  0.8182599999999999  0.62634  0.69068  1.0000
  C   C14       1.0  0.6478100000000001  0.54003  0.72026  1.0000
  H   H9        1.0  0.5390499999999998  0.55762  0.71262  1.0000
  H   H10       1.0  0.72006  0.43237  0.7018900000000001  1.0000
  H   H11       1.0  0.9252899999999998  0.56286  0.79125  1.0000
  H   H12       1.0  0.8953099999999999  0.51822  0.6763200000000001  1.0000
  H   H13       1.0  0.44199  0.25243  0.70003  1.0000
  C   C15       1.0  0.69046  0.16286  0.8253000000000003  1.0000
  C   C16       1.0  0.80786  0.13937  0.7826  1.0000
  C   C17       1.0  0.7943599999999998  0.14153  0.7075  1.0000
  C   C18       1.0  0.54594  0.21725  0.72114  1.0000
  C   C19       1.0  0.55985  0.20936  0.79332  1.0000
  C   C20       1.0  0.9375  0.11443  0.81178  1.0000
  C   C21       1.0  0.054219999999999983  0.08024  0.76849  1.0000
  C   C22       1.0  0.04138  0.07276  0.69507  1.0000
  C   C23       1.0  0.9142099999999999  0.10086  0.66501  1.0000
  C   C24       1.0  0.66102  0.18434  0.67707  1.0000
  H   H14       1.0  0.94842  0.12796  0.8676300000000001  1.0000
  H   H15       1.0  0.468  0.23105000000000003  0.82423  1.0000
  H   H16       1.0  0.13052  0.04432  0.66052  1.0000
  H   H17       1.0  0.91218  0.08768  0.60826  1.0000
  H   H18       1.0  0.2650199999999999  0.81347  0.7046800000000002  1.0000
  C   C25       1.0  0.19881000000000001  0.65421  0.8385  1.0000
  C   C26       1.0  0.19827999999999998  0.54381  0.8000900000000001  1.0000
  C   C27       1.0  0.19207000000000002  0.54755  0.72464  1.0000
  C   C28       1.0  0.23972999999999994  0.74098  0.72955  1.0000
  C   C29       1.0  0.23538999999999993  0.7413100000000001  0.8029800000000001  1.0000
  C   C30       1.0  0.19826  0.43248999999999993  0.8355  1.0000
  C   C31       1.0  0.16671999999999995  0.34168  0.79958  1.0000
  C   C32       1.0  0.14911  0.34968  0.72646  1.0000
  C   C33       1.0  0.16284  0.45082  0.68895  1.0000
  C   C34       1.0  0.21259999999999998  0.64934  0.68861  1.0000
  H   H19       1.0  0.21978999999999996  0.41578000000000004  0.8916200000000001  1.0000
  H   H20       1.0  0.25541  0.81292  0.83293  1.0000
  H   H21       1.0  0.14661  0.27299999999999996  0.83078  1.0000
  H   H22       1.0  0.11952  0.28138  0.69877  1.0000
  H   H23       1.0  0.13960999999999996  0.45708  0.6331  1.0000
  H   H24       1.0  0.42707999999999996  0.77677  0.30100000000000005  1.0000
  C   C35       1.0  0.66871  0.65172  0.1694  1.0000
  C   C36       1.0  0.7854  0.56017  0.21214000000000002  1.0000
  C   C37       1.0  0.7824099999999999  0.58878  0.28481  1.0000
  C   C38       1.0  0.52999  0.72689  0.27664  1.0000
  C   C39       1.0  0.5393100000000001  0.72724  0.20247  1.0000
  C   C40       1.0  0.9050499999999999  0.44064000000000003  0.18582  1.0000
  C   C41       1.0  0.02573000000000001  0.37395  0.22647000000000003  1.0000
  C   C42       1.0  0.026549999999999997  0.4192100000000001  0.29528000000000004  1.0000
  C   C43       1.0  0.90816  0.5295  0.3234800000000001  1.0000
  C   C44       1.0  0.6524  0.66017  0.31854  1.0000
  H   H25       1.0  0.9056699999999998  0.39414  0.13497  1.0000
  H   H26       1.0  0.4465399999999999  0.78339  0.17050000000000004  1.0000
  H   H27       1.0  0.1173  0.2862  0.20451  1.0000
  H   H28       1.0  0.11682999999999999  0.36866  0.32832  1.0000
  H   H29       1.0  0.91289  0.56206  0.37735  1.0000
  H   H30       1.0  0.7285  0.32699  0.28863  1.0000
  C   C45       1.0  0.6545200000000001  0.12303999999999998  0.18138  1.0000
  C   C46       1.0  0.5493499999999999  0.11299000000000001  0.22155000000000002  1.0000
  C   C47       1.0  0.50705  0.18432  0.28639000000000003  1.0000
  C   C48       1.0  0.6777199999999998  0.26852  0.27032  1.0000
  C   C49       1.0  0.7093599999999998  0.20844000000000001  0.20394  1.0000
  C   C50       1.0  0.48086999999999996  0.03806  0.19750000000000006  1.0000
  C   C51       1.0  0.36602  0.04416  0.232  1.0000
  C   C52       1.0  0.32301  0.11393  0.29494000000000004  1.0000
  C   C53       1.0  0.38801  0.18642  0.32061000000000006  1.0000
  C   C54       1.0  0.58651  0.24864  0.31396  1.0000
  H   H31       1.0  0.51164  0.9742900000000001  0.15159000000000006  1.0000
  H   H32       1.0  0.78053  0.22581  0.1709  1.0000
  H   H33       1.0  0.30883999999999984  0.9953900000000001  0.20983  1.0000
  H   H34       1.0  0.23395999999999997  0.11778999999999999  0.3224  1.0000
  H   H35       1.0  0.33192999999999995  0.25052  0.36504  1.0000
  H   H36       1.0  0.2795500000000001  0.45043999999999995  0.3074  1.0000
  C   C55       1.0  0.12148999999999999  0.70151  0.18963  1.0000
  C   C56       1.0  0.08034000000000002  0.8201  0.23619  1.0000
  C   C57       1.0  0.07370000000000002  0.80051  0.3091000000000001  1.0000
  C   C58       1.0  0.21011000000000002  0.55243  0.28856  1.0000
  C   C59       1.0  0.18516  0.56888  0.21698000000000003  1.0000
  C   C60       1.0  0.05452000000000005  0.95461  0.21536000000000005  1.0000
  C   C61       1.0  0.008480000000000003  0.06367  0.26409  1.0000
  C   C62       1.0  0.97953  0.04612  0.33343  1.0000
  C   C63       1.0  0.008869999999999977  0.9154700000000001  0.35581  1.0000
  C   C64       1.0  0.15264999999999998  0.66655  0.3349200000000001  1.0000
  H   H37       1.0  0.07888999999999996  0.9792500000000001  0.1641  1.0000
  H   H38       1.0  0.22329999999999994  0.47831  0.18264  1.0000
  H   H39       1.0  0.99103  0.16367  0.24726000000000004  1.0000
  H   H40       1.0  0.94059  0.1323  0.37045  1.0000
  H   H41       1.0  0.9921099999999999  0.90213  0.41115  1.0000
  O   O14       1.0  0.08956999999999994  0.82545  0.9305900000000001  1.0000
  O   O15       1.0  0.8187  0.054259999999999996  0.9298600000000002  1.0000
  C   C65       1.0  0.70315  0.1033  0.8964  1.0000
  O   O16       1.0  0.60631  0.07701  0.91552  1.0000
  O   O17       1.0  0.6467299999999999  0.80654  0.91756  1.0000
  C   C66       1.0  0.72487  0.6891000000000002  0.8878700000000002  1.0000
  O   O18       1.0  0.8372899999999999  0.59324  0.9152400000000002  1.0000
  O   O19       1.0  0.06532000000000003  0.63531  0.93158  1.0000
  C   C67       1.0  0.12244  0.70349  0.90689  1.0000
  O   O20       1.0  0.06847  0.82862  0.09185  1.0000
  O   O21       1.0  0.79915  0.05720000000000001  0.07935000000000003  1.0000
  C   C68       1.0  0.6932899999999999  0.05868  0.11207  1.0000
  O   O22       1.0  0.58522  0.08018  0.07677  1.0000
  O   O23       1.0  0.62717  0.80948  0.06705  1.0000
  C   C69       1.0  0.6965099999999997  0.68624  0.09707  1.0000
  O   O24       1.0  0.8161999999999998  0.59641  0.0765  1.0000
  O   O25       1.0  0.045769999999999984  0.63824  0.08107  1.0000
  C   C70       1.0  0.08413  0.71765  0.11519000000000001  1.0000
  Cr  Cr4       1.0  0.9378799999999998  0.9383200000000002  0.007620000000000001  1.0000
  Cr  Cr5       1.0  0.62556  0.93722  0.99451  1.0000
  Cr  Cr6       1.0  0.93808  0.62501  0.00119  1.0000
  O   O26       1.0  0.83384  0.8335200000000001  0.00111  1.0000
  N   N1        1.0  0.18691000000000002  0.04996  0.799  1.0000
  O   O27       1.0  0.28792  0.04029  0.75868  1.0000
  O   O28       1.0  0.20474999999999996  0.04237  0.86751  1.0000
