data_image0
_chemical_formula_structural       C136Cr12H72N4O52
_chemical_formula_sum              "C136 Cr12 H72 N4 O52"
_cell_length_a       19.33249
_cell_length_b       11.00374
_cell_length_c       18.67996
_cell_angle_alpha    89.97557000000002
_cell_angle_beta     90.75258999999998
_cell_angle_gamma    90.03199

_space_group_name_H-M_alt    "P 1"
_space_group_IT_number       1

loop_
  _space_group_symop_operation_xyz
  'x, y, z'

loop_
  _atom_site_type_symbol
  _atom_site_label
  _atom_site_symmetry_multiplicity
  _atom_site_fract_x
  _atom_site_fract_y
  _atom_site_fract_z
  _atom_site_occupancy
  C   C1        1.0  0.77387  0.48240000000000005  0.63821  1.0000
  C   C2        1.0  0.16633  0.08297  0.5548  1.0000
  C   C3        1.0  0.52226  0.94982  0.95692  1.0000
  C   C4        1.0  0.012529999999999998  0.23038  0.9574499999999999  1.0000
  C   C5        1.0  0.01467  0.23068  0.03227  1.0000
  C   C6        1.0  0.51757  0.7306  0.9557799999999999  1.0000
  C   C7        1.0  0.52178  0.7302600000000001  0.030609999999999995  1.0000
  C   C8        1.0  0.9887699999999999  0.56703  0.03868  1.0000
  C   C9        1.0  0.9844599999999999  0.56967  0.95803  1.0000
  C   C10       1.0  0.4896999999999999  0.06627  0.038619999999999995  1.0000
  C   C11       1.0  0.48486999999999997  0.06982  0.95794  1.0000
  C   C12       1.0  0.76027  0.53326  0.8515499999999999  1.0000
  C   C13       1.0  0.33366  0.58294  0.44523  1.0000
  C   C14       1.0  0.23759999999999998  0.52675  0.14577  1.0000
  C   C15       1.0  0.26156  0.029150000000000002  0.85329  1.0000
  C   C16       1.0  0.73732  0.025790000000000004  0.14542  1.0000
  C   C17       1.0  0.77236  0.12401  0.852  1.0000
  C   C18       1.0  0.22734999999999997  0.1262  0.14729  1.0000
  C   C19       1.0  0.27258  0.62441  0.8521399999999999  1.0000
  C   C20       1.0  0.7252199999999999  0.63147  0.14501  1.0000
  C   C21       1.0  0.9715  0.34707  0.85244  1.0000
  C   C22       1.0  0.03209  0.34697  0.14498  1.0000
  C   C23       1.0  0.47175999999999996  0.8471  0.8522299999999999  1.0000
  C   C24       1.0  0.72584  0.43562  0.51778  1.0000
  C   C25       1.0  0.53338  0.8469700000000001  0.14426  1.0000
  C   C26       1.0  0.7348  0.011249999999999998  0.43706000000000006  1.0000
  C   C27       1.0  0.22956999999999997  0.11544000000000001  0.58823  1.0000
  C   C28       1.0  0.27043999999999996  0.61537  0.41176999999999997  1.0000
  C   C29       1.0  0.7652299999999997  0.51118  0.56295  1.0000
  C   C30       1.0  0.69999  0.10822  0.46627  1.0000
  C   C31       1.0  0.26556  0.20768999999999999  0.55497  1.0000
  C   C32       1.0  0.23450000000000001  0.70762  0.44498  1.0000
  C   C33       1.0  0.79999  0.60829  0.53373  1.0000
  C   C34       1.0  0.70817  0.13603  0.53825  1.0000
  C   C35       1.0  0.62415  0.11288  0.47120999999999996  1.0000
  C   C36       1.0  0.25189  0.23987  0.48337  1.0000
  C   C37       1.0  0.24816999999999997  0.73982  0.5165499999999998  1.0000
  C   C38       1.0  0.79178  0.63612  0.46174  1.0000
  C   C39       1.0  0.81153  0.87529  0.60475  1.0000
  C   C40       1.0  0.10463  0.02884  0.4455799999999999  1.0000
  C   C41       1.0  0.39536  0.52892  0.55447  1.0000
  C   C42       1.0  0.6883699999999999  0.37527  0.39534  1.0000
  C   C43       1.0  0.33993  0.21384  0.54656  1.0000
  C   C44       1.0  0.16012999999999997  0.71388  0.45336  1.0000
  C   C45       1.0  0.87583  0.61326  0.52878  1.0000
  C   C46       1.0  0.63315  0.14232  0.54927  1.0000
  C   C47       1.0  0.32618  0.25212  0.46997  1.0000
  C   C48       1.0  0.1739  0.75221  0.52993  1.0000
  C   C49       1.0  0.24210999999999994  0.5384  0.35185  1.0000
  C   C50       1.0  0.8667899999999998  0.64265  0.45069999999999993  1.0000
  C   C51       1.0  0.7499799999999998  0.0668  0.58206  1.0000
  C   C52       1.0  0.20478999999999994  0.17313  0.44165  1.0000
  C   C53       1.0  0.2952  0.67307  0.5583399999999998  1.0000
  C   C54       1.0  0.7499799999999998  0.5668  0.41796  1.0000
  C   C55       1.0  0.00266  0.35022  0.42747  1.0000
  C   C56       1.0  0.007219999999999998  0.32957  0.57797  1.0000
  C   C57       1.0  0.4928  0.82944  0.42206  1.0000
  C   C58       1.0  0.49733999999999995  0.8503  0.57254  1.0000
  C   C59       1.0  0.9478  0.15065  0.41912999999999995  1.0000
  C   C60       1.0  0.2578999999999999  0.03843  0.64815  1.0000
  C   C61       1.0  0.9778099999999998  0.10990000000000001  0.5633599999999999  1.0000
  C   C62       1.0  0.52237  0.60992  0.43687  1.0000
  C   C63       1.0  0.5522999999999998  0.65091  0.58108  1.0000
  C   C64       1.0  0.92898  0.04122  0.45089999999999997  1.0000
  C   C65       1.0  0.94716  0.01868  0.52198  1.0000
  C   C66       1.0  0.55303  0.51883  0.47833999999999993  1.0000
  C   C67       1.0  0.5711599999999998  0.5415  0.54942  1.0000
  C   C68       1.0  0.9895299999999998  0.22703  0.53453  1.0000
  C   C69       1.0  0.98107  0.24209  0.45975  1.0000
  C   C70       1.0  0.5190099999999997  0.74221  0.54036  1.0000
  C   C71       1.0  0.72615  0.98247  0.3618  1.0000
  C   C72       1.0  0.51057  0.72703  0.46559  1.0000
  C   C73       1.0  0.029049999999999992  0.4379100000000001  0.54514  1.0000
  C   C74       1.0  0.016779999999999993  0.45417  0.47141999999999995  1.0000
  C   C75       1.0  0.48316  0.95412  0.52851  1.0000
  C   C76       1.0  0.4709  0.93773  0.4548  1.0000
  C   C77       1.0  0.77231  0.12104  0.64854  1.0000
  C   C78       1.0  0.20628999999999995  0.17496  0.36089  1.0000
  C   C79       1.0  0.2937  0.67493  0.6391  1.0000
  C   C80       1.0  0.7276899999999998  0.62101  0.35146  1.0000
  C   C81       1.0  0.05016  0.53861  0.58705  1.0000
  C   C82       1.0  0.7794899999999998  0.95999  0.55558  1.0000
  C   C83       1.0  0.01277  0.57614  0.44593  1.0000
  C   C84       1.0  0.48714  0.07613  0.55389  1.0000
  C   C85       1.0  0.44973999999999986  0.03832  0.4128  1.0000
  C   C86       1.0  0.035629999999999995  0.6556  0.56376  1.0000
  C   C87       1.0  0.0182  0.67475  0.49265  1.0000
  C   C88       1.0  0.4817499999999999  0.17466  0.50706  1.0000
  C   C89       1.0  0.46430999999999994  0.15537  0.43597  1.0000
  C   C90       1.0  0.74172  0.050309999999999994  0.06915  1.0000
  C   C91       1.0  0.25537999999999994  0.05811  0.92864  1.0000
  C   C92       1.0  0.24271999999999994  0.55324  0.06985  1.0000
  C   C93       1.0  0.15633  0.1023  0.4808299999999999  1.0000
  C   C94       1.0  0.7452099999999999  0.58998  0.9200000000000002  1.0000
  C   C95       1.0  0.7932  0.99017  0.03153999999999999  1.0000
  C   C96       1.0  0.2162  0.9787400000000002  0.9702599999999999  1.0000
  C   C97       1.0  0.29555  0.49596000000000007  0.0327  1.0000
  C   C98       1.0  0.6851899999999999  0.5552  0.9561699999999999  1.0000
  C   C99       1.0  0.7979  0.99973  0.9586599999999998  1.0000
  C   C100      1.0  0.21374999999999997  0.98885  0.04338  1.0000
  C   C101      1.0  0.30043  0.50518  0.95992  1.0000
  C   C102      1.0  0.6814  0.56571  0.02905  1.0000
  C   C103      1.0  0.6911999999999999  0.11240000000000001  0.9547399999999999  1.0000
  C   C104      1.0  0.34365  0.60228  0.5192  1.0000
  C   C105      1.0  0.29735999999999996  0.15149  0.03824  1.0000
  C   C106      1.0  0.19187  0.61211  0.95501  1.0000
  C   C107      1.0  0.79152  0.66691  0.03267  1.0000
  C   C108      1.0  0.68701  0.10317  0.029599999999999998  1.0000
  C   C109      1.0  0.2998799999999999  0.13989  0.9636599999999999  1.0000
  C   C110      1.0  0.18738  0.60307  0.029829999999999995  1.0000
  C   C111      1.0  0.79551  0.65725  0.95788  1.0000
  C   C112      1.0  0.8695699999999998  0.9919500000000001  0.04333  1.0000
  C   C113      1.0  0.14151999999999998  0.94582  0.9636699999999999  1.0000
  C   C114      1.0  0.3718399999999999  0.50159  0.04486  1.0000
  C   C115      1.0  0.72047  0.45994  0.44447999999999993  1.0000
  C   C116      1.0  0.64657  0.43681  0.9575699999999999  1.0000
  C   C117      1.0  0.8753699999999999  0.00294  0.96306  1.0000
  C   C118      1.0  0.13900999999999997  0.9529699999999999  0.04439  1.0000
  C   C119      1.0  0.37781999999999993  0.51269  0.9645499999999999  1.0000
  C   C120      1.0  0.6427799999999999  0.44959  0.03789  1.0000
  C   C121      1.0  0.75097  0.07157  0.9198200000000001  1.0000
  C   C122      1.0  0.24968  0.08218  0.07809  1.0000
  C   C123      1.0  0.25224  0.57351  0.9205299999999998  1.0000
  C   C124      1.0  0.73649  0.61144  0.0693  1.0000
  C   C125      1.0  0.97276  0.34407  0.64811  1.0000
  C   C126      1.0  0.7741499999999999  0.93572  0.4822699999999999  1.0000
  C   C127      1.0  0.02931  0.34816  0.35355  1.0000
  C   C128      1.0  0.47069  0.84822  0.64646  1.0000
  C   C129      1.0  0.52725  0.84401  0.35191  1.0000
  C   C130      1.0  0.01619  0.34156  0.0695  1.0000
  C   C131      1.0  0.00783  0.34115  0.92035  1.0000
  C   C132      1.0  0.5199299999999999  0.8409800000000001  0.06829  1.0000
  C   C133      1.0  0.50948  0.8416  0.91941  1.0000
  C   C134      1.0  0.024999999999999994  0.44841  0.03078  1.0000
  C   C135      1.0  0.021269999999999997  0.4492  0.9577299999999999  1.0000
  C   C136      1.0  0.52659  0.94852  0.029869999999999997  1.0000
  Cr  Cr1       1.0  0.88586  0.49168  0.74963  1.0000
  Cr  Cr2       1.0  0.11242999999999997  0.17931  0.24985  1.0000
  Cr  Cr3       1.0  0.38757  0.67931  0.75015  1.0000
  Cr  Cr4       1.0  0.61243  0.67931  0.24985  1.0000
  Cr  Cr5       1.0  0.11413999999999999  0.49168  0.25037  1.0000
  Cr  Cr6       1.0  0.3858599999999999  0.99168  0.74963  1.0000
  Cr  Cr7       1.0  0.6141399999999998  0.99168  0.25037  1.0000
  Cr  Cr8       1.0  0.73049  0.33297  0.74872  1.0000
  Cr  Cr9       1.0  0.26951  0.33297  0.25128  1.0000
  Cr  Cr10      1.0  0.23048999999999997  0.83297  0.74872  1.0000
  Cr  Cr11      1.0  0.76951  0.83297  0.25128  1.0000
  Cr  Cr12      1.0  0.8875699999999997  0.17931  0.75015  1.0000
  H   H1        1.0  0.04169  0.73208  0.59977  1.0000
  H   H2        1.0  0.33424  0.19773  0.9334899999999999  1.0000
  H   H3        1.0  0.14214999999999997  0.63771  0.05623999999999999  1.0000
  H   H4        1.0  0.8399799999999998  0.69412  0.93087  1.0000
  H   H5        1.0  0.8899099999999999  0.90455  0.06456999999999999  1.0000
  H   H6        1.0  0.13311  0.85311  0.94262  1.0000
  H   H7        1.0  0.39326999999999995  0.4149900000000001  0.06622  1.0000
  H   H8        1.0  0.67929  0.35923  0.9414799999999999  1.0000
  H   H9        1.0  0.8874  0.07433  0.07271  1.0000
  H   H10       1.0  0.11058999999999998  0.01756  0.9363  1.0000
  H   H11       1.0  0.38837999999999995  0.58483  0.07421  1.0000
  H   H12       1.0  0.009359999999999999  0.76614  0.4733399999999999  1.0000
  H   H13       1.0  0.5952399999999999  0.44273  0.9302699999999999  1.0000
  H   H14       1.0  0.89621  0.09217  0.94661  1.0000
  H   H15       1.0  0.1044  0.0258  0.06307999999999998  1.0000
  H   H16       1.0  0.39732  0.60296  0.9479299999999999  1.0000
  H   H17       1.0  0.5892899999999999  0.46343  0.05719  1.0000
  H   H18       1.0  0.8994899999999999  0.92231  0.9376699999999999  1.0000
  H   H19       1.0  0.13112  0.86326  0.07036  1.0000
  H   H20       1.0  0.4034099999999999  0.43322  0.93944  1.0000
  H   H21       1.0  0.6732499999999999  0.37965000000000004  0.06752  1.0000
  H   H22       1.0  0.00725  0.14484  0.92943  1.0000
  H   H23       1.0  0.49058  0.2661  0.52628  1.0000
  H   H24       1.0  0.0123  0.14549  0.06086  1.0000
  H   H25       1.0  0.51348  0.64495  0.92754  1.0000
  H   H26       1.0  0.5237  0.64442  0.058739999999999994  1.0000
  H   H27       1.0  0.022449999999999998  0.63935  0.06151  1.0000
  H   H28       1.0  0.9302899999999997  0.56375  0.9383999999999999  1.0000
  H   H29       1.0  0.52308  0.13893  0.06153999999999999  1.0000
  H   H30       1.0  0.43063999999999997  0.06396  0.9384799999999999  1.0000
  H   H31       1.0  0.93754  0.55756  0.06452  1.0000
  H   H32       1.0  0.0158  0.64351  0.9339500000000001  1.0000
  H   H33       1.0  0.43874  0.05531  0.06479  1.0000
  H   H34       1.0  0.45826  0.23178  0.39987  1.0000
  H   H35       1.0  0.5158399999999999  0.14431  0.9340400000000001  1.0000
  H   H36       1.0  0.80021  0.8597900000000002  0.4600099999999999  1.0000
  H   H37       1.0  0.12977  0.02599  0.5826899999999999  1.0000
  H   H38       1.0  0.37022  0.52605  0.41736  1.0000
  H   H39       1.0  0.6997599999999999  0.35966  0.54009  1.0000
  H   H40       1.0  0.13917  0.62082  0.44854  1.0000
  H   H41       1.0  0.89917  0.52289  0.53903  1.0000
  H   H42       1.0  0.60087  0.02242  0.461  1.0000
  H   H43       1.0  0.3608  0.12075  0.55143  1.0000
  H   H44       1.0  0.60144  0.18814  0.43978  1.0000
  H   H45       1.0  0.6509  0.15999  0.92543  1.0000
  H   H46       1.0  0.36312  0.28338  0.58198  1.0000
  H   H47       1.0  0.13703  0.7834400000000001  0.41787  1.0000
  H   H48       1.0  0.8984999999999999  0.68862  0.56015  1.0000
  H   H49       1.0  0.6147  0.23415  0.56432  1.0000
  H   H50       1.0  0.34182  0.34589  0.45848  1.0000
  H   H51       1.0  0.15837999999999997  0.84603  0.54133  1.0000
  H   H52       1.0  0.8852099999999999  0.73453  0.4355899999999999  1.0000
  H   H53       1.0  0.6167099999999999  0.06817  0.5857499999999999  1.0000
  H   H54       1.0  0.34042  0.18421000000000004  0.42947  1.0000
  H   H55       1.0  0.15956  0.68439  0.57049  1.0000
  H   H56       1.0  0.32803999999999994  0.22216000000000002  0.06342  1.0000
  H   H57       1.0  0.8832299999999997  0.56854  0.41425  1.0000
  H   H58       1.0  0.9052  0.97054  0.41878999999999994  1.0000
  H   H59       1.0  0.9383799999999998  0.9298  0.54483  1.0000
  H   H60       1.0  0.56185  0.42996  0.45557000000000003  1.0000
  H   H61       1.0  0.59495  0.47092  0.58159  1.0000
  H   H62       1.0  0.9358  0.16378  0.36286  1.0000
  H   H63       1.0  0.99363  0.08655  0.6173299999999999  1.0000
  H   H64       1.0  0.50658  0.58645  0.38291  1.0000
  H   H65       1.0  0.56427  0.66414  0.63733  1.0000
  H   H66       1.0  0.9966999999999999  0.60007  0.39231999999999995  1.0000
  H   H67       1.0  0.15082999999999996  0.65607  0.925  1.0000
  H   H68       1.0  0.0687  0.52682  0.64162  1.0000
  H   H69       1.0  0.43121  0.02642  0.35825  1.0000
  H   H70       1.0  0.50318  0.10016  0.60748  1.0000
  H   H71       1.0  0.8322  0.71388  0.061709999999999994  1.0000
  H   H72       1.0  0.6428599999999998  0.14111  0.056459999999999996  1.0000
  N   N1        1.0  0.83624  0.81104  0.6469  1.0000
  N   N2        1.0  0.06496999999999999  0.96845  0.41541  1.0000
  N   N3        1.0  0.43504  0.46861  0.58464  1.0000
  N   N4        1.0  0.66362  0.31106  0.35319  1.0000
  O   O1        1.0  0.95702  0.45164  0.6699199999999998  1.0000
  O   O2        1.0  0.16803999999999997  0.09329000000000001  0.16987  1.0000
  O   O3        1.0  0.33196  0.59329  0.83013  1.0000
  O   O4        1.0  0.66804  0.59329  0.16987  1.0000
  O   O5        1.0  0.9456  0.25058  0.82486  1.0000
  O   O6        1.0  0.0544  0.25058  0.17514  1.0000
  O   O7        1.0  0.4456  0.75058  0.82486  1.0000
  O   O8        1.0  0.5544  0.75058  0.17514  1.0000
  O   O9        1.0  0.83464  0.33465  0.7494999999999999  1.0000
  O   O10       1.0  0.16536  0.33465  0.2505  1.0000
  O   O11       1.0  0.33464  0.83465  0.7494999999999999  1.0000
  O   O12       1.0  0.04298  0.45164  0.33008  1.0000
  O   O13       1.0  0.66536  0.83465  0.2505  1.0000
  O   O14       1.0  0.82145  0.54344  0.6746099999999999  1.0000
  O   O15       1.0  0.17855  0.54344  0.32539  1.0000
  O   O16       1.0  0.32145  0.04344  0.6746099999999999  1.0000
  O   O17       1.0  0.6785499999999999  0.04344  0.32539  1.0000
  O   O18       1.0  0.71532  0.45865000000000006  0.6681  1.0000
  O   O19       1.0  0.28468  0.45865000000000006  0.3319  1.0000
  O   O20       1.0  0.21531999999999998  0.95865  0.6681  1.0000
  O   O21       1.0  0.78468  0.95865  0.3319  1.0000
  O   O22       1.0  0.7371699999999999  0.20959  0.67453  1.0000
  O   O23       1.0  0.45701999999999987  0.95164  0.6699199999999998  1.0000
  O   O24       1.0  0.26283  0.20959  0.3254699999999999  1.0000
  O   O25       1.0  0.23716999999999996  0.70959  0.67453  1.0000
  O   O26       1.0  0.76283  0.70959  0.3254699999999999  1.0000
  O   O27       1.0  0.83271  0.09274  0.66958  1.0000
  O   O28       1.0  0.16728999999999997  0.09274  0.33042  1.0000
  O   O29       1.0  0.3327099999999999  0.59274  0.66958  1.0000
  O   O30       1.0  0.6672899999999998  0.59274  0.33042  1.0000
  O   O31       1.0  0.94629  0.25006  0.6760399999999999  1.0000
  O   O32       1.0  0.05371  0.25006  0.32396  1.0000
  O   O33       1.0  0.44629  0.75006  0.6760399999999999  1.0000
  O   O34       1.0  0.54298  0.95164  0.33008  1.0000
  O   O35       1.0  0.55371  0.75006  0.32396  1.0000
  O   O36       1.0  0.95627  0.4522  0.83047  1.0000
  O   O37       1.0  0.04373  0.4522  0.16953  1.0000
  O   O38       1.0  0.45627  0.9522  0.83047  1.0000
  O   O39       1.0  0.54373  0.9522  0.16953  1.0000
  O   O40       1.0  0.82076  0.54395  0.82344  1.0000
  O   O41       1.0  0.17923999999999995  0.54395  0.17656  1.0000
  O   O42       1.0  0.32075999999999993  0.04395  0.82344  1.0000
  O   O43       1.0  0.6792399999999998  0.04395  0.17656  1.0000
  O   O44       1.0  0.7145699999999998  0.45921000000000006  0.82864  1.0000
  O   O45       1.0  0.7364699999999998  0.2101  0.8233599999999998  1.0000
  O   O46       1.0  0.28542999999999996  0.45921000000000006  0.17136  1.0000
  O   O47       1.0  0.21456999999999998  0.95921  0.82864  1.0000
  O   O48       1.0  0.78543  0.95921  0.17136  1.0000
  O   O49       1.0  0.26353  0.2101  0.17664  1.0000
  O   O50       1.0  0.23647  0.7101  0.8233599999999998  1.0000
  O   O51       1.0  0.76353  0.7101  0.17664  1.0000
  O   O52       1.0  0.8319599999999999  0.09329000000000001  0.83013  1.0000
