data_image0
_chemical_formula_structural       O4C2O4C2Zn2C4O4N2C22H4C10H4C2N2OCH3OCH3OCH3OCH3OCH3OCH3OCH3OCH3
_chemical_formula_sum              "O20 C50 Zn2 N4 H32"
_cell_length_a       27.79696
_cell_length_b       8.93997
_cell_length_c       8.07302
_cell_angle_alpha    90.00756
_cell_angle_beta     90.00718
_cell_angle_gamma    89.99823999999998

_symmetry_space_group_name_H-M    'P 1'
_symmetry_Int_Tables_number       1

loop_
  _symmetry_equiv_pos_as_xyz
  'x,y,z'

loop_
  _atom_site_type_symbol
  _atom_site_label
  _atom_site_symmetry_multiplicity
  _atom_site_fract_x
  _atom_site_fract_y
  _atom_site_fract_z
  _atom_site_occupancy
  O   O1        1.0  0.5  0.28535  0.6368500000000002  1.0000
  O   O2        1.0  0.5  0.71465  0.3631500000000001  1.0000
  O   O3        1.0  0.5  0.71465  0.6368500000000002  1.0000
  O   O4        1.0  0.5  0.28535  0.3631500000000001  1.0000
  C   C1        1.0  0.5  0.21785  0.49999  1.0000
  C   C2        1.0  0.5  0.78215  0.50001  1.0000
  O   O5        1.0  0.42876  0.5  0.6368600000000001  1.0000
  O   O6        1.0  0.57124  0.5  0.36314  1.0000
  O   O7        1.0  0.57124  0.5  0.6368600000000001  1.0000
  O   O8        1.0  0.42876  0.5  0.36314  1.0000
  C   C3        1.0  0.40554  0.50008  0.49999  1.0000
  C   C4        1.0  0.59446  0.49996  0.50001  1.0000
  Zn  Zn1       1.0  0.5  0.5  0.6827800000000003  1.0000
  Zn  Zn2       1.0  0.5  0.5  0.3172200000000001  1.0000
  C   C5        1.0  0.17691  0.37018  0.53419  1.0000
  C   C6        1.0  0.8231  0.62974  0.5345300000000002  1.0000
  C   C7        1.0  0.17686  0.63027  0.4653600000000001  1.0000
  C   C8        1.0  0.8231299999999998  0.36964  0.46568  1.0000
  O   O9        1.0  0.20248  0.24480999999999997  0.56454  1.0000
  O   O10       1.0  0.79753  0.75512  0.56493  1.0000
  O   O11       1.0  0.20239  0.75572  0.43497  1.0000
  O   O12       1.0  0.79759  0.24419000000000002  0.43531  1.0000
  N   N1        1.0  0.20058  0.50027  0.49978000000000006  1.0000
  N   N2        1.0  0.7994199999999998  0.49966000000000005  0.50012  1.0000
  C   C9        1.0  0.2767  0.5167  0.35113  1.0000
  C   C10       1.0  0.7233099999999999  0.48361  0.35133  1.0000
  C   C11       1.0  0.27669  0.48408000000000007  0.64864  1.0000
  C   C12       1.0  0.7233099999999999  0.51569  0.64887  1.0000
  C   C13       1.0  0.32682999999999995  0.52065  0.3499100000000001  1.0000
  C   C14       1.0  0.67317  0.47968000000000005  0.3500000000000001  1.0000
  C   C15       1.0  0.32682  0.48008000000000006  0.6500100000000001  1.0000
  C   C16       1.0  0.67317  0.51983  0.65015  1.0000
  C   C17       1.0  0.25186  0.50035  0.49984999999999996  1.0000
  C   C18       1.0  0.74814  0.49962  0.50011  1.0000
  C   C19       1.0  0.10115  0.50011  0.49981  1.0000
  C   C20       1.0  0.89884  0.4998  0.50004  1.0000
  C   C21       1.0  0.12645  0.36669  0.53521  1.0000
  C   C22       1.0  0.87356  0.63323  0.5355  1.0000
  C   C23       1.0  0.12639  0.63361  0.4643800000000001  1.0000
  C   C24       1.0  0.8736  0.36629  0.46465  1.0000
  C   C25       1.0  0.10057999999999999  0.23489  0.5719900000000002  1.0000
  C   C26       1.0  0.8994399999999999  0.76503  0.57222  1.0000
  C   C27       1.0  0.10047  0.76533  0.4276600000000001  1.0000
  C   C28       1.0  0.8995099999999999  0.23456  0.42789  1.0000
  C   C29       1.0  0.35253  0.50028  0.4999700000000001  1.0000
  C   C30       1.0  0.64748  0.49982  0.5000500000000002  1.0000
  H   H1        1.0  0.25691  0.47345  0.7636800000000002  1.0000
  H   H2        1.0  0.74308  0.5261  0.7639500000000002  1.0000
  H   H3        1.0  0.25696  0.52758  0.23603  1.0000
  H   H4        1.0  0.74307  0.47308  0.23625000000000004  1.0000
  C   C31       1.0  0.97488  0.36326  0.4882400000000001  1.0000
  C   C32       1.0  0.02512  0.63663  0.4881900000000001  1.0000
  C   C33       1.0  0.9748299999999998  0.63656  0.51167  1.0000
  C   C34       1.0  0.02517  0.36334  0.51159  1.0000
  C   C35       1.0  0.94957  0.49987  0.49998000000000004  1.0000
  C   C36       1.0  0.05043  0.50003  0.49984999999999996  1.0000
  C   C37       1.0  0.94934  0.23205000000000003  0.44962000000000013  1.0000
  C   C38       1.0  0.05065  0.76784  0.4495300000000001  1.0000
  C   C39       1.0  0.94926  0.76769  0.5503600000000002  1.0000
  C   C40       1.0  0.05075  0.23222  0.55022  1.0000
  H   H5        1.0  0.96771  0.12757  0.42679  1.0000
  H   H6        1.0  0.03227  0.87232  0.42679  1.0000
  H   H7        1.0  0.96761  0.87222  0.5731800000000002  1.0000
  H   H8        1.0  0.03241  0.12769  0.57306  1.0000
  C   C41       1.0  0.5  0.06515  0.49999  1.0000
  C   C42       1.0  0.5  0.93485  0.50001  1.0000
  N   N3        1.0  0.5  0.5  0.07364000000000002  1.0000
  N   N4        1.0  0.5  0.5  0.9263600000000002  1.0000
  O   O13       1.0  0.35047  0.46532000000000007  0.79986  1.0000
  C   C43       1.0  0.34961  0.31345  0.84708  1.0000
  H   H9        1.0  0.366  0.24065000000000003  0.75029  1.0000
  H   H10       1.0  0.31238  0.2758  0.87567  1.0000
  H   H11       1.0  0.37132  0.30036  0.96147  1.0000
  O   O14       1.0  0.6495  0.53457  0.79991  1.0000
  C   C44       1.0  0.65064  0.68622  0.8478400000000003  1.0000
  H   H12       1.0  0.6346799999999999  0.75982  0.75099  1.0000
  H   H13       1.0  0.6879  0.72274  0.87766  1.0000
  H   H14       1.0  0.62869  0.69948  0.96166  1.0000
  O   O15       1.0  0.35044  0.53593  0.20009  1.0000
  C   C45       1.0  0.3504099999999999  0.68848  0.15540000000000007  1.0000
  H   H15       1.0  0.37163  0.70166  0.03994000000000002  1.0000
  H   H16       1.0  0.36779  0.75878  0.25248  1.0000
  H   H17       1.0  0.3133  0.72914  0.12967000000000006  1.0000
  O   O16       1.0  0.6495199999999998  0.46497  0.20019  1.0000
  C   C46       1.0  0.65022  0.31305  0.15322  1.0000
  H   H18       1.0  0.62856  0.30006  0.03868  1.0000
  H   H19       1.0  0.63367  0.24061  0.24998  1.0000
  H   H20       1.0  0.68743  0.27487  0.12501  1.0000
  O   O17       1.0  0.12409999999999999  0.10548  0.6193100000000002  1.0000
  C   C47       1.0  0.11606  0.08068  0.7895600000000003  1.0000
  H   H21       1.0  0.07779  0.05239  0.81461  1.0000
  H   H22       1.0  0.12739  0.1787  0.86531  1.0000
  H   H23       1.0  0.13811  0.9836300000000001  0.82907  1.0000
  O   O18       1.0  0.87593  0.89446  0.61955  1.0000
  C   C48       1.0  0.88399  0.91928  0.7898  1.0000
  H   H24       1.0  0.92227  0.9474600000000001  0.8148800000000003  1.0000
  H   H25       1.0  0.87263  0.8213  0.86554  1.0000
  H   H26       1.0  0.86196  0.01639  0.8293100000000002  1.0000
  O   O19       1.0  0.12394999999999998  0.89483  0.38042  1.0000
  C   C49       1.0  0.11577  0.9199800000000001  0.21031  1.0000
  H   H27       1.0  0.12702  0.82209  0.13421  1.0000
  H   H28       1.0  0.13781  0.01707  0.17086  1.0000
  H   H29       1.0  0.07748  0.9484100000000001  0.18566000000000005  1.0000
  O   O20       1.0  0.87603  0.10505  0.38065  1.0000
  C   C50       1.0  0.88407  0.08016  0.21041  1.0000
  H   H30       1.0  0.87273  0.17813  0.13461  1.0000
  H   H31       1.0  0.86201  0.98308  0.17093  1.0000
  H   H32       1.0  0.92234  0.05185  0.18537  1.0000
