data_image0
_chemical_formula_structural       O12C4O4C4O4V4C36H16C4NO2NO2NO2NO2
_chemical_formula_sum              "O28 C48 V4 H16 N4"
_cell_length_a       7.21941
_cell_length_b       12.16565
_cell_length_c       21.27517
_cell_angle_alpha    90.00005
_cell_angle_beta     90.25981
_cell_angle_gamma    89.99943

_space_group_name_H-M_alt    "P 1"
_space_group_IT_number       1

loop_
  _space_group_symop_operation_xyz
  'x, y, z'

loop_
  _atom_site_type_symbol
  _atom_site_label
  _atom_site_symmetry_multiplicity
  _atom_site_fract_x
  _atom_site_fract_y
  _atom_site_fract_z
  _atom_site_occupancy
  O   O1        1.0  0.3544599999999999  0.15232  0.59572  1.0000
  O   O2        1.0  0.6455399999999998  0.8476800000000001  0.40428  1.0000
  O   O3        1.0  0.14554  0.6523200000000001  0.40428  1.0000
  O   O4        1.0  0.85446  0.34768  0.59572  1.0000
  O   O5        1.0  0.68367  0.14009000000000002  0.72729  1.0000
  O   O6        1.0  0.31633  0.8599100000000001  0.27271  1.0000
  O   O7        1.0  0.81633  0.6400900000000002  0.27271  1.0000
  O   O8        1.0  0.18367  0.35991  0.72729  1.0000
  O   O9        1.0  0.8540099999999999  0.3493400000000001  0.72775  1.0000
  O   O10       1.0  0.14598999999999998  0.65066  0.27225  1.0000
  O   O11       1.0  0.6459899999999997  0.84934  0.27225  1.0000
  O   O12       1.0  0.3540099999999999  0.15066000000000002  0.72775  1.0000
  C   C1        1.0  0.51592  0.11148  0.74659  1.0000
  C   C2        1.0  0.4840899999999999  0.8885100000000002  0.25341  1.0000
  C   C3        1.0  0.98408  0.61149  0.25341  1.0000
  C   C4        1.0  0.01591  0.3885000000000001  0.74659  1.0000
  O   O13       1.0  0.68417  0.13942000000000002  0.59619  1.0000
  O   O14       1.0  0.31582999999999994  0.8605800000000002  0.40381  1.0000
  O   O15       1.0  0.8158299999999998  0.63942  0.40381  1.0000
  O   O16       1.0  0.18417  0.36058000000000007  0.59619  1.0000
  C   C5        1.0  0.51532  0.11331000000000002  0.57434  1.0000
  C   C6        1.0  0.4846799999999999  0.8867  0.42565  1.0000
  C   C7        1.0  0.98468  0.6133100000000001  0.42566  1.0000
  C   C8        1.0  0.015319999999999997  0.38670000000000004  0.57435  1.0000
  O   O17       1.0  0.52073  0.31948  0.66173  1.0000
  O   O18       1.0  0.47927  0.6805200000000001  0.33827  1.0000
  O   O19       1.0  0.97927  0.81948  0.33827  1.0000
  O   O20       1.0  0.02073  0.18052000000000007  0.66173  1.0000
  V   V1        1.0  0.79556  0.23809000000000002  0.66173  1.0000
  V   V2        1.0  0.20443999999999996  0.76191  0.33827  1.0000
  V   V3        1.0  0.70444  0.7380900000000002  0.33827  1.0000
  V   V4        1.0  0.2955599999999999  0.26191000000000003  0.66173  1.0000
  C   C9        1.0  0.008059999999999996  0.4694600000000001  0.79733  1.0000
  C   C10       1.0  0.9918  0.53051  0.20267999999999997  1.0000
  C   C11       1.0  0.4919099999999999  0.9694600000000002  0.20267  1.0000
  C   C12       1.0  0.50823  0.030500000000000006  0.7973200000000001  1.0000
  C   C13       1.0  0.94184  0.6511300000000001  0.8374700000000002  1.0000
  C   C14       1.0  0.05636  0.34862  0.16254  1.0000
  C   C15       1.0  0.55757  0.1512  0.16253  1.0000
  C   C16       1.0  0.44431  0.84854  0.8374599999999999  1.0000
  C   C17       1.0  0.96636  0.5810400000000001  0.78598  1.0000
  C   C18       1.0  0.03251  0.41878000000000004  0.21405  1.0000
  C   C19       1.0  0.53325  0.08109  0.21402  1.0000
  C   C20       1.0  0.46793  0.91872  0.78595  1.0000
  C   C21       1.0  0.026679999999999992  0.4304900000000001  0.85882  1.0000
  C   C22       1.0  0.97339  0.5694900000000002  0.14119  1.0000
  C   C23       1.0  0.47349  0.9304600000000001  0.14118  1.0000
  C   C24       1.0  0.52643  0.06952  0.8588100000000001  1.0000
  C   C25       1.0  0.0013100000000000004  0.50016  0.91118  1.0000
  C   C26       1.0  0.99768  0.49968  0.08884  1.0000
  C   C27       1.0  0.49869  0.00016000000000000004  0.08882  1.0000
  C   C28       1.0  0.50237  0.9996800000000002  0.91116  1.0000
  C   C29       1.0  0.95798  0.6119  0.8992400000000002  1.0000
  C   C30       1.0  0.04034999999999999  0.3878600000000001  0.10078  1.0000
  C   C31       1.0  0.54161  0.11195  0.10076  1.0000
  C   C32       1.0  0.4601499999999998  0.8878  0.89922  1.0000
  C   C33       1.0  0.014629999999999999  0.46224  0.9747199999999999  1.0000
  C   C34       1.0  0.984  0.5375500000000001  0.02529  1.0000
  C   C35       1.0  0.4855599999999999  0.9622200000000002  0.02527  1.0000
  C   C36       1.0  0.51588  0.037570000000000006  0.97471  1.0000
  C   C37       1.0  0.9409  0.64809  0.01059  1.0000
  C   C38       1.0  0.05703  0.3516100000000001  0.98942  1.0000
  C   C39       1.0  0.5585499999999998  0.14817000000000002  0.9894100000000001  1.0000
  C   C40       1.0  0.44363  0.85152  0.01058  1.0000
  C   C41       1.0  0.9289399999999998  0.68412  0.94893  1.0000
  C   C42       1.0  0.06877  0.31556  0.05108  1.0000
  C   C43       1.0  0.57039  0.18421000000000004  0.051070000000000004  1.0000
  C   C44       1.0  0.4320199999999999  0.81545  0.94892  1.0000
  H   H1        1.0  0.8950799999999998  0.7696300000000003  0.94009  1.0000
  H   H2        1.0  0.10197999999999999  0.22995  0.059919999999999994  1.0000
  H   H3        1.0  0.60391  0.26976  0.05991  1.0000
  H   H4        1.0  0.39919  0.7298000000000002  0.94008  1.0000
  H   H5        1.0  0.94484  0.65593  0.13624  1.0000
  H   H6        1.0  0.05636  0.34419  0.8637600000000001  1.0000
  H   H7        1.0  0.55468  0.15599000000000002  0.86377  1.0000
  H   H8        1.0  0.44405  0.84413  0.13624  1.0000
  H   H9        1.0  0.90986  0.73708  0.8293600000000001  1.0000
  H   H10       1.0  0.08766999999999997  0.26258000000000004  0.17064  1.0000
  H   H11       1.0  0.58924  0.23719000000000007  0.17064  1.0000
  H   H12       1.0  0.41335  0.7624500000000001  0.8293600000000001  1.0000
  H   H13       1.0  0.9142099999999997  0.70984  0.04557  1.0000
  H   H14       1.0  0.08292999999999999  0.28973  0.9544500000000001  1.0000
  H   H15       1.0  0.5849799999999999  0.20996000000000004  0.9544399999999998  1.0000
  H   H16       1.0  0.41804  0.78959  0.04555  1.0000
  C   C45       1.0  0.9951099999999998  0.53319  0.47811999999999993  1.0000
  C   C46       1.0  0.00489  0.46681  0.52189  1.0000
  C   C47       1.0  0.50489  0.0332  0.52188  1.0000
  C   C48       1.0  0.49511  0.9668100000000002  0.47811000000000003  1.0000
  N   N1        1.0  0.05114  0.37544  0.27682  1.0000
  O   O21       1.0  0.14605999999999997  0.28609  0.2868  1.0000
  O   O22       1.0  0.9595999999999998  0.41822  0.32333  1.0000
  N   N2        1.0  0.94744  0.62429  0.7232  1.0000
  O   O23       1.0  0.85062  0.71288  0.71313  1.0000
  O   O24       1.0  0.04046  0.5822700000000001  0.67681  1.0000
  N   N3        1.0  0.4495  0.87535  0.72317  1.0000
  O   O25       1.0  0.35506  0.7858200000000002  0.7132  1.0000
  O   O26       1.0  0.54075  0.9183000000000002  0.67666  1.0000
  N   N4        1.0  0.55198  0.12437  0.27681  1.0000
  O   O27       1.0  0.6483599999999998  0.21313000000000001  0.28687  1.0000
  O   O28       1.0  0.45921  0.08219000000000001  0.3232  1.0000
