data_image0
_chemical_formula_structural       C104Cr12F8H44O52
_chemical_formula_sum              "C104 Cr12 F8 H44 O52"
_cell_length_a       18.94331
_cell_length_b       10.91027
_cell_length_c       18.89537
_cell_angle_alpha    90.03463999999998
_cell_angle_beta     89.89262999999998
_cell_angle_gamma    90.00485

_space_group_name_H-M_alt    "P 1"
_space_group_IT_number       1

loop_
  _space_group_symop_operation_xyz
  'x, y, z'

loop_
  _atom_site_type_symbol
  _atom_site_label
  _atom_site_symmetry_multiplicity
  _atom_site_fract_x
  _atom_site_fract_y
  _atom_site_fract_z
  _atom_site_occupancy
  C   C1        1.0  0.73007  0.37678999999999996  0.14571  1.0000
  C   C2        1.0  0.9934700000000001  0.00128  0.03651  1.0000
  C   C3        1.0  0.99817  0.77744  0.03756  1.0000
  C   C4        1.0  0.50163  0.05405  0.0361  1.0000
  C   C5        1.0  0.4992  0.05414  0.9635899999999998  1.0000
  C   C6        1.0  0.00162  0.55405  0.0361  1.0000
  C   C7        1.0  0.9992000000000001  0.55414  0.9635899999999998  1.0000
  C   C8        1.0  0.50575  0.50144  0.96394  1.0000
  C   C9        1.0  0.49347  0.50128  0.03651  1.0000
  C   C10       1.0  0.69753  0.86606  0.037939999999999995  1.0000
  C   C11       1.0  0.30251  0.86616  0.96199  1.0000
  C   C12       1.0  0.19753  0.36606  0.037939999999999995  1.0000
  C   C13       1.0  0.80251  0.36617  0.96199  1.0000
  C   C14       1.0  0.70001  0.85299  0.96467  1.0000
  C   C15       1.0  0.30002  0.8530999999999999  0.03526  1.0000
  C   C16       1.0  0.20001  0.35299  0.96467  1.0000
  C   C17       1.0  0.2699  0.3768699999999999  0.85426  1.0000
  C   C18       1.0  0.8000200000000001  0.3531  0.03526  1.0000
  C   C19       1.0  0.75196  0.91527  0.92556  1.0000
  C   C20       1.0  0.24791000000000002  0.91506  0.07436999999999999  1.0000
  C   C21       1.0  0.25196  0.4152699999999999  0.92556  1.0000
  C   C22       1.0  0.74791  0.41506  0.07436999999999999  1.0000
  C   C23       1.0  0.7986700000000001  0.99492  0.9596399999999999  1.0000
  C   C24       1.0  0.20100000000000004  0.9942699999999999  0.04026  1.0000
  C   C25       1.0  0.29867  0.49493  0.9596399999999999  1.0000
  C   C26       1.0  0.701  0.49427  0.04026  1.0000
  C   C27       1.0  0.79808  0.00387  0.03197  1.0000
  C   C28       1.0  0.23007  0.8767899999999998  0.14571  1.0000
  C   C29       1.0  0.20161000000000004  0.0031699999999999996  0.96794  1.0000
  C   C30       1.0  0.29808  0.50387  0.03197  1.0000
  C   C31       1.0  0.7016100000000001  0.50317  0.96794  1.0000
  C   C32       1.0  0.74775  0.9397499999999999  0.07198  1.0000
  C   C33       1.0  0.25216  0.9395  0.92794  1.0000
  C   C34       1.0  0.24775  0.43975  0.07198  1.0000
  C   C35       1.0  0.75216  0.43949999999999995  0.92794  1.0000
  C   C36       1.0  0.53614  0.06078999999999999  0.47254999999999997  1.0000
  C   C37       1.0  0.5268800000000001  0.06473  0.54475  1.0000
  C   C38       1.0  0.03614  0.5608  0.47254999999999997  1.0000
  C   C39       1.0  0.7699  0.87687  0.85426  1.0000
  C   C40       1.0  0.026880000000000005  0.56474  0.54475  1.0000
  C   C41       1.0  0.49763  0.16884  0.5760399999999999  1.0000
  C   C42       1.0  0.51811  0.16216  0.43037  1.0000
  C   C43       1.0  0.9976200000000001  0.66884  0.5760399999999999  1.0000
  C   C44       1.0  0.01811  0.66216  0.43035999999999996  1.0000
  C   C45       1.0  0.53131  0.15554  0.14664  1.0000
  C   C46       1.0  0.46874  0.1556  0.8533299999999999  1.0000
  C   C47       1.0  0.03131  0.65554  0.14664  1.0000
  C   C48       1.0  0.9687399999999999  0.6556  0.8533299999999999  1.0000
  C   C49       1.0  0.48300000000000004  0.27323  0.5348  1.0000
  C   C50       1.0  0.50998  0.39091  0.92711  1.0000
  C   C51       1.0  0.49364  0.27002  0.46194  1.0000
  C   C52       1.0  0.98299  0.77322  0.5348  1.0000
  C   C53       1.0  0.9936200000000001  0.77002  0.46193  1.0000
  C   C54       1.0  0.78937  0.026759999999999996  0.47434999999999994  1.0000
  C   C55       1.0  0.18323  0.9219699999999997  0.54387  1.0000
  C   C56       1.0  0.28935  0.52678  0.47436  1.0000
  C   C57       1.0  0.68323  0.42197999999999997  0.54387  1.0000
  C   C58       1.0  0.79009  0.01234  0.5466  1.0000
  C   C59       1.0  0.17734  0.91092  0.47151  1.0000
  C   C60       1.0  0.29008  0.51235  0.54661  1.0000
  C   C61       1.0  0.48955000000000004  0.3906  0.07315  1.0000
  C   C62       1.0  0.67734  0.41093  0.4715  1.0000
  C   C63       1.0  0.74993  0.92007  0.57792  1.0000
  C   C64       1.0  0.23788  0.89737  0.42906  1.0000
  C   C65       1.0  0.24993  0.42006  0.57792  1.0000
  C   C66       1.0  0.73788  0.39736999999999995  0.42906  1.0000
  C   C67       1.0  0.7033700000000002  0.8494  0.53685  1.0000
  C   C68       1.0  0.30445  0.88903  0.46006  1.0000
  C   C69       1.0  0.20338  0.34938  0.5368399999999999  1.0000
  C   C70       1.0  0.8044500000000001  0.38901  0.46006  1.0000
  C   C71       1.0  0.70108  0.86568  0.46399  1.0000
  C   C72       1.0  0.00998  0.8909099999999999  0.92711  1.0000
  C   C73       1.0  0.31068  0.9016499999999998  0.5328899999999999  1.0000
  C   C74       1.0  0.20109  0.36567  0.46399  1.0000
  C   C75       1.0  0.81068  0.40163  0.5328899999999999  1.0000
  C   C76       1.0  0.74568  0.95173  0.43207999999999996  1.0000
  C   C77       1.0  0.25019  0.92232  0.57476  1.0000
  C   C78       1.0  0.24568  0.45173  0.43207999999999996  1.0000
  C   C79       1.0  0.75018  0.42232  0.57476  1.0000
  C   C80       1.0  0.74068  0.97258  0.1461  1.0000
  C   C81       1.0  0.2593  0.97255  0.85387  1.0000
  C   C82       1.0  0.24067999999999998  0.47258  0.1461  1.0000
  C   C83       1.0  0.98955  0.8905999999999998  0.07315  1.0000
  C   C84       1.0  0.7593  0.47255  0.85387  1.0000
  C   C85       1.0  0.72762  0.37405  0.3544  1.0000
  C   C86       1.0  0.26971  0.37926  0.6480299999999999  1.0000
  C   C87       1.0  0.22762  0.87406  0.3544  1.0000
  C   C88       1.0  0.76972  0.87926  0.6480299999999999  1.0000
  C   C89       1.0  0.53565  0.15648  0.35564  1.0000
  C   C90       1.0  0.46802000000000005  0.15771  0.6465999999999998  1.0000
  C   C91       1.0  0.03565000000000001  0.65648  0.35563  1.0000
  C   C92       1.0  0.9680200000000001  0.6577  0.6465999999999998  1.0000
  C   C93       1.0  0.73973  0.9785699999999999  0.35708  1.0000
  C   C94       1.0  0.00575  0.0014399999999999999  0.96394  1.0000
  C   C95       1.0  0.25872  0.97042  0.64573  1.0000
  C   C96       1.0  0.23973  0.47857  0.35708  1.0000
  C   C97       1.0  0.7587200000000001  0.47042  0.64573  1.0000
  C   C98       1.0  0.49679  0.16422  0.92565  1.0000
  C   C99       1.0  0.5034600000000001  0.16403  0.07424999999999998  1.0000
  C   C100      1.0  0.99679  0.66422  0.92565  1.0000
  C   C101      1.0  0.0034599999999999995  0.66403  0.07424999999999998  1.0000
  C   C102      1.0  0.50171  0.27757  0.96252  1.0000
  C   C103      1.0  0.49817000000000006  0.27744  0.03756  1.0000
  C   C104      1.0  0.0017100000000000006  0.77757  0.96252  1.0000
  Cr  Cr1       1.0  0.772  0.16964  0.25011  1.0000
  Cr  Cr2       1.0  0.38333  0.01062  0.7491599999999999  1.0000
  Cr  Cr3       1.0  0.11667000000000001  0.51062  0.25084  1.0000
  Cr  Cr4       1.0  0.8833299999999998  0.51062  0.7491599999999999  1.0000
  Cr  Cr5       1.0  0.228  0.16964  0.74989  1.0000
  Cr  Cr6       1.0  0.272  0.66964  0.25011  1.0000
  Cr  Cr7       1.0  0.728  0.66964  0.74989  1.0000
  Cr  Cr8       1.0  0.61496  0.32335  0.24926  1.0000
  Cr  Cr9       1.0  0.38504  0.32335  0.7507399999999999  1.0000
  Cr  Cr10      1.0  0.11496  0.82335  0.24926  1.0000
  Cr  Cr11      1.0  0.88504  0.82335  0.7507399999999999  1.0000
  Cr  Cr12      1.0  0.61667  0.01062  0.25084  1.0000
  F   F1        1.0  0.8317  0.11489  0.44649  1.0000
  F   F2        1.0  0.12376  0.9371899999999999  0.5832  1.0000
  F   F3        1.0  0.33168  0.61493  0.4465  1.0000
  F   F4        1.0  0.62376  0.43720999999999993  0.5832  1.0000
  F   F5        1.0  0.012549999999999999  0.10913  0.9287599999999999  1.0000
  F   F6        1.0  0.98639  0.10881  0.07189  1.0000
  F   F7        1.0  0.51255  0.60913  0.9287599999999999  1.0000
  F   F8        1.0  0.48639  0.6088099999999999  0.07189  1.0000
  H   H1        1.0  0.82574  0.06854  0.57756  1.0000
  H   H2        1.0  0.3631  0.90221  0.55572  1.0000
  H   H3        1.0  0.16564  0.30991  0.43259999999999993  1.0000
  H   H4        1.0  0.8630900000000001  0.40218  0.55573  1.0000
  H   H5        1.0  0.52167  0.39544  0.87118  1.0000
  H   H6        1.0  0.47786  0.39485999999999993  0.12909  1.0000
  H   H7        1.0  0.02167  0.89544  0.87118  1.0000
  H   H8        1.0  0.97786  0.8948599999999999  0.12909  1.0000
  H   H9        1.0  0.65685  0.819  0.06775  1.0000
  H   H10       1.0  0.34335  0.81943  0.9321999999999999  1.0000
  H   H11       1.0  0.15685  0.319  0.06775  1.0000
  H   H12       1.0  0.12489  0.9116299999999999  0.44880999999999993  1.0000
  H   H13       1.0  0.8433500000000002  0.31943  0.9321999999999999  1.0000
  H   H14       1.0  0.66337  0.79104  0.93914  1.0000
  H   H15       1.0  0.3368  0.79151  0.0608  1.0000
  H   H16       1.0  0.16337  0.29104  0.93914  1.0000
  H   H17       1.0  0.8368000000000001  0.29151  0.0608  1.0000
  H   H18       1.0  0.83891  0.04515  0.93091  1.0000
  H   H19       1.0  0.16062  0.04424  0.06897  1.0000
  H   H20       1.0  0.33891  0.54515  0.93091  1.0000
  H   H21       1.0  0.66062  0.5442399999999998  0.06897  1.0000
  H   H22       1.0  0.8363700000000001  0.06442  0.05613  1.0000
  H   H23       1.0  0.32572  0.56857  0.57756  1.0000
  H   H24       1.0  0.16318  0.0634  0.94377  1.0000
  H   H25       1.0  0.33637  0.56442  0.05613  1.0000
  H   H26       1.0  0.66318  0.56339  0.94377  1.0000
  H   H27       1.0  0.55806  0.9778499999999998  0.44994  1.0000
  H   H28       1.0  0.53909  0.98373  0.57558  1.0000
  H   H29       1.0  0.05806000000000001  0.47786  0.44994  1.0000
  H   H30       1.0  0.03909  0.48375  0.57559  1.0000
  H   H31       1.0  0.50487  0.96573  0.06210999999999999  1.0000
  H   H32       1.0  0.49638  0.9658699999999999  0.9374199999999999  1.0000
  H   H33       1.0  0.00487  0.46573  0.06210999999999999  1.0000
  H   H34       1.0  0.62489  0.41166  0.44880999999999993  1.0000
  H   H35       1.0  0.99638  0.46587  0.9374199999999999  1.0000
  H   H36       1.0  0.45985  0.35461  0.5581099999999999  1.0000
  H   H37       1.0  0.48168999999999995  0.35017  0.43035  1.0000
  H   H38       1.0  0.95983  0.8546  0.5581099999999999  1.0000
  H   H39       1.0  0.98167  0.85016  0.43034  1.0000
  H   H40       1.0  0.67192  0.7770199999999999  0.56025  1.0000
  H   H41       1.0  0.35125  0.87481  0.42804999999999993  1.0000
  H   H42       1.0  0.17194000000000004  0.27699  0.56024  1.0000
  H   H43       1.0  0.85125  0.37478  0.42804999999999993  1.0000
  H   H44       1.0  0.66562  0.8099399999999999  0.43260999999999994  1.0000
  O   O1        1.0  0.78754  0.04269  0.17047  1.0000
  O   O2        1.0  0.45413  0.0511  0.6691599999999999  1.0000
  O   O3        1.0  0.04587  0.5511  0.33084  1.0000
  O   O4        1.0  0.9541300000000001  0.5511  0.6691599999999999  1.0000
  O   O5        1.0  0.68134  0.9592999999999999  0.32551  1.0000
  O   O6        1.0  0.31866  0.9592999999999999  0.67449  1.0000
  O   O7        1.0  0.18134  0.4593  0.32551  1.0000
  O   O8        1.0  0.81866  0.4593  0.67449  1.0000
  O   O9        1.0  0.66788  0.16787  0.25007  1.0000
  O   O10       1.0  0.33212  0.16787  0.74993  1.0000
  O   O11       1.0  0.16788  0.66787  0.25007  1.0000
  O   O12       1.0  0.21246  0.04269  0.82953  1.0000
  O   O13       1.0  0.8321200000000001  0.66787  0.74993  1.0000
  O   O14       1.0  0.76566  0.29216  0.17505  1.0000
  O   O15       1.0  0.23434000000000002  0.29216  0.82495  1.0000
  O   O16       1.0  0.26566  0.7921599999999999  0.17505  1.0000
  O   O17       1.0  0.73434  0.7921599999999999  0.82495  1.0000
  O   O18       1.0  0.67019  0.40897999999999995  0.16855  1.0000
  O   O19       1.0  0.32981  0.40897999999999995  0.83145  1.0000
  O   O20       1.0  0.17019  0.9089799999999999  0.16855  1.0000
  O   O21       1.0  0.82981  0.9089799999999999  0.83145  1.0000
  O   O22       1.0  0.5565800000000001  0.25145  0.17516  1.0000
  O   O23       1.0  0.2875400000000001  0.54269  0.17047  1.0000
  O   O24       1.0  0.44342  0.25145  0.8248399999999999  1.0000
  O   O25       1.0  0.05658  0.75145  0.17516  1.0000
  O   O26       1.0  0.9434200000000001  0.75145  0.8248399999999999  1.0000
  O   O27       1.0  0.54592  0.04950999999999999  0.17032  1.0000
  O   O28       1.0  0.45408000000000004  0.04950999999999999  0.82968  1.0000
  O   O29       1.0  0.04592  0.54951  0.17032  1.0000
  O   O30       1.0  0.95408  0.54951  0.82968  1.0000
  O   O31       1.0  0.68139  0.95784  0.17671  1.0000
  O   O32       1.0  0.31861  0.95784  0.8232899999999999  1.0000
  O   O33       1.0  0.18139  0.45784  0.17671  1.0000
  O   O34       1.0  0.71246  0.54269  0.82953  1.0000
  O   O35       1.0  0.81861  0.45784  0.8232899999999999  1.0000
  O   O36       1.0  0.7875000000000001  0.04428  0.33099  1.0000
  O   O37       1.0  0.2125  0.04428  0.66901  1.0000
  O   O38       1.0  0.2875  0.54428  0.33099  1.0000
  O   O39       1.0  0.7125  0.54428  0.66901  1.0000
  O   O40       1.0  0.76561  0.29363  0.32386  1.0000
  O   O41       1.0  0.23439  0.29363  0.6761399999999999  1.0000
  O   O42       1.0  0.26561  0.79363  0.32386  1.0000
  O   O43       1.0  0.7343900000000001  0.79363  0.6761399999999999  1.0000
  O   O44       1.0  0.67014  0.41057  0.32907999999999993  1.0000
  O   O45       1.0  0.55654  0.25292  0.32396999999999987  1.0000
  O   O46       1.0  0.32986  0.41057  0.67092  1.0000
  O   O47       1.0  0.17014  0.91057  0.32907999999999993  1.0000
  O   O48       1.0  0.8298600000000002  0.91057  0.67092  1.0000
  O   O49       1.0  0.44346  0.25292  0.67603  1.0000
  O   O50       1.0  0.05654000000000001  0.7529199999999999  0.32396999999999987  1.0000
  O   O51       1.0  0.94346  0.7529199999999999  0.67603  1.0000
  O   O52       1.0  0.5458700000000001  0.0511  0.33084  1.0000
