data_image0
_chemical_formula_structural       O4C2O4C2Zn2C4O4N2C34N2OHOHOHOHC2H5C2H5C2H5C2H5OHOHOHOHOHOHOHOH
_chemical_formula_sum              "O24 C50 Zn2 N4 H32"
_cell_length_a       27.34364
_cell_length_b       9.18744
_cell_length_c       8.08409
_cell_angle_alpha    90.35144
_cell_angle_beta     89.81075999999999
_cell_angle_gamma    89.36703

_symmetry_space_group_name_H-M    'P 1'
_symmetry_Int_Tables_number       1

loop_
  _symmetry_equiv_pos_as_xyz
  'x,y,z'

loop_
  _atom_site_type_symbol
  _atom_site_label
  _atom_site_symmetry_multiplicity
  _atom_site_fract_x
  _atom_site_fract_y
  _atom_site_fract_z
  _atom_site_occupancy
  O   O1        1.0  0.5  0.28535  0.63685  1.0000
  O   O2        1.0  0.5  0.71465  0.36315  1.0000
  O   O3        1.0  0.5  0.71465  0.63685  1.0000
  O   O4        1.0  0.5  0.28535  0.36315  1.0000
  C   C1        1.0  0.50002  0.21746  0.49967999999999996  1.0000
  C   C2        1.0  0.49999  0.78254  0.50033  1.0000
  O   O5        1.0  0.42876  0.5  0.63686  1.0000
  O   O6        1.0  0.57124  0.5  0.3631399999999999  1.0000
  O   O7        1.0  0.57124  0.5  0.63686  1.0000
  O   O8        1.0  0.42876  0.5  0.3631399999999999  1.0000
  C   C3        1.0  0.40547  0.50968  0.50112  1.0000
  C   C4        1.0  0.5945699999999999  0.49538999999999994  0.5  1.0000
  Zn  Zn1       1.0  0.5  0.5  0.68278  1.0000
  Zn  Zn2       1.0  0.5  0.5  0.31722  1.0000
  C   C5        1.0  0.18384  0.38945  0.6305899999999998  1.0000
  C   C6        1.0  0.81739  0.55286  0.6654  1.0000
  C   C7        1.0  0.17239  0.64546  0.66026  1.0000
  C   C8        1.0  0.82947  0.32354  0.53251  1.0000
  O   O9        1.0  0.21506  0.27513  0.6172799999999998  1.0000
  O   O10       1.0  0.78573  0.651  0.73123  1.0000
  O   O11       1.0  0.18928999999999999  0.78104  0.63697  1.0000
  O   O12       1.0  0.8123099999999999  0.22059  0.42895  1.0000
  N   N1        1.0  0.20169999999999993  0.52775  0.62505  1.0000
  N   N2        1.0  0.79973  0.43621  0.5802  1.0000
  C   C9        1.0  0.28526  0.60589  0.69595  1.0000
  C   C10       1.0  0.7168099999999998  0.35517  0.64473  1.0000
  C   C11       1.0  0.26882  0.50324  0.4196299999999999  1.0000
  C   C12       1.0  0.73047  0.52029  0.4117499999999999  1.0000
  C   C13       1.0  0.33464999999999995  0.61504  0.65378  1.0000
  C   C14       1.0  0.66633  0.36708  0.6196499999999998  1.0000
  C   C15       1.0  0.31994999999999996  0.48902  0.39195  1.0000
  C   C16       1.0  0.6797899999999999  0.54289  0.39664  1.0000
  C   C17       1.0  0.25205  0.54831  0.57917  1.0000
  C   C18       1.0  0.7487099999999998  0.4336  0.54209  1.0000
  C   C19       1.0  0.10301  0.48806  0.68512  1.0000
  C   C20       1.0  0.89844  0.44828000000000007  0.6478099999999998  1.0000
  C   C21       1.0  0.13311  0.36746  0.6439199999999998  1.0000
  C   C22       1.0  0.86827  0.57004  0.6798099999999998  1.0000
  C   C23       1.0  0.12409999999999997  0.62511  0.713  1.0000
  C   C24       1.0  0.87792  0.3182  0.59023  1.0000
  C   C25       1.0  0.11190999999999998  0.23152  0.60938  1.0000
  C   C26       1.0  0.89048  0.70463  0.7127299999999998  1.0000
  C   C27       1.0  0.09598  0.73734  0.78847  1.0000
  C   C28       1.0  0.90602  0.18908  0.6025899999999997  1.0000
  C   C29       1.0  0.3526099999999999  0.54215  0.51094  1.0000
  C   C30       1.0  0.64755  0.4681499999999999  0.5032499999999998  1.0000
  C   C31       1.0  0.9784099999999998  0.3294  0.66072  1.0000
  C   C32       1.0  0.02242  0.59742  0.7313999999999998  1.0000
  C   C33       1.0  0.97126  0.5909  0.70322  1.0000
  C   C34       1.0  0.030159999999999992  0.33836  0.65661  1.0000
  C   C35       1.0  0.9495399999999999  0.4562899999999999  0.6716699999999999  1.0000
  C   C36       1.0  0.05187  0.47369  0.69368  1.0000
  C   C37       1.0  0.95393  0.19711  0.66409  1.0000
  C   C38       1.0  0.04488  0.7219  0.80079  1.0000
  C   C39       1.0  0.9411  0.71604  0.69305  1.0000
  C   C40       1.0  0.06035  0.22046  0.6018299999999998  1.0000
  C   C41       1.0  0.50003  0.06463  0.49959  1.0000
  C   C42       1.0  0.50001  0.9353699999999999  0.50046  1.0000
  N   N3        1.0  0.5  0.5  0.07363999999999997  1.0000
  N   N4        1.0  0.5  0.5  0.92636  1.0000
  O   O13       1.0  0.33894  0.41876  0.25435  1.0000
  H   H1        1.0  0.3183999999999999  0.33298  0.231  1.0000
  O   O14       1.0  0.66353  0.64218  0.2806299999999999  1.0000
  H   H2        1.0  0.63206  0.68552  0.3175399999999999  1.0000
  O   O15       1.0  0.36535  0.68816  0.7603999999999997  1.0000
  H   H3        1.0  0.39104  0.7355  0.6933599999999998  1.0000
  O   O16       1.0  0.6361099999999998  0.28116  0.71444  1.0000
  H   H4        1.0  0.60741  0.25398  0.6469699999999998  1.0000
  C   C43       1.0  0.23258  0.46813  0.28164  1.0000
  C   C44       1.0  0.19826999999999997  0.59593  0.24244  1.0000
  H   H5        1.0  0.16924  0.60827  0.33708  1.0000
  H   H6        1.0  0.21906  0.69864  0.23323999999999995  1.0000
  H   H7        1.0  0.17946  0.57535  0.12321  1.0000
  H   H8        1.0  0.25157  0.44101  0.16410999999999995  1.0000
  H   H9        1.0  0.2107  0.37137  0.31352  1.0000
  C   C45       1.0  0.76495  0.59529  0.29244  1.0000
  C   C46       1.0  0.76584  0.51745  0.12523  1.0000
  H   H10       1.0  0.7761399999999998  0.40107  0.14102  1.0000
  H   H11       1.0  0.72953  0.52492  0.06460999999999997  1.0000
  H   H12       1.0  0.79339  0.56887  0.04397  1.0000
  H   H13       1.0  0.75361  0.71081  0.2759899999999999  1.0000
  H   H14       1.0  0.80302  0.59798  0.3388299999999999  1.0000
  C   C47       1.0  0.26981  0.64993  0.87045  1.0000
  C   C48       1.0  0.27246  0.81466  0.9001799999999998  1.0000
  H   H15       1.0  0.31018  0.84688  0.9332099999999998  1.0000
  H   H16       1.0  0.26109  0.87669  0.78929  1.0000
  H   H17       1.0  0.24811  0.84641  0.00471  1.0000
  H   H18       1.0  0.23252  0.61292  0.89978  1.0000
  H   H19       1.0  0.29394  0.59385  0.96086  1.0000
  C   C49       1.0  0.73596  0.26109  0.78513  1.0000
  C   C50       1.0  0.73466  0.0992  0.74097  1.0000
  H   H20       1.0  0.69656  0.06303  0.72069  1.0000
  H   H21       1.0  0.75639  0.07647  0.62752  1.0000
  H   H22       1.0  0.7504999999999998  0.03481  0.84392  1.0000
  H   H23       1.0  0.77394  0.28922  0.8196  1.0000
  H   H24       1.0  0.71361  0.28115  0.8982399999999998  1.0000
  O   O17       1.0  0.14188  0.11331  0.5732299999999998  1.0000
  H   H25       1.0  0.12387  0.02259  0.5954  1.0000
  O   O18       1.0  0.8639499999999998  0.82926  0.7446499999999998  1.0000
  H   H26       1.0  0.83706  0.83339  0.66336  1.0000
  O   O19       1.0  0.11736  0.85864  0.85807  1.0000
  H   H27       1.0  0.15027  0.83071  0.8987899999999998  1.0000
  O   O20       1.0  0.88754  0.05434  0.56812  1.0000
  H   H28       1.0  0.85221  0.05738999999999999  0.5927099999999997  1.0000
  O   O21       1.0  0.97358  0.08815  0.75969  1.0000
  H   H29       1.0  0.94608  0.04029  0.81763  1.0000
  O   O22       1.0  0.01636  0.82092  0.88895  1.0000
  H   H30       1.0  0.036689999999999987  0.9005799999999999  0.9330499999999998  1.0000
  O   O23       1.0  0.95821  0.84283  0.62614  1.0000
  H   H31       1.0  0.98868  0.82205  0.56307  1.0000
  O   O24       1.0  0.03908  0.10212  0.52511  1.0000
  H   H32       1.0  0.06162  0.06288  0.43917  1.0000
