data_image0
_chemical_formula_structural       O8C4O8C4O8C4O8C4O8C4O8C4Cr12O4C16H12C4H4C12H4C4H4C8H4C8H4C8H4C8H4C4H4C4NO2NO2NO2NO2CO2HCO2HCO2HCO2H
_chemical_formula_sum              "O68 C104 Cr12 H48 N4"
_cell_length_a       18.94322
_cell_length_b       10.96124
_cell_length_c       18.86663
_cell_angle_alpha    89.99444
_cell_angle_beta     89.97607
_cell_angle_gamma    89.70316

_symmetry_space_group_name_H-M    'P 1'
_symmetry_Int_Tables_number       1

loop_
  _symmetry_equiv_pos_as_xyz
  'x,y,z'

loop_
  _atom_site_type_symbol
  _atom_site_label
  _atom_site_symmetry_multiplicity
  _atom_site_fract_x
  _atom_site_fract_y
  _atom_site_fract_z
  _atom_site_occupancy
  O   O1        1.0  0.78751  0.04261  0.67041  1.0000
  O   O2        1.0  0.21248999999999998  0.04261  0.32959  1.0000
  O   O3        1.0  0.28751  0.54261  0.67041  1.0000
  O   O4        1.0  0.71249  0.54261  0.32959  1.0000
  O   O5        1.0  0.7656699999999997  0.29209  0.67509  1.0000
  O   O6        1.0  0.23433  0.29209  0.32491000000000003  1.0000
  O   O7        1.0  0.26567  0.79209  0.67509  1.0000
  O   O8        1.0  0.73433  0.79209  0.32491000000000003  1.0000
  C   C1        1.0  0.73152  0.37844  0.64656  1.0000
  C   C2        1.0  0.2712  0.37371  0.35563  1.0000
  C   C3        1.0  0.23151999999999998  0.8784500000000001  0.64656  1.0000
  C   C4        1.0  0.7711999999999998  0.87371  0.35563  1.0000
  O   O9        1.0  0.67022  0.40902  0.66856  1.0000
  O   O10       1.0  0.32978  0.40902  0.33144  1.0000
  O   O11       1.0  0.17022  0.90902  0.66856  1.0000
  O   O12       1.0  0.8297799999999997  0.90902  0.33144  1.0000
  O   O13       1.0  0.55658  0.25159  0.6749800000000001  1.0000
  O   O14       1.0  0.44342  0.25159  0.32502  1.0000
  O   O15       1.0  0.05658  0.7515899999999999  0.6749800000000001  1.0000
  O   O16       1.0  0.9434199999999999  0.7515899999999999  0.32502  1.0000
  C   C5        1.0  0.5319899999999999  0.15562  0.6466200000000001  1.0000
  C   C6        1.0  0.46335  0.15416  0.35613  1.0000
  C   C7        1.0  0.03199  0.65561  0.6466200000000001  1.0000
  C   C8        1.0  0.9633499999999998  0.65416  0.35613  1.0000
  O   O17       1.0  0.54589  0.04966999999999999  0.67003  1.0000
  O   O18       1.0  0.45411  0.04966999999999999  0.32997  1.0000
  O   O19       1.0  0.04589000000000001  0.54967  0.67003  1.0000
  O   O20       1.0  0.9541099999999999  0.54967  0.32997  1.0000
  O   O21       1.0  0.68134  0.95786  0.6765  1.0000
  O   O22       1.0  0.31866  0.95786  0.3235  1.0000
  O   O23       1.0  0.18134  0.45786  0.6765  1.0000
  O   O24       1.0  0.8186599999999999  0.45786  0.3235  1.0000
  C   C9        1.0  0.7413499999999997  0.9682400000000001  0.64782  1.0000
  C   C10       1.0  0.26006  0.9752500000000001  0.35496  1.0000
  C   C11       1.0  0.24135  0.46824  0.64782  1.0000
  C   C12       1.0  0.76006  0.47525  0.35496  1.0000
  O   O25       1.0  0.78738  0.04401  0.83094  1.0000
  O   O26       1.0  0.21261999999999995  0.04401  0.16906  1.0000
  O   O27       1.0  0.28738  0.54401  0.83094  1.0000
  O   O28       1.0  0.7126199999999999  0.54401  0.16906  1.0000
  O   O29       1.0  0.7655399999999999  0.29339  0.82391  1.0000
  O   O30       1.0  0.23445999999999997  0.29339  0.17609  1.0000
  O   O31       1.0  0.26554  0.79339  0.82391  1.0000
  O   O32       1.0  0.73446  0.79339  0.17609  1.0000
  C   C13       1.0  0.73019  0.37912  0.8520000000000001  1.0000
  C   C14       1.0  0.2717599999999999  0.37571  0.14635  1.0000
  C   C15       1.0  0.23019000000000003  0.8791  0.8520000000000001  1.0000
  C   C16       1.0  0.7717699999999998  0.87569  0.14635  1.0000
  O   O33       1.0  0.6700899999999999  0.41041  0.82909  1.0000
  O   O34       1.0  0.3299099999999999  0.41041  0.17091  1.0000
  O   O35       1.0  0.17008999999999994  0.91041  0.82909  1.0000
  O   O36       1.0  0.82991  0.91041  0.17091  1.0000
  O   O37       1.0  0.55645  0.25289  0.82379  1.0000
  O   O38       1.0  0.44354999999999994  0.25289  0.17621000000000003  1.0000
  O   O39       1.0  0.05644999999999999  0.7528899999999998  0.82379  1.0000
  O   O40       1.0  0.9435499999999999  0.7528899999999998  0.17621000000000003  1.0000
  C   C17       1.0  0.53341  0.15761  0.85392  1.0000
  C   C18       1.0  0.46542  0.15616  0.14536  1.0000
  C   C19       1.0  0.03337  0.65761  0.8539  1.0000
  C   C20       1.0  0.96535  0.65613  0.14531  1.0000
  O   O41       1.0  0.54575  0.051070000000000004  0.83056  1.0000
  O   O42       1.0  0.45425  0.051070000000000004  0.16944000000000006  1.0000
  O   O43       1.0  0.04575  0.55107  0.83056  1.0000
  O   O44       1.0  0.9542499999999999  0.55107  0.16944000000000006  1.0000
  O   O45       1.0  0.68121  0.95915  0.82532  1.0000
  O   O46       1.0  0.3187899999999999  0.95915  0.17468  1.0000
  O   O47       1.0  0.18120999999999998  0.45915  0.82532  1.0000
  O   O48       1.0  0.8187899999999999  0.45915  0.17468  1.0000
  C   C21       1.0  0.74094  0.97132  0.8543600000000001  1.0000
  C   C22       1.0  0.25887  0.97449  0.14421  1.0000
  C   C23       1.0  0.24092999999999998  0.47134  0.85437  1.0000
  C   C24       1.0  0.7588599999999998  0.47446  0.14422  1.0000
  Cr  Cr1       1.0  0.77195  0.16948  0.7501  1.0000
  Cr  Cr2       1.0  0.22805  0.16948  0.2499  1.0000
  Cr  Cr3       1.0  0.27195  0.66948  0.7501  1.0000
  Cr  Cr4       1.0  0.72805  0.66948  0.2499  1.0000
  Cr  Cr5       1.0  0.61493  0.32334  0.74917  1.0000
  Cr  Cr6       1.0  0.38506999999999997  0.32334  0.25083  1.0000
  Cr  Cr7       1.0  0.11493  0.8233400000000001  0.74917  1.0000
  Cr  Cr8       1.0  0.8850699999999998  0.8233400000000001  0.25083  1.0000
  Cr  Cr9       1.0  0.6165899999999999  0.01062  0.7506100000000001  1.0000
  Cr  Cr10      1.0  0.3834099999999999  0.01062  0.24939000000000003  1.0000
  Cr  Cr11      1.0  0.11658999999999999  0.51062  0.7506100000000001  1.0000
  Cr  Cr12      1.0  0.88341  0.51062  0.24939000000000003  1.0000
  O   O49       1.0  0.66782  0.16781  0.74996  1.0000
  O   O50       1.0  0.33218  0.16781  0.25004  1.0000
  O   O51       1.0  0.16782  0.66781  0.74996  1.0000
  O   O52       1.0  0.8321799999999998  0.66781  0.25004  1.0000
  C   C25       1.0  0.47761999999999993  0.15894  0.43156  1.0000
  C   C26       1.0  0.49611  0.16575  0.57889  1.0000
  C   C27       1.0  0.9776199999999999  0.65895  0.43156  1.0000
  C   C28       1.0  0.99611  0.66575  0.57889  1.0000
  C   C29       1.0  0.48933  0.26967  0.4658300000000001  1.0000
  C   C30       1.0  0.4995299999999999  0.27287  0.53843  1.0000
  C   C31       1.0  0.9893299999999999  0.76967  0.4658300000000001  1.0000
  C   C32       1.0  0.9995299999999999  0.77287  0.53843  1.0000
  C   C33       1.0  0.4715599999999999  0.059300000000000005  0.54627  1.0000
  C   C34       1.0  0.46285  0.055589999999999994  0.47328  1.0000
  C   C35       1.0  0.97156  0.5593  0.54627  1.0000
  C   C36       1.0  0.9628399999999999  0.55559  0.47328  1.0000
  C   C37       1.0  0.5453  0.36177  0.45219000000000004  1.0000
  C   C38       1.0  0.55731  0.36436  0.53161  1.0000
  C   C39       1.0  0.0453  0.8617599999999999  0.45219000000000004  1.0000
  C   C40       1.0  0.05731  0.8643500000000001  0.53161  1.0000
  H   H1        1.0  0.46643999999999997  0.97544  0.5757700000000001  1.0000
  H   H2        1.0  0.44692999999999994  0.97018  0.44956  1.0000
  H   H3        1.0  0.9664399999999999  0.47544000000000003  0.57578  1.0000
  H   H4        1.0  0.94692  0.47017999999999993  0.4495700000000001  1.0000
  H   H5        1.0  0.023219999999999998  0.9486499999999999  0.43114  1.0000
  H   H6        1.0  0.10944  0.82591  0.54702  1.0000
  H   H7        1.0  0.52321  0.44865999999999995  0.43114  1.0000
  H   H8        1.0  0.6094399999999999  0.32592  0.54702  1.0000
  H   H9        1.0  0.59083  0.32392  0.42195  1.0000
  H   H10       1.0  0.54326  0.45330000000000004  0.55631  1.0000
  H   H11       1.0  0.09083  0.8239099999999999  0.42195  1.0000
  H   H12       1.0  0.043269999999999996  0.9533  0.55631  1.0000
  C   C41       1.0  0.6885  0.8935  0.53681  1.0000
  C   C42       1.0  0.30388  0.8693200000000001  0.46218000000000004  1.0000
  C   C43       1.0  0.18849999999999997  0.39351  0.53681  1.0000
  C   C44       1.0  0.80388  0.36932  0.46218000000000004  1.0000
  H   H13       1.0  0.63719  0.88989  0.56218  1.0000
  H   H14       1.0  0.34163  0.82017  0.42960000000000004  1.0000
  H   H15       1.0  0.13719  0.38992000000000004  0.56217  1.0000
  H   H16       1.0  0.8416299999999998  0.32017  0.42960000000000004  1.0000
  C   C45       1.0  0.6921099999999998  0.8854400000000001  0.46309  1.0000
  C   C46       1.0  0.30626  0.8580600000000002  0.53593  1.0000
  C   C47       1.0  0.19210999999999995  0.38545  0.46309  1.0000
  C   C48       1.0  0.8062599999999998  0.35806  0.53593  1.0000
  C   C49       1.0  0.7586399999999998  0.89951  0.43028  1.0000
  C   C50       1.0  0.25496  0.92236  0.5771400000000001  1.0000
  C   C51       1.0  0.25864  0.3995  0.43028  1.0000
  C   C52       1.0  0.7549599999999997  0.42236  0.5771400000000001  1.0000
  C   C53       1.0  0.81935  0.91807  0.47206000000000004  1.0000
  C   C54       1.0  0.21201999999999993  0.01027  0.54471  1.0000
  C   C55       1.0  0.31935  0.41806  0.47206000000000004  1.0000
  C   C56       1.0  0.71201  0.51026  0.54471  1.0000
  H   H17       1.0  0.8714499999999998  0.9254299999999999  0.44892  1.0000
  H   H18       1.0  0.17468  0.06437  0.57506  1.0000
  H   H19       1.0  0.37145  0.4254  0.44892  1.0000
  H   H20       1.0  0.67468  0.56436  0.57505  1.0000
  C   C57       1.0  0.81481  0.92607  0.5445400000000001  1.0000
  C   C58       1.0  0.21105  0.02109  0.47208  1.0000
  C   C59       1.0  0.3148099999999999  0.42605  0.5445400000000001  1.0000
  C   C60       1.0  0.71105  0.52109  0.47208  1.0000
  H   H21       1.0  0.86219  0.9442400000000001  0.57486  1.0000
  H   H22       1.0  0.17567  0.08811  0.44899000000000006  1.0000
  H   H23       1.0  0.36218999999999996  0.44421  0.57486  1.0000
  H   H24       1.0  0.67567  0.5881  0.44899000000000006  1.0000
  C   C61       1.0  0.74924  0.91922  0.577  1.0000
  C   C62       1.0  0.25516  0.9477599999999999  0.43012000000000006  1.0000
  C   C63       1.0  0.24923999999999996  0.41922  0.57699  1.0000
  C   C64       1.0  0.7551599999999998  0.44776  0.43012000000000006  1.0000
  C   C65       1.0  0.46386  0.07984  0.95348  1.0000
  C   C66       1.0  0.45174  0.07585  0.02558  1.0000
  C   C67       1.0  0.9645799999999999  0.57854  0.95361  1.0000
  C   C68       1.0  0.9526399999999999  0.57443  0.02571  1.0000
  H   H25       1.0  0.4405299999999999  0.01117  0.91956  1.0000
  H   H26       1.0  0.41739  0.00587  0.0461  1.0000
  H   H27       1.0  0.94197  0.50891  0.91985  1.0000
  H   H28       1.0  0.9190999999999999  0.50333  0.04634  1.0000
  C   C69       1.0  0.48351  0.16108  0.07095  1.0000
  C   C70       1.0  0.50814  0.16914  0.9259800000000001  1.0000
  C   C71       1.0  0.98348  0.66097  0.07091  1.0000
  C   C72       1.0  0.0079  0.66909  0.9259000000000001  1.0000
  C   C73       1.0  0.52636  0.25237  0.04366  1.0000
  C   C74       1.0  0.53915  0.25613  0.9711000000000001  1.0000
  C   C75       1.0  0.02523  0.7536099999999999  0.0434  1.0000
  C   C76       1.0  0.03797  0.75736  0.97084  1.0000
  H   H29       1.0  0.5512399999999998  0.31703  0.07881  1.0000
  H   H30       1.0  0.5755  0.32349  0.95068  1.0000
  H   H31       1.0  0.049309999999999986  0.8193999999999999  0.07841  1.0000
  H   H32       1.0  0.07357  0.82581  0.95027  1.0000
  C   C77       1.0  0.81554  0.905  0.9549800000000002  1.0000
  C   C78       1.0  0.19667  0.00237  0.028720000000000002  1.0000
  C   C79       1.0  0.31547  0.40453  0.9549500000000001  1.0000
  C   C80       1.0  0.69656  0.50209  0.02878  1.0000
  C   C81       1.0  0.8216899999999998  0.89264  0.027770000000000003  1.0000
  C   C82       1.0  0.20016  0.9962499999999999  0.95622  1.0000
  C   C83       1.0  0.32163  0.39211  0.027740000000000004  1.0000
  C   C84       1.0  0.70003  0.49606  0.95627  1.0000
  H   H33       1.0  0.8734499999999998  0.87401  0.04989000000000001  1.0000
  H   H34       1.0  0.16045999999999996  0.04556  0.9260900000000001  1.0000
  H   H35       1.0  0.37334  0.37302  0.04983  1.0000
  H   H36       1.0  0.66023  0.54521  0.9261900000000001  1.0000
  C   C85       1.0  0.76189  0.90039  0.07179  1.0000
  C   C86       1.0  0.24784999999999996  0.91793  0.92307  1.0000
  C   C87       1.0  0.26188  0.40038  0.07180000000000002  1.0000
  C   C88       1.0  0.74784  0.41798  0.92307  1.0000
  C   C89       1.0  0.6952199999999998  0.91928  0.04302  1.0000
  C   C90       1.0  0.29846  0.85451  0.9631  1.0000
  C   C91       1.0  0.19524999999999995  0.41987  0.04308  1.0000
  C   C92       1.0  0.79857  0.35479  0.96306  1.0000
  H   H37       1.0  0.6489899999999998  0.9255299999999999  0.07669  1.0000
  H   H38       1.0  0.33518  0.7916099999999999  0.9382800000000001  1.0000
  H   H39       1.0  0.14906  0.42648  0.07678  1.0000
  H   H40       1.0  0.8353799999999999  0.29209  0.9382  1.0000
  C   C93       1.0  0.68832  0.93074  0.9702  1.0000
  C   C94       1.0  0.29956  0.86759  0.03635  1.0000
  C   C95       1.0  0.18832999999999997  0.43138  0.97027  1.0000
  C   C96       1.0  0.79969  0.36784  0.03631000000000001  1.0000
  H   H41       1.0  0.63637  0.95042  0.94891  1.0000
  H   H42       1.0  0.33987999999999996  0.8203200000000002  0.0666  1.0000
  H   H43       1.0  0.13641999999999999  0.45149  0.9490100000000001  1.0000
  H   H44       1.0  0.84009  0.32071  0.06653  1.0000
  C   C97       1.0  0.74838  0.92614  0.9260500000000002  1.0000
  C   C98       1.0  0.24912  0.9416099999999998  0.07003000000000001  1.0000
  C   C99       1.0  0.24833999999999998  0.42623  0.9260700000000001  1.0000
  C   C100      1.0  0.74912  0.44155  0.07004000000000002  1.0000
  N   N1        1.0  0.87768  0.8989899999999998  0.9115300000000001  1.0000
  O   O53       1.0  0.9349999999999999  0.95427  0.9312900000000001  1.0000
  O   O54       1.0  0.87742  0.83788  0.8523900000000001  1.0000
  N   N2        1.0  0.13811  0.06877  0.05824  1.0000
  O   O55       1.0  0.07432  0.03274  0.04437  1.0000
  O   O56       1.0  0.14685999999999996  0.18143  0.07716  1.0000
  N   N3        1.0  0.37755  0.39789  0.9114300000000001  1.0000
  O   O57       1.0  0.43522  0.45189  0.9313700000000001  1.0000
  O   O58       1.0  0.37697  0.33712  0.8521800000000002  1.0000
  N   N4        1.0  0.63791  0.56813  0.058370000000000005  1.0000
  O   O59       1.0  0.5741799999999998  0.53147  0.04479  1.0000
  O   O60       1.0  0.64641  0.68094  0.07713  1.0000
  C   C101      1.0  0.6253599999999998  0.8691600000000002  0.4230400000000001  1.0000
  O   O61       1.0  0.61719  0.91798  0.36532  1.0000
  O   O62       1.0  0.5707099999999999  0.8006  0.45267  1.0000
  H   H45       1.0  0.5280599999999999  0.7951200000000002  0.42041  1.0000
  C   C102      1.0  0.36395  0.78156  0.56632  1.0000
  O   O63       1.0  0.38972  0.80662  0.62389  1.0000
  O   O64       1.0  0.3921699999999999  0.6851  0.5267  1.0000
  H   H46       1.0  0.43267  0.64235  0.5517700000000001  1.0000
  C   C103      1.0  0.12535999999999994  0.36917999999999995  0.4230400000000001  1.0000
  O   O65       1.0  0.11719999999999998  0.41801  0.36531  1.0000
  O   O66       1.0  0.0707  0.30063  0.45266000000000006  1.0000
  H   H47       1.0  0.028059999999999998  0.29516  0.4204  1.0000
  C   C104      1.0  0.8639599999999998  0.28157  0.56632  1.0000
  O   O67       1.0  0.8897199999999998  0.30662  0.62389  1.0000
  O   O68       1.0  0.8921799999999999  0.18510999999999997  0.5267  1.0000
  H   H48       1.0  0.93267  0.14236  0.5517700000000001  1.0000
