data_image0
_chemical_formula_structural       C92Cr12H48O52CO2HCO2HCO2HCO2HCO2HCO2HCO2HCO2H
_chemical_formula_sum              "C100 Cr12 H56 O68"
_cell_length_a       19.02222
_cell_length_b       11.10272
_cell_length_c       18.84425
_cell_angle_alpha    90.15905
_cell_angle_beta     89.47504999999998
_cell_angle_gamma    90.14656

_symmetry_space_group_name_H-M    'P 1'
_symmetry_Int_Tables_number       1

loop_
  _symmetry_equiv_pos_as_xyz
  'x,y,z'

loop_
  _atom_site_type_symbol
  _atom_site_label
  _atom_site_symmetry_multiplicity
  _atom_site_fract_x
  _atom_site_fract_y
  _atom_site_fract_z
  _atom_site_occupancy
  C   C1        1.0  0.24113  0.46506  0.64792  1.0000
  C   C2        1.0  0.75901  0.46544  0.35217  1.0000
  C   C3        1.0  0.7411300000000001  0.9650599999999999  0.64792  1.0000
  C   C4        1.0  0.25901  0.96544  0.35217  1.0000
  C   C5        1.0  0.28808  0.83407  0.53233  1.0000
  C   C6        1.0  0.71401  0.82659  0.46861  1.0000
  C   C7        1.0  0.78808  0.33407999999999993  0.53233  1.0000
  C   C8        1.0  0.21401  0.32658  0.46862000000000004  1.0000
  C   C9        1.0  0.95844  0.65201  0.4384  1.0000
  C   C10       1.0  0.04061  0.6568  0.5618700000000001  1.0000
  C   C11       1.0  0.4584500000000001  0.15201  0.4384  1.0000
  C   C12       1.0  0.54061  0.1568  0.5618700000000001  1.0000
  C   C13       1.0  0.93675  0.86576  0.45469000000000004  1.0000
  C   C14       1.0  0.04033  0.8800299999999999  0.55451  1.0000
  C   C15       1.0  0.43676  0.36576  0.45468  1.0000
  C   C16       1.0  0.54034  0.38003  0.55451  1.0000
  C   C17       1.0  0.9550900000000001  0.97683  0.48172  1.0000
  C   C18       1.0  0.00806  0.9843599999999999  0.53126  1.0000
  C   C19       1.0  0.4551  0.47682999999999987  0.48172  1.0000
  C   C20       1.0  0.50807  0.48436000000000007  0.5312500000000001  1.0000
  C   C21       1.0  0.01867  0.76577  0.53049  1.0000
  C   C22       1.0  0.9720000000000001  0.76122  0.47335  1.0000
  C   C23       1.0  0.51868  0.26577  0.53049  1.0000
  C   C24       1.0  0.472  0.26122  0.47334  1.0000
  C   C25       1.0  0.026340000000000002  0.54701  0.52665  1.0000
  C   C26       1.0  0.9780500000000001  0.54351  0.47153000000000006  1.0000
  C   C27       1.0  0.52634  0.04701  0.52665  1.0000
  C   C28       1.0  0.47805  0.04351  0.47153000000000006  1.0000
  C   C29       1.0  0.05777  0.43862  0.54701  1.0000
  C   C30       1.0  0.9520200000000001  0.4303  0.4499000000000001  1.0000
  C   C31       1.0  0.55777  0.93862  0.54701  1.0000
  C   C32       1.0  0.45202000000000003  0.93031  0.4499000000000001  1.0000
  C   C33       1.0  0.03379  0.32846999999999993  0.52329  1.0000
  C   C34       1.0  0.9803700000000001  0.32397  0.47451  1.0000
  C   C35       1.0  0.53379  0.8284699999999999  0.52329  1.0000
  C   C36       1.0  0.48037  0.8239799999999998  0.47451  1.0000
  C   C37       1.0  0.26  0.9482199999999998  0.9083800000000001  1.0000
  C   C38       1.0  0.7446200000000001  0.9334599999999997  0.08673  1.0000
  C   C39       1.0  0.75992  0.44852  0.9082400000000002  1.0000
  C   C40       1.0  0.24489  0.4328099999999999  0.0864  1.0000
  C   C41       1.0  0.27405  0.00213  0.06373  1.0000
  C   C42       1.0  0.73367  0.97376  0.9314600000000001  1.0000
  C   C43       1.0  0.77306  0.49973  0.06385  1.0000
  C   C44       1.0  0.23372000000000004  0.47418999999999994  0.9315  1.0000
  C   C45       1.0  0.22744  0.87291  0.6469000000000001  1.0000
  C   C46       1.0  0.77229  0.8728  0.35319  1.0000
  C   C47       1.0  0.72744  0.37291  0.64691  1.0000
  C   C48       1.0  0.27229  0.3727899999999999  0.35319  1.0000
  C   C49       1.0  0.22289  0.048339999999999994  0.02138  1.0000
  C   C50       1.0  0.76706  0.04318  0.9789600000000002  1.0000
  C   C51       1.0  0.72269  0.5481  0.02142  1.0000
  C   C52       1.0  0.26794  0.54301  0.97877  1.0000
  C   C53       1.0  0.21926000000000004  0.02606  0.94416  1.0000
  C   C54       1.0  0.7888  0.99507  0.0458  1.0000
  C   C55       1.0  0.71872  0.52525  0.94432  1.0000
  C   C56       1.0  0.28913  0.49498  0.04583  1.0000
  C   C57       1.0  0.99168  0.6627  0.9173700000000001  1.0000
  C   C58       1.0  0.9906  0.6558  0.0741  1.0000
  C   C59       1.0  0.51166  0.15573  0.9268000000000001  1.0000
  C   C60       1.0  0.50974  0.16387  0.08345  1.0000
  C   C61       1.0  0.96786  0.56678  0.03137  1.0000
  C   C62       1.0  0.9806700000000002  0.56336  0.95558  1.0000
  C   C63       1.0  0.52382  0.06542  0.04531  1.0000
  C   C64       1.0  0.53849  0.07087  0.96972  1.0000
  C   C65       1.0  0.06098  0.65096  0.63754  1.0000
  C   C66       1.0  0.9385999999999999  0.64984  0.3624  1.0000
  C   C67       1.0  0.56098  0.15096  0.63754  1.0000
  C   C68       1.0  0.43861000000000006  0.14984999999999998  0.3624  1.0000
  C   C69       1.0  0.22537  0.51385  0.85899  1.0000
  C   C70       1.0  0.77543  0.51846  0.14139  1.0000
  C   C71       1.0  0.72537  0.013699999999999999  0.8590000000000001  1.0000
  C   C72       1.0  0.27562  0.01906  0.1415  1.0000
  C   C73       1.0  0.22996  0.8805999999999999  0.8488  1.0000
  C   C74       1.0  0.77195  0.87481  0.14859  1.0000
  C   C75       1.0  0.73  0.38077  0.84867  1.0000
  C   C76       1.0  0.272  0.37468  0.14852  1.0000
  C   C77       1.0  0.02832  0.6525099999999999  0.84995  1.0000
  C   C78       1.0  0.96842  0.65152  0.14779  1.0000
  C   C79       1.0  0.5322  0.1515  0.85259  1.0000
  C   C80       1.0  0.4718  0.1526  0.15013  1.0000
  C   C81       1.0  0.24799000000000002  0.9072599999999998  0.57434  1.0000
  C   C82       1.0  0.75133  0.9043299999999997  0.42631  1.0000
  C   C83       1.0  0.74799  0.40727  0.57434  1.0000
  C   C84       1.0  0.25133  0.40433  0.42631  1.0000
  C   C85       1.0  0.24014  0.90458  0.41837  1.0000
  C   C86       1.0  0.76077  0.9035899999999999  0.58194  1.0000
  C   C87       1.0  0.74014  0.4045799999999999  0.41837  1.0000
  C   C88       1.0  0.26077  0.40358999999999995  0.5819500000000001  1.0000
  C   C89       1.0  0.28703  0.84055  0.45392000000000005  1.0000
  C   C90       1.0  0.71535  0.83504  0.54713  1.0000
  C   C91       1.0  0.78703  0.34055  0.45393  1.0000
  C   C92       1.0  0.21535000000000004  0.33502999999999994  0.54713  1.0000
  Cr  Cr1       1.0  0.11397  0.5086299999999999  0.74792  1.0000
  Cr  Cr2       1.0  0.88603  0.5086299999999999  0.2520800000000001  1.0000
  Cr  Cr3       1.0  0.61397  0.00863  0.74792  1.0000
  Cr  Cr4       1.0  0.38603  0.00863  0.2520800000000001  1.0000
  Cr  Cr5       1.0  0.2692  0.66674  0.74985  1.0000
  Cr  Cr6       1.0  0.7308000000000001  0.66674  0.25015  1.0000
  Cr  Cr7       1.0  0.7692  0.16674  0.74985  1.0000
  Cr  Cr8       1.0  0.2308  0.16674  0.25015  1.0000
  Cr  Cr9       1.0  0.1123  0.82007  0.7498  1.0000
  Cr  Cr10      1.0  0.8877000000000002  0.82007  0.2502  1.0000
  Cr  Cr11      1.0  0.6123  0.32006999999999997  0.7498  1.0000
  Cr  Cr12      1.0  0.3877  0.32006999999999997  0.2502  1.0000
  H   H1        1.0  0.32881  0.79621  0.42453  1.0000
  H   H2        1.0  0.6738199999999999  0.79101  0.57719  1.0000
  H   H3        1.0  0.82881  0.2962099999999999  0.42453  1.0000
  H   H4        1.0  0.17382  0.29102  0.57719  1.0000
  H   H5        1.0  0.1716  0.05801  0.9189200000000001  1.0000
  H   H6        1.0  0.84286  0.012399999999999998  0.06126  1.0000
  H   H7        1.0  0.67079  0.55656  0.9193100000000001  1.0000
  H   H8        1.0  0.34294  0.51309  0.06183000000000001  1.0000
  H   H9        1.0  0.31866000000000005  0.9553  0.04077  1.0000
  H   H10       1.0  0.71778  0.88239  0.94482  1.0000
  H   H11       1.0  0.8162700000000002  0.4492099999999999  0.04106  1.0000
  H   H12       1.0  0.21697  0.38338  0.9451300000000001  1.0000
  H   H13       1.0  0.31037  0.92005  0.9285  1.0000
  H   H14       1.0  0.68993  0.92176  0.07229  1.0000
  H   H15       1.0  0.81056  0.42127999999999993  0.9281200000000001  1.0000
  H   H16       1.0  0.19040000000000004  0.4201599999999999  0.0715  1.0000
  H   H17       1.0  0.94096  0.48836  0.05285000000000001  1.0000
  H   H18       1.0  0.9853800000000001  0.4742799999999999  0.9319800000000001  1.0000
  H   H19       1.0  0.52019  0.9761399999999999  0.06857  1.0000
  H   H20       1.0  0.56954  0.9969299999999999  0.9483  1.0000
  H   H21       1.0  0.01768  0.73498  0.054000000000000006  1.0000
  H   H22       1.0  0.9836400000000001  0.75182  0.9399000000000001  1.0000
  H   H23       1.0  0.51691  0.25327  0.06117  1.0000
  H   H24       1.0  0.48091000000000006  0.23093999999999998  0.9467700000000001  1.0000
  H   H25       1.0  0.19097  0.9299799999999998  0.44349000000000005  1.0000
  H   H26       1.0  0.80941  0.93118  0.55646  1.0000
  H   H27       1.0  0.69097  0.42998  0.44349000000000005  1.0000
  H   H28       1.0  0.30941  0.43117  0.55646  1.0000
  H   H29       1.0  0.21772  0.97954  0.55143  1.0000
  H   H30       1.0  0.7795  0.97958  0.44933  1.0000
  H   H31       1.0  0.71772  0.47954  0.55143  1.0000
  H   H32       1.0  0.27951  0.4795699999999999  0.44933  1.0000
  H   H33       1.0  0.92765  0.05509  0.46372  1.0000
  H   H34       1.0  0.0226  0.06926  0.55393  1.0000
  H   H35       1.0  0.42766000000000004  0.5551  0.46372  1.0000
  H   H36       1.0  0.52261  0.56926  0.55393  1.0000
  H   H37       1.0  0.89184  0.8585899999999999  0.42323  1.0000
  H   H38       1.0  0.08278  0.89057  0.58981  1.0000
  H   H39       1.0  0.39185  0.3586  0.42323  1.0000
  H   H40       1.0  0.58279  0.39056  0.58981  1.0000
  H   H41       1.0  0.9105100000000002  0.4234099999999999  0.41275  1.0000
  H   H42       1.0  0.10033000000000002  0.43937  0.58269  1.0000
  H   H43       1.0  0.41051  0.9234099999999998  0.41275  1.0000
  H   H44       1.0  0.60033  0.93936  0.58269  1.0000
  H   H45       1.0  0.057850000000000006  0.248  0.54264  1.0000
  H   H46       1.0  0.9618800000000001  0.23934  0.45419000000000004  1.0000
  H   H47       1.0  0.55785  0.748  0.54264  1.0000
  H   H48       1.0  0.46188000000000007  0.73934  0.45419000000000004  1.0000
  O   O1        1.0  0.043230000000000005  0.5493  0.66799  1.0000
  O   O2        1.0  0.9567700000000001  0.5493  0.3320100000000001  1.0000
  O   O3        1.0  0.54323  0.0493  0.66799  1.0000
  O   O4        1.0  0.45677  0.0493  0.3320100000000001  1.0000
  O   O5        1.0  0.26292  0.7886  0.82442  1.0000
  O   O6        1.0  0.73708  0.7886  0.17558  1.0000
  O   O7        1.0  0.76292  0.2886  0.82442  1.0000
  O   O8        1.0  0.23708000000000004  0.2886  0.17558  1.0000
  O   O9        1.0  0.16753  0.9051099999999997  0.83034  1.0000
  O   O10       1.0  0.83247  0.9051099999999997  0.16966  1.0000
  O   O11       1.0  0.66753  0.40511  0.83034  1.0000
  O   O12       1.0  0.33247  0.40511  0.16966  1.0000
  O   O13       1.0  0.054010000000000016  0.74844  0.82286  1.0000
  O   O14       1.0  0.9459899999999999  0.74844  0.17714  1.0000
  O   O15       1.0  0.55401  0.24844  0.82286  1.0000
  O   O16       1.0  0.44599  0.24844  0.17714  1.0000
  O   O17       1.0  0.16516  0.66515  0.74919  1.0000
  O   O18       1.0  0.83484  0.66515  0.25081  1.0000
  O   O19       1.0  0.66516  0.16515  0.74919  1.0000
  O   O20       1.0  0.33484  0.16515  0.25081  1.0000
  O   O21       1.0  0.17862  0.45759999999999995  0.6741  1.0000
  O   O22       1.0  0.8213800000000001  0.45759999999999995  0.3259  1.0000
  O   O23       1.0  0.67862  0.9576  0.6741  1.0000
  O   O24       1.0  0.32138  0.9576  0.3259  1.0000
  O   O25       1.0  0.28468  0.5421  0.6694600000000002  1.0000
  O   O26       1.0  0.71532  0.5421  0.33054  1.0000
  O   O27       1.0  0.78468  0.0421  0.6694600000000002  1.0000
  O   O28       1.0  0.21532000000000004  0.0421  0.33054  1.0000
  O   O29       1.0  0.26286  0.79039  0.67665  1.0000
  O   O30       1.0  0.73714  0.79039  0.32335  1.0000
  O   O31       1.0  0.76286  0.29039  0.67665  1.0000
  O   O32       1.0  0.23714000000000002  0.29039  0.32335  1.0000
  O   O33       1.0  0.16746  0.90703  0.6709400000000001  1.0000
  O   O34       1.0  0.8325400000000001  0.90703  0.32906  1.0000
  O   O35       1.0  0.66746  0.40703  0.6709400000000001  1.0000
  O   O36       1.0  0.33254  0.40703  0.32906  1.0000
  O   O37       1.0  0.053949999999999984  0.7502199999999999  0.6751  1.0000
  O   O38       1.0  0.94605  0.7502199999999999  0.3249  1.0000
  O   O39       1.0  0.55395  0.25022  0.6751  1.0000
  O   O40       1.0  0.44605  0.25022  0.3249  1.0000
  O   O41       1.0  0.0433  0.54737  0.8273900000000001  1.0000
  O   O42       1.0  0.9567000000000001  0.54737  0.17261  1.0000
  O   O43       1.0  0.5433  0.04737  0.8273900000000001  1.0000
  O   O44       1.0  0.4567  0.04737  0.17261  1.0000
  O   O45       1.0  0.17869  0.45582  0.82186  1.0000
  O   O46       1.0  0.82131  0.45582  0.17814  1.0000
  O   O47       1.0  0.6786900000000001  0.9558199999999999  0.82186  1.0000
  O   O48       1.0  0.32131  0.9558199999999999  0.17814  1.0000
  O   O49       1.0  0.28475000000000006  0.54017  0.82886  1.0000
  O   O50       1.0  0.71525  0.54017  0.17114  1.0000
  O   O51       1.0  0.78475  0.04017  0.82886  1.0000
  O   O52       1.0  0.21525  0.04017  0.17114  1.0000
  C   C93       1.0  0.33971  0.74918  0.56188  1.0000
  O   O53       1.0  0.3413  0.64591  0.5401  1.0000
  O   O54       1.0  0.38764000000000004  0.7879699999999998  0.61303  1.0000
  H   H49       1.0  0.4205300000000001  0.72141  0.62839  1.0000
  C   C94       1.0  0.6633900000000001  0.73682  0.4401900000000001  1.0000
  O   O55       1.0  0.65722  0.63905  0.46906000000000003  1.0000
  O   O56       1.0  0.61816  0.76779  0.38502  1.0000
  H   H50       1.0  0.58506  0.6997199999999999  0.37189  1.0000
  C   C95       1.0  0.8397200000000001  0.24921  0.56189  1.0000
  O   O57       1.0  0.8413099999999996  0.14593  0.54012  1.0000
  O   O58       1.0  0.88764  0.28801  0.61303  1.0000
  H   H51       1.0  0.9205300000000001  0.22146  0.6284  1.0000
  C   C96       1.0  0.16339  0.23682  0.4401900000000001  1.0000
  O   O59       1.0  0.15722  0.13905  0.46907  1.0000
  O   O60       1.0  0.11816  0.26778  0.38502  1.0000
  H   H52       1.0  0.08506  0.19971  0.3719  1.0000
  C   C97       1.0  0.15870000000000004  0.10818999999999997  0.049760000000000006  1.0000
  O   O61       1.0  0.15  0.21536999999999995  0.03955  1.0000
  O   O62       1.0  0.10493000000000002  0.04141  0.08216  1.0000
  H   H53       1.0  0.11554  0.9520199999999999  0.08355  1.0000
  C   C98       1.0  0.7854000000000001  0.16961  0.9679  1.0000
  O   O63       1.0  0.74639  0.24586999999999995  0.9928800000000001  1.0000
  O   O64       1.0  0.8495  0.20305999999999993  0.93683  1.0000
  H   H54       1.0  0.8790999999999999  0.13124  0.92221  1.0000
  C   C99       1.0  0.65936  0.61084  0.04962  1.0000
  O   O65       1.0  0.65159  0.71781  0.03801  1.0000
  O   O66       1.0  0.60504  0.5468  0.08302  1.0000
  H   H55       1.0  0.61455  0.45708  0.08509  1.0000
  C   C100      1.0  0.2877700000000001  0.66881  0.96744  1.0000
  O   O67       1.0  0.25107  0.74638  0.99452  1.0000
  O   O68       1.0  0.35115  0.7  0.9340800000000001  1.0000
  H   H56       1.0  0.37949000000000005  0.62717  0.91867  1.0000
