data_image0
_chemical_formula_structural       C144Cr12H64O52CNCNCNCNCNCNCNCNOHOHOHOHOHOHOHOH
_chemical_formula_sum              "C152 Cr12 H72 O60 N8"
_cell_length_a       10.68864
_cell_length_b       19.957100000000004
_cell_length_c       18.727
_cell_angle_alpha    89.88133
_cell_angle_beta     90.56215
_cell_angle_gamma    90.21675999999998

_space_group_name_H-M_alt    "P 1"
_space_group_IT_number       1

loop_
  _space_group_symop_operation_xyz
  'x, y, z'

loop_
  _atom_site_type_symbol
  _atom_site_label
  _atom_site_symmetry_multiplicity
  _atom_site_fract_x
  _atom_site_fract_y
  _atom_site_fract_z
  _atom_site_occupancy
  C   C1        1.0  0.3142  0.93808  0.63631  1.0000
  C   C2        1.0  0.315  0.9371999999999998  0.8635900000000001  1.0000
  C   C3        1.0  0.31384  0.06473999999999999  0.36285  1.0000
  C   C4        1.0  0.31395  0.06365  0.13669  1.0000
  C   C5        1.0  0.8142000000000001  0.43807999999999997  0.63631  1.0000
  C   C6        1.0  0.815  0.4371999999999999  0.8635900000000001  1.0000
  C   C7        1.0  0.81384  0.5647399999999999  0.36285  1.0000
  C   C8        1.0  0.81395  0.56365  0.13669  1.0000
  C   C9        1.0  0.16396000000000002  0.7026199999999998  0.47941  1.0000
  C   C10       1.0  0.1504  0.72733  0.03703  1.0000
  C   C11       1.0  0.16313  0.26477  0.5413  1.0000
  C   C12       1.0  0.1436  0.3035399999999999  0.9815000000000002  1.0000
  C   C13       1.0  0.66396  0.20261999999999997  0.47941  1.0000
  C   C14       1.0  0.6504  0.22732999999999998  0.03703  1.0000
  C   C15       1.0  0.66313  0.7647699999999998  0.5413  1.0000
  C   C16       1.0  0.6436  0.80354  0.9815000000000002  1.0000
  C   C17       1.0  0.06272  0.73724  0.43327  1.0000
  C   C18       1.0  0.01418  0.7249199999999999  0.061209999999999994  1.0000
  C   C19       1.0  0.02639  0.27424  0.56237  1.0000
  C   C20       1.0  0.03592  0.27161  0.93782  1.0000
  C   C21       1.0  0.56272  0.23723999999999998  0.43327  1.0000
  C   C22       1.0  0.51418  0.22492  0.061209999999999994  1.0000
  C   C23       1.0  0.52639  0.77424  0.56238  1.0000
  C   C24       1.0  0.53592  0.7716099999999999  0.93782  1.0000
  C   C25       1.0  0.31104000000000004  0.042679999999999996  0.43767  1.0000
  C   C26       1.0  0.31387  0.04021999999999999  0.06231  1.0000
  C   C27       1.0  0.31331  0.96396  0.56234  1.0000
  C   C28       1.0  0.31482  0.96144  0.93808  1.0000
  C   C29       1.0  0.81104  0.54268  0.43767  1.0000
  C   C30       1.0  0.81387  0.54022  0.06231  1.0000
  C   C31       1.0  0.81331  0.46396  0.56234  1.0000
  C   C32       1.0  0.81482  0.46143  0.93808  1.0000
  C   C33       1.0  0.54169  0.04907  0.44595  1.0000
  C   C34       1.0  0.54749  0.04043999999999999  0.05988  1.0000
  C   C35       1.0  0.54534  0.95908  0.55525  1.0000
  C   C36       1.0  0.54548  0.95032  0.9510699999999999  1.0000
  C   C37       1.0  0.04169  0.54907  0.44595  1.0000
  C   C38       1.0  0.047490000000000004  0.54044  0.05988  1.0000
  C   C39       1.0  0.04534  0.45908  0.55525  1.0000
  C   C40       1.0  0.04548  0.45032  0.9510699999999999  1.0000
  C   C41       1.0  0.65444  0.024579999999999998  0.46995  1.0000
  C   C42       1.0  0.65789  0.0097  0.04172  1.0000
  C   C43       1.0  0.6563500000000001  0.9808199999999999  0.52653  1.0000
  C   C44       1.0  0.6570100000000001  0.9646199999999998  0.98662  1.0000
  C   C45       1.0  0.15444  0.52457  0.46994  1.0000
  C   C46       1.0  0.15789  0.5097  0.04172  1.0000
  C   C47       1.0  0.15635  0.48081  0.52653  1.0000
  C   C48       1.0  0.15701000000000004  0.4646199999999999  0.98662  1.0000
  C   C49       1.0  0.42736000000000013  0.98233  0.53015  1.0000
  C   C50       1.0  0.4293  0.97692  0.97295  1.0000
  C   C51       1.0  0.42582  0.02505  0.47095  1.0000
  C   C52       1.0  0.42938000000000004  0.01943  0.03225  1.0000
  C   C53       1.0  0.9273600000000001  0.48233  0.53015  1.0000
  C   C54       1.0  0.9293  0.47691999999999996  0.97295  1.0000
  C   C55       1.0  0.92582  0.52505  0.47095  1.0000
  C   C56       1.0  0.9293800000000001  0.5194299999999998  0.03225  1.0000
  C   C57       1.0  0.19596000000000002  0.98371  0.53057  1.0000
  C   C58       1.0  0.19759  0.9820599999999999  0.96826  1.0000
  C   C59       1.0  0.1933  0.02821999999999999  0.47222  1.0000
  C   C60       1.0  0.19696  0.027799999999999995  0.02521  1.0000
  C   C61       1.0  0.69596  0.4837099999999999  0.53057  1.0000
  C   C62       1.0  0.69759  0.4820599999999999  0.96826  1.0000
  C   C63       1.0  0.6933  0.52822  0.47222  1.0000
  C   C64       1.0  0.69696  0.5278  0.02521  1.0000
  C   C65       1.0  0.07802  0.9649199999999998  0.55971  1.0000
  C   C66       1.0  0.07783  0.96115  0.94056  1.0000
  C   C67       1.0  0.07088  0.056209999999999996  0.45411  1.0000
  C   C68       1.0  0.07639  0.056589999999999994  0.04215  1.0000
  C   C69       1.0  0.57802  0.46491999999999994  0.55971  1.0000
  C   C70       1.0  0.57783  0.46115  0.94056  1.0000
  C   C71       1.0  0.57088  0.55621  0.45411  1.0000
  C   C72       1.0  0.57639  0.55659  0.04215  1.0000
  C   C73       1.0  0.98036  0.00958  0.55862  1.0000
  C   C74       1.0  0.9756  0.00251  0.94466  1.0000
  C   C75       1.0  0.97484  0.0535  0.50387  1.0000
  C   C76       1.0  0.97432  0.04931  0.9963400000000001  1.0000
  C   C77       1.0  0.48036  0.50958  0.55862  1.0000
  C   C78       1.0  0.4756  0.50251  0.94466  1.0000
  C   C79       1.0  0.47484  0.5535  0.50387  1.0000
  C   C80       1.0  0.47432  0.54931  0.9963400000000001  1.0000
  C   C81       1.0  0.13079  0.75864  0.64471  1.0000
  C   C82       1.0  0.13655  0.7593699999999999  0.85754  1.0000
  C   C83       1.0  0.14245  0.23926  0.3591  1.0000
  C   C84       1.0  0.13004  0.24139999999999998  0.14504  1.0000
  C   C85       1.0  0.63079  0.25864  0.64471  1.0000
  C   C86       1.0  0.63655  0.25936999999999993  0.85754  1.0000
  C   C87       1.0  0.64245  0.7392599999999999  0.3591  1.0000
  C   C88       1.0  0.63004  0.7414  0.14504  1.0000
  C   C89       1.0  0.49667  0.7868  0.63765  1.0000
  C   C90       1.0  0.50295  0.78496  0.86267  1.0000
  C   C91       1.0  0.53806  0.22712999999999994  0.35717  1.0000
  C   C92       1.0  0.49311000000000005  0.21248999999999998  0.13809  1.0000
  C   C93       1.0  0.9966700000000002  0.2868  0.63765  1.0000
  C   C94       1.0  0.002949999999999999  0.28496  0.86267  1.0000
  C   C95       1.0  0.03806  0.7271299999999999  0.35717  1.0000
  C   C96       1.0  0.99311  0.71249  0.13809  1.0000
  C   C97       1.0  0.08419  0.8048199999999999  0.46928  1.0000
  C   C98       1.0  0.9841500000000001  0.78965  0.0201  1.0000
  C   C99       1.0  0.98737  0.21198999999999998  0.5205  1.0000
  C   C100      1.0  0.06231999999999999  0.20226999999999998  0.96893  1.0000
  C   C101      1.0  0.58418  0.30482  0.46928  1.0000
  C   C102      1.0  0.48415  0.28964  0.0201  1.0000
  C   C103      1.0  0.48738000000000004  0.71198  0.5205  1.0000
  C   C104      1.0  0.56232  0.70227  0.96893  1.0000
  C   C105      1.0  0.18579  0.7711299999999999  0.51574  1.0000
  C   C106      1.0  0.12113  0.79214  0.9956899999999999  1.0000
  C   C107      1.0  0.12507  0.20257  0.49809  1.0000
  C   C108      1.0  0.16903  0.23368999999999998  0.01323  1.0000
  C   C109      1.0  0.6857900000000001  0.27113  0.51574  1.0000
  C   C110      1.0  0.62113  0.29214  0.9956899999999999  1.0000
  C   C111      1.0  0.6250800000000001  0.70257  0.49809  1.0000
  C   C112      1.0  0.66904  0.73369  0.01323  1.0000
  C   C113      1.0  0.08618  0.75284  0.57083  1.0000
  C   C114      1.0  0.08497  0.74956  0.9297700000000001  1.0000
  C   C115      1.0  0.09998000000000001  0.24775  0.43268  1.0000
  C   C116      1.0  0.07712  0.24878  0.07309  1.0000
  C   C117      1.0  0.58618  0.25283999999999995  0.57083  1.0000
  C   C118      1.0  0.58497  0.24956  0.9297700000000001  1.0000
  C   C119      1.0  0.59998  0.74775  0.43268  1.0000
  C   C120      1.0  0.57712  0.74878  0.07309  1.0000
  C   C121      1.0  0.98427  0.78659  0.52537  1.0000
  C   C122      1.0  0.94886  0.74755  0.9530100000000001  1.0000
  C   C123      1.0  0.9639200000000001  0.25674  0.4539000000000001  1.0000
  C   C124      1.0  0.97007  0.2165  0.03005  1.0000
  C   C125      1.0  0.48427  0.28658  0.52537  1.0000
  C   C126      1.0  0.44886000000000004  0.24755  0.9530100000000001  1.0000
  C   C127      1.0  0.46392000000000005  0.75674  0.4539000000000001  1.0000
  C   C128      1.0  0.47007000000000004  0.7165  0.03005  1.0000
  C   C129      1.0  0.9607900000000001  0.7188399999999998  0.48801  1.0000
  C   C130      1.0  0.9763200000000001  0.6823999999999998  0.9955599999999999  1.0000
  C   C131      1.0  0.0018900000000000006  0.31968  0.49707000000000007  1.0000
  C   C132      1.0  0.9422000000000001  0.2861099999999999  0.99742  1.0000
  C   C133      1.0  0.46079000000000003  0.21883999999999998  0.48801  1.0000
  C   C134      1.0  0.4763200000000001  0.1824  0.9955599999999999  1.0000
  C   C135      1.0  0.50188  0.8196799999999999  0.49707000000000007  1.0000
  C   C136      1.0  0.44220000000000004  0.78611  0.99742  1.0000
  C   C137      1.0  0.06253  0.68605  0.53466  1.0000
  C   C138      1.0  0.11222000000000001  0.68536  0.9717199999999999  1.0000
  C   C139      1.0  0.13874  0.30939999999999995  0.47596000000000005  1.0000
  C   C140      1.0  0.04918  0.31703  0.04157  1.0000
  C   C141      1.0  0.56253  0.18605  0.53466  1.0000
  C   C142      1.0  0.61222  0.18535999999999997  0.9717199999999999  1.0000
  C   C143      1.0  0.63873  0.8093999999999999  0.47596000000000005  1.0000
  C   C144      1.0  0.54918  0.8170299999999999  0.04157  1.0000
  Cr  Cr1       1.0  0.48816000000000004  0.88466  0.75  1.0000
  Cr  Cr2       1.0  0.48816000000000004  0.11534  0.25  1.0000
  Cr  Cr3       1.0  0.98816  0.38466  0.75  1.0000
  Cr  Cr4       1.0  0.98816  0.6153399999999999  0.25  1.0000
  Cr  Cr5       1.0  0.17348000000000002  0.88312  0.75  1.0000
  Cr  Cr6       1.0  0.17348000000000002  0.11687999999999998  0.25  1.0000
  Cr  Cr7       1.0  0.67348  0.38312  0.75  1.0000
  Cr  Cr8       1.0  0.67348  0.61688  0.25  1.0000
  Cr  Cr9       1.0  0.33341  0.72726  0.75  1.0000
  Cr  Cr10      1.0  0.33341  0.27274  0.25  1.0000
  Cr  Cr11      1.0  0.83341  0.22726  0.75  1.0000
  Cr  Cr12      1.0  0.83341  0.77274  0.25  1.0000
  H   H1        1.0  0.27244  0.79644  0.53303  1.0000
  H   H2        1.0  0.17254  0.8399099999999999  0.00129  1.0000
  H   H3        1.0  0.18296  0.15731  0.50228  1.0000
  H   H4        1.0  0.25569  0.20777999999999996  0.02738  1.0000
  H   H5        1.0  0.77243  0.29644  0.53302  1.0000
  H   H6        1.0  0.6725400000000001  0.33991  0.00129  1.0000
  H   H7        1.0  0.68297  0.65731  0.50228  1.0000
  H   H8        1.0  0.75569  0.70778  0.02738  1.0000
  H   H9        1.0  0.90307  0.005190000000000001  0.59503  1.0000
  H   H10       1.0  0.8930400000000001  0.99357  0.91241  1.0000
  H   H11       1.0  0.89128  0.08246  0.49727000000000005  1.0000
  H   H12       1.0  0.8900900000000002  0.07730999999999999  0.00469  1.0000
  H   H13       1.0  0.40307000000000004  0.50519  0.59503  1.0000
  H   H14       1.0  0.39304  0.49357  0.91241  1.0000
  H   H15       1.0  0.39128000000000007  0.58246  0.49727000000000005  1.0000
  H   H16       1.0  0.39009000000000005  0.57731  0.00469  1.0000
  H   H17       1.0  0.09472  0.8534699999999998  0.44106  1.0000
  H   H18       1.0  0.93012  0.83278  0.04071  1.0000
  H   H19       1.0  0.9196800000000002  0.17753  0.54545  1.0000
  H   H20       1.0  0.0718  0.15714999999999998  0.93507  1.0000
  H   H21       1.0  0.59471  0.35346  0.44106999999999996  1.0000
  H   H22       1.0  0.43012  0.33277999999999996  0.04071  1.0000
  H   H23       1.0  0.41969000000000006  0.67753  0.54545  1.0000
  H   H24       1.0  0.5718  0.65715  0.93507  1.0000
  H   H25       1.0  0.91011  0.81959  0.54535  1.0000
  H   H26       1.0  0.8692500000000001  0.7555399999999999  0.9156000000000001  1.0000
  H   H27       1.0  0.88499  0.25315  0.41518  1.0000
  H   H28       1.0  0.90262  0.18053  0.05203  1.0000
  H   H29       1.0  0.4101000000000001  0.31958  0.54535  1.0000
  H   H30       1.0  0.3692500000000001  0.25554  0.9156000000000001  1.0000
  H   H31       1.0  0.38498000000000004  0.7531399999999999  0.41518  1.0000
  H   H32       1.0  0.40262  0.68053  0.05203  1.0000
  H   H33       1.0  0.8715000000000002  0.6955299999999999  0.47147  1.0000
  H   H34       1.0  0.91198  0.6396299999999999  0.99042  1.0000
  H   H35       1.0  0.9400800000000001  0.36292  0.48954  1.0000
  H   H36       1.0  0.85616  0.3124  0.98388  1.0000
  H   H37       1.0  0.37151  0.19552999999999998  0.47147  1.0000
  H   H38       1.0  0.41198  0.13963  0.99042  1.0000
  H   H39       1.0  0.44007000000000007  0.86292  0.48954  1.0000
  H   H40       1.0  0.35616  0.8124  0.98388  1.0000
  H   H41       1.0  0.2362  0.66831  0.45861  1.0000
  H   H42       1.0  0.22706  0.7216299999999999  0.07629  1.0000
  H   H43       1.0  0.24060000000000004  0.26639  0.58095  1.0000
  H   H44       1.0  0.21927000000000002  0.33425999999999995  0.9585799999999999  1.0000
  H   H45       1.0  0.7362000000000001  0.16832  0.45860000000000006  1.0000
  H   H46       1.0  0.72706  0.22163  0.07629  1.0000
  H   H47       1.0  0.7406  0.7664  0.58095  1.0000
  H   H48       1.0  0.71927  0.8342599999999998  0.9585799999999999  1.0000
  H   H49       1.0  0.73852  0.0391  0.44294  1.0000
  H   H50       1.0  0.74408  0.0228  0.06895  1.0000
  H   H51       1.0  0.74252  0.95968  0.54583  1.0000
  H   H52       1.0  0.74308  0.9413499999999998  0.9711000000000001  1.0000
  H   H53       1.0  0.23853  0.5390899999999998  0.44292999999999993  1.0000
  H   H54       1.0  0.24408000000000002  0.52281  0.06895  1.0000
  H   H55       1.0  0.24252  0.4596799999999999  0.54583  1.0000
  H   H56       1.0  0.24308000000000005  0.44134999999999996  0.9711000000000001  1.0000
  H   H57       1.0  0.5478400000000001  0.08976000000000002  0.41054  1.0000
  H   H58       1.0  0.55851  0.08196999999999999  0.09429  1.0000
  H   H59       1.0  0.5558500000000001  0.9197999999999998  0.59294  1.0000
  H   H60       1.0  0.55212  0.9137199999999999  0.9108600000000001  1.0000
  H   H61       1.0  0.04784  0.58975  0.41054  1.0000
  H   H62       1.0  0.05850999999999999  0.58197  0.09429  1.0000
  H   H63       1.0  0.055850000000000004  0.4197999999999999  0.59294  1.0000
  H   H64       1.0  0.05212  0.41372  0.9108600000000001  1.0000
  O   O1        1.0  0.57545  0.8288199999999999  0.66795  1.0000
  O   O2        1.0  0.57545  0.8288199999999999  0.83205  1.0000
  O   O3        1.0  0.57545  0.17118  0.33205  1.0000
  O   O4        1.0  0.57545  0.17118  0.16795  1.0000
  O   O5        1.0  0.07545000000000003  0.32881999999999995  0.66795  1.0000
  O   O6        1.0  0.07545  0.32881999999999995  0.83205  1.0000
  O   O7        1.0  0.07545  0.6711799999999999  0.33205  1.0000
  O   O8        1.0  0.07545  0.6711799999999999  0.16795  1.0000
  O   O9        1.0  0.41686  0.94289  0.67468  1.0000
  O   O10       1.0  0.41686  0.94289  0.82532  1.0000
  O   O11       1.0  0.41686  0.057109999999999994  0.32532  1.0000
  O   O12       1.0  0.41686  0.057109999999999994  0.17468  1.0000
  O   O13       1.0  0.9168600000000001  0.44289  0.67468  1.0000
  O   O14       1.0  0.9168600000000001  0.44289  0.82532  1.0000
  O   O15       1.0  0.9168600000000001  0.55711  0.32532  1.0000
  O   O16       1.0  0.9168600000000001  0.55711  0.17468  1.0000
  O   O17       1.0  0.21379  0.9536799999999999  0.66833  1.0000
  O   O18       1.0  0.21379  0.9536799999999999  0.83167  1.0000
  O   O19       1.0  0.21379  0.04632  0.33167  1.0000
  O   O20       1.0  0.21379  0.04632  0.16833  1.0000
  O   O21       1.0  0.7137900000000003  0.45367999999999997  0.66833  1.0000
  O   O22       1.0  0.71379  0.45367999999999997  0.83167  1.0000
  O   O23       1.0  0.71379  0.54632  0.33167  1.0000
  O   O24       1.0  0.71379  0.54632  0.16833  1.0000
  O   O25       1.0  0.12136  0.8178899999999998  0.67266  1.0000
  O   O26       1.0  0.12136  0.8178899999999998  0.82734  1.0000
  O   O27       1.0  0.12136  0.18210999999999994  0.32734  1.0000
  O   O28       1.0  0.12136  0.18210999999999994  0.17266  1.0000
  O   O29       1.0  0.62136  0.31788999999999995  0.67266  1.0000
  O   O30       1.0  0.62136  0.31788999999999995  0.82734  1.0000
  O   O31       1.0  0.62136  0.68211  0.32734  1.0000
  O   O32       1.0  0.62136  0.68211  0.17266  1.0000
  O   O33       1.0  0.20685  0.71137  0.66582  1.0000
  O   O34       1.0  0.20685  0.71137  0.8341799999999999  1.0000
  O   O35       1.0  0.20685  0.28862999999999994  0.33418  1.0000
  O   O36       1.0  0.20685  0.28862999999999994  0.16582  1.0000
  O   O37       1.0  0.70685  0.21137  0.66582  1.0000
  O   O38       1.0  0.70685  0.21137  0.8341799999999999  1.0000
  O   O39       1.0  0.70685  0.7886299999999999  0.33418  1.0000
  O   O40       1.0  0.70685  0.7886299999999999  0.16582  1.0000
  O   O41       1.0  0.45771  0.73319  0.67263  1.0000
  O   O42       1.0  0.45771  0.73319  0.82737  1.0000
  O   O43       1.0  0.45771  0.26680999999999994  0.32737  1.0000
  O   O44       1.0  0.45771  0.26680999999999994  0.17263  1.0000
  O   O45       1.0  0.9577100000000001  0.23319  0.67263  1.0000
  O   O46       1.0  0.9577100000000001  0.23319  0.82737  1.0000
  O   O47       1.0  0.9577100000000001  0.7668099999999999  0.32737  1.0000
  O   O48       1.0  0.9577100000000001  0.7668099999999999  0.17263  1.0000
  O   O49       1.0  0.33169  0.83168  0.75  1.0000
  O   O50       1.0  0.33169  0.16832  0.25  1.0000
  O   O51       1.0  0.8316900000000002  0.33168  0.75  1.0000
  O   O52       1.0  0.8316900000000002  0.66832  0.25  1.0000
  C   C145      1.0  0.04213  0.63014  0.58423  1.0000
  N   N1        1.0  0.02608  0.58877  0.62652  1.0000
  C   C146      1.0  0.17537  0.62842  0.9390099999999999  1.0000
  N   N2        1.0  0.22365000000000002  0.5854  0.9088  1.0000
  C   C147      1.0  0.23221000000000006  0.35837999999999987  0.45159999999999995  1.0000
  N   N3        1.0  0.3076  0.39519999999999994  0.4308100000000001  1.0000
  C   C148      1.0  0.02779  0.37062  0.09367  1.0000
  N   N4        1.0  0.01011  0.41046  0.13716  1.0000
  C   C149      1.0  0.54213  0.13013999999999998  0.58423  1.0000
  N   N5        1.0  0.52607  0.08878  0.62651  1.0000
  C   C150      1.0  0.67537  0.12841999999999998  0.9390099999999999  1.0000
  N   N6        1.0  0.72365  0.0854  0.9088  1.0000
  C   C151      1.0  0.73218  0.8584  0.45159  1.0000
  N   N7        1.0  0.80753  0.8952199999999999  0.43077999999999994  1.0000
  C   C152      1.0  0.52779  0.8706199999999998  0.09367  1.0000
  N   N8        1.0  0.51011  0.9104599999999999  0.13716  1.0000
  O   O53       1.0  0.04381000000000001  0.08951999999999999  0.39221  1.0000
  H   H65       1.0  0.9529900000000001  0.09929  0.3876  1.0000
  O   O54       1.0  0.05444000000000001  0.09357999999999998  0.10109  1.0000
  H   H66       1.0  0.96614  0.08791999999999998  0.11633  1.0000
  O   O55       1.0  0.06028000000000001  0.9038  0.59011  1.0000
  H   H67       1.0  0.9791200000000001  0.90307  0.61558  1.0000
  O   O56       1.0  0.06085000000000001  0.89993  0.9103299999999999  1.0000
  H   H68       1.0  0.9711000000000001  0.892  0.89859  1.0000
  O   O57       1.0  0.54381  0.58952  0.39221  1.0000
  H   H69       1.0  0.45299  0.59929  0.3876  1.0000
  O   O58       1.0  0.55444  0.59358  0.10109  1.0000
  H   H70       1.0  0.46614000000000005  0.5879199999999999  0.11633  1.0000
  O   O59       1.0  0.56028  0.4038  0.59011  1.0000
  H   H71       1.0  0.47912000000000005  0.40306  0.61558  1.0000
  O   O60       1.0  0.56085  0.39992999999999995  0.9103299999999999  1.0000
  H   H72       1.0  0.4711000000000001  0.39199999999999996  0.89858  1.0000
