data_image0
_chemical_formula_structural       C108Cr6O26H24CH3CH3CH3CH3CH3CH3CH3CH3CH3CH3CH3CH15
_chemical_formula_sum              "C120 Cr6 O26 H72"
_cell_length_a       12.61726
_cell_length_b       12.617559999999997
_cell_length_c       26.80165
_cell_angle_alpha    89.99787
_cell_angle_beta     90.0034
_cell_angle_gamma    120.00188

_space_group_name_H-M_alt    "P 1"
_space_group_IT_number       1

loop_
  _space_group_symop_operation_xyz
  'x, y, z'

loop_
  _atom_site_type_symbol
  _atom_site_label
  _atom_site_symmetry_multiplicity
  _atom_site_fract_x
  _atom_site_fract_y
  _atom_site_fract_z
  _atom_site_occupancy
  C   C1        1.0  0.55615  0.45796  0.8215699999999998  1.0000
  C   C2        1.0  0.9017999999999998  0.44384  0.67843  1.0000
  C   C3        1.0  0.54204  0.09819  0.8215699999999998  1.0000
  C   C4        1.0  0.55615  0.45796  0.67843  1.0000
  C   C5        1.0  0.9018099999999998  0.44385  0.8215699999999998  1.0000
  C   C6        1.0  0.54204  0.09821999999999999  0.67842  1.0000
  C   C7        1.0  0.4579599999999999  0.55614  0.32157  1.0000
  C   C8        1.0  0.44385  0.90182  0.17843  1.0000
  C   C9        1.0  0.09818  0.54204  0.32157  1.0000
  C   C10       1.0  0.4579599999999999  0.55615  0.17843  1.0000
  C   C11       1.0  0.44388  0.90184  0.32156  1.0000
  C   C12       1.0  0.09818  0.54204  0.17843  1.0000
  C   C13       1.0  0.9975799999999998  0.50145  0.97376  1.0000
  C   C14       1.0  0.50401  0.00278  0.52618  1.0000
  C   C15       1.0  0.4985399999999999  0.49614  0.9737499999999999  1.0000
  C   C16       1.0  0.9975499999999998  0.50143  0.52624  1.0000
  C   C17       1.0  0.50386  0.0024  0.9737499999999999  1.0000
  C   C18       1.0  0.49856  0.49611  0.52624  1.0000
  C   C19       1.0  0.50168  0.9979999999999999  0.47369  1.0000
  C   C20       1.0  0.0023599999999999906  0.50384  0.02625  1.0000
  C   C21       1.0  0.49617  0.49849000000000004  0.47374  1.0000
  C   C22       1.0  0.50147  0.99762  0.02625  1.0000
  C   C23       1.0  0.00233000000000001  0.50383  0.47374  1.0000
  C   C24       1.0  0.4961499999999999  0.49853  0.02625  1.0000
  C   C25       1.0  0.99204  0.69145  0.97409  1.0000
  C   C26       1.0  0.6993199999999999  0.0078000000000000005  0.52591  1.0000
  C   C27       1.0  0.30857999999999997  0.30054  0.97409  1.0000
  C   C28       1.0  0.99204  0.69145  0.5259  1.0000
  C   C29       1.0  0.6994599999999999  0.00804  0.9741  1.0000
  C   C30       1.0  0.30857999999999997  0.30055  0.5259  1.0000
  C   C31       1.0  0.69129  0.99168  0.4741  1.0000
  C   C32       1.0  0.008160000000000014  0.69951  0.025889999999999996  1.0000
  C   C33       1.0  0.30051999999999995  0.3086  0.4740899999999999  1.0000
  C   C34       1.0  0.6914  0.99192  0.02591  1.0000
  C   C35       1.0  0.008160000000000014  0.69951  0.4740899999999999  1.0000
  C   C36       1.0  0.30051999999999995  0.3086  0.0259  1.0000
  C   C37       1.0  0.9660999999999998  0.58063  0.89617  1.0000
  C   C38       1.0  0.61448  0.0339  0.60381  1.0000
  C   C39       1.0  0.41939  0.38544000000000006  0.89617  1.0000
  C   C40       1.0  0.9660699999999999  0.58062  0.60382  1.0000
  C   C41       1.0  0.61456  0.03395  0.8961799999999999  1.0000
  C   C42       1.0  0.41939  0.38542999999999994  0.60382  1.0000
  C   C43       1.0  0.58065  0.96601  0.39615  1.0000
  C   C44       1.0  0.03398  0.61459  0.10382999999999998  1.0000
  C   C45       1.0  0.38543  0.41937  0.39616  1.0000
  C   C46       1.0  0.5806099999999998  0.96605  0.10382999999999998  1.0000
  C   C47       1.0  0.03397000000000001  0.61458  0.39617  1.0000
  C   C48       1.0  0.38543  0.41939  0.10382999999999998  1.0000
  C   C49       1.0  0.03345999999999998  0.5176  0.12998  1.0000
  C   C50       1.0  0.48428  0.96669  0.36997  1.0000
  C   C51       1.0  0.4824  0.51588  0.12998  1.0000
  C   C52       1.0  0.03345999999999998  0.5176  0.37001  1.0000
  C   C53       1.0  0.48411999999999994  0.96652  0.12998  1.0000
  C   C54       1.0  0.48241  0.51586  0.37001  1.0000
  C   C55       1.0  0.51759  0.03365  0.62993  1.0000
  C   C56       1.0  0.96652  0.48410000000000003  0.8700199999999998  1.0000
  C   C57       1.0  0.51589  0.48239  0.62997  1.0000
  C   C58       1.0  0.5176  0.03349  0.8700199999999998  1.0000
  C   C59       1.0  0.9665  0.48409  0.62997  1.0000
  C   C60       1.0  0.51589  0.4824  0.8700199999999998  1.0000
  C   C61       1.0  0.9875799999999998  0.59317  0.9476899999999999  1.0000
  C   C62       1.0  0.6055899999999999  0.012489999999999998  0.55228  1.0000
  C   C63       1.0  0.40684  0.39438  0.9476899999999999  1.0000
  C   C64       1.0  0.98756  0.59316  0.5523  1.0000
  C   C65       1.0  0.60562  0.01246  0.9477  1.0000
  C   C66       1.0  0.40685000000000004  0.39437000000000005  0.5523  1.0000
  C   C67       1.0  0.59322  0.9875800000000001  0.44767  1.0000
  C   C68       1.0  0.012480000000000007  0.60564  0.0523  1.0000
  C   C69       1.0  0.39438  0.40682  0.44769  1.0000
  C   C70       1.0  0.59316  0.9875400000000001  0.05231  1.0000
  C   C71       1.0  0.012480000000000007  0.60563  0.44769  1.0000
  C   C72       1.0  0.39437  0.40684000000000003  0.05231  1.0000
  C   C73       1.0  0.004739999999999968  0.4096  0.89498  1.0000
  C   C74       1.0  0.40496  0.99574  0.60493  1.0000
  C   C75       1.0  0.59037  0.59515  0.8949699999999998  1.0000
  C   C76       1.0  0.00473000000000001  0.40959  0.60502  1.0000
  C   C77       1.0  0.40485  0.99522  0.8949699999999998  1.0000
  C   C78       1.0  0.59038  0.59513  0.60502  1.0000
  C   C79       1.0  0.4100599999999999  0.00534  0.39486  1.0000
  C   C80       1.0  0.99512  0.40484000000000003  0.10505  1.0000
  C   C81       1.0  0.59517  0.5903  0.39495  1.0000
  C   C82       1.0  0.4096599999999999  0.00481  0.10504  1.0000
  C   C83       1.0  0.99512  0.40483  0.39495  1.0000
  C   C84       1.0  0.59515  0.59034  0.10504  1.0000
  C   C85       1.0  0.0033900000000000297  0.40757000000000004  0.94744  1.0000
  C   C86       1.0  0.40442  0.99723  0.55247  1.0000
  C   C87       1.0  0.5923899999999999  0.59584  0.9474299999999999  1.0000
  C   C88       1.0  0.0033500000000000205  0.40755  0.55256  1.0000
  C   C89       1.0  0.4041600000000001  0.9965600000000001  0.9474299999999999  1.0000
  C   C90       1.0  0.5924199999999998  0.5958  0.55256  1.0000
  C   C91       1.0  0.40803999999999996  0.00417  0.44732  1.0000
  C   C92       1.0  0.99644  0.40412  0.05257999999999999  1.0000
  C   C93       1.0  0.5958799999999999  0.59231  0.44742  1.0000
  C   C94       1.0  0.4076299999999999  0.00349  0.05256999999999999  1.0000
  C   C95       1.0  0.9964199999999999  0.4041  0.44742  1.0000
  C   C96       1.0  0.5958499999999999  0.59237  0.05257999999999999  1.0000
  C   C97       1.0  0.99597  0.30802  0.02586  1.0000
  C   C98       1.0  0.31256  0.00501  0.47402  1.0000
  C   C99       1.0  0.6919299999999999  0.68803  0.02585  1.0000
  C   C100      1.0  0.99594  0.308  0.4741399999999999  1.0000
  C   C101      1.0  0.31198  0.00391  0.02584  1.0000
  C   C102      1.0  0.6919699999999998  0.68796  0.4741399999999999  1.0000
  C   C103      1.0  0.3086099999999999  0.99729  0.52571  1.0000
  C   C104      1.0  0.003719999999999993  0.31188  0.97418  1.0000
  C   C105      1.0  0.68811  0.69183  0.52583  1.0000
  C   C106      1.0  0.30811  0.99618  0.97416  1.0000
  C   C107      1.0  0.00366999999999999  0.31185  0.52583  1.0000
  C   C108      1.0  0.6880699999999997  0.69189  0.97416  1.0000
  Cr  Cr1       1.0  0.48763  0.24118000000000003  0.7499999999999999  1.0000
  Cr  Cr2       1.0  0.75355  0.51237  0.7499999999999999  1.0000
  Cr  Cr3       1.0  0.75882  0.24645  0.7499999999999999  1.0000
  Cr  Cr4       1.0  0.24117999999999998  0.48763  0.25  1.0000
  Cr  Cr5       1.0  0.51237  0.75355  0.25  1.0000
  Cr  Cr6       1.0  0.24644999999999995  0.75882  0.25  1.0000
  O   O1        1.0  0.46086999999999995  0.12093  0.80524  1.0000
  O   O2        1.0  0.66006  0.53913  0.6947599999999998  1.0000
  O   O3        1.0  0.87907  0.33994  0.80524  1.0000
  O   O4        1.0  0.46086999999999995  0.12093  0.6947599999999998  1.0000
  O   O5        1.0  0.66006  0.53913  0.80524  1.0000
  O   O6        1.0  0.87907  0.33994  0.6947599999999998  1.0000
  O   O7        1.0  0.12092999999999995  0.46087  0.30524  1.0000
  O   O8        1.0  0.53913  0.66006  0.19476  1.0000
  O   O9        1.0  0.3399399999999999  0.87907  0.30524  1.0000
  O   O10       1.0  0.12092999999999995  0.46087  0.19476  1.0000
  O   O11       1.0  0.53913  0.66006  0.30524  1.0000
  O   O12       1.0  0.3399399999999999  0.87907  0.19476  1.0000
  O   O13       1.0  0.49891  0.35047  0.80187  1.0000
  O   O14       1.0  0.85156  0.50109  0.69813  1.0000
  O   O15       1.0  0.6495299999999998  0.14844  0.80187  1.0000
  O   O16       1.0  0.49891  0.35047  0.69813  1.0000
  O   O17       1.0  0.85156  0.50109  0.80187  1.0000
  O   O18       1.0  0.6495299999999998  0.14844  0.69813  1.0000
  O   O19       1.0  0.35046999999999995  0.49890999999999996  0.30187  1.0000
  O   O20       1.0  0.5010899999999999  0.85156  0.19813  1.0000
  O   O21       1.0  0.14844  0.64953  0.30187  1.0000
  O   O22       1.0  0.35046999999999995  0.49890999999999996  0.19813  1.0000
  O   O23       1.0  0.5010899999999999  0.85156  0.30187  1.0000
  O   O24       1.0  0.14844  0.64953  0.19813  1.0000
  O   O25       1.0  0.6666699999999998  0.33333  0.7499999999999999  1.0000
  O   O26       1.0  0.33333  0.66667  0.25  1.0000
  H   H1        1.0  0.05689  0.69907  0.12299  1.0000
  H   H2        1.0  0.64209  0.9428700000000001  0.37702  1.0000
  H   H3        1.0  0.30095  0.35779  0.123  1.0000
  H   H4        1.0  0.05688000000000001  0.69907  0.377  1.0000
  H   H5        1.0  0.6422199999999999  0.94318  0.123  1.0000
  H   H6        1.0  0.30095  0.35779  0.377  1.0000
  H   H7        1.0  0.6988299999999998  0.05647  0.62302  1.0000
  H   H8        1.0  0.94329  0.64226  0.8769899999999999  1.0000
  H   H9        1.0  0.35778999999999994  0.30096  0.6229899999999999  1.0000
  H   H10       1.0  0.69903  0.0568  0.877  1.0000
  H   H11       1.0  0.9432499999999998  0.64225  0.623  1.0000
  H   H12       1.0  0.3577799999999999  0.30097  0.877  1.0000
  H   H13       1.0  0.015399999999999988  0.77813  0.04536999999999999  1.0000
  H   H14       1.0  0.76257  0.9842300000000002  0.45464999999999994  1.0000
  H   H15       1.0  0.22192999999999993  0.23721  0.04537999999999999  1.0000
  H   H16       1.0  0.015419999999999975  0.77814  0.4546099999999999  1.0000
  H   H17       1.0  0.7627999999999998  0.98472  0.04538999999999999  1.0000
  H   H18       1.0  0.22191  0.23722  0.4546099999999999  1.0000
  H   H19       1.0  0.7777699999999997  0.014720000000000002  0.54542  1.0000
  H   H20       1.0  0.98491  0.76287  0.9546  1.0000
  H   H21       1.0  0.23716  0.22197999999999998  0.54539  1.0000
  H   H22       1.0  0.7780399999999998  0.015220000000000001  0.95462  1.0000
  H   H23       1.0  0.98491  0.76288  0.54539  1.0000
  H   H24       1.0  0.23717999999999995  0.22196  0.9546099999999997  1.0000
  C   C109      1.0  0.9515399999999998  0.2863  0.13353  1.0000
  H   H25       1.0  0.92072  0.29193  0.17173999999999998  1.0000
  H   H26       1.0  0.87015  0.21067  0.11489  1.0000
  H   H27       1.0  0.02545999999999999  0.26297  0.13541  1.0000
  C   C110      1.0  0.33529  0.049060000000000006  0.36632  1.0000
  H   H28       1.0  0.37164999999999987  0.07953  0.32808  1.0000
  H   H29       1.0  0.23793999999999996  0.97533  0.36451999999999996  1.0000
  H   H30       1.0  0.34139  0.1307  0.38487  1.0000
  C   C111      1.0  0.7137  0.66533  0.13352  1.0000
  H   H31       1.0  0.7081  0.62886  0.17171999999999996  1.0000
  H   H32       1.0  0.78934  0.65962  0.11486  1.0000
  H   H33       1.0  0.7369799999999999  0.76255  0.13541  1.0000
  C   C112      1.0  0.95153  0.28629  0.36646  1.0000
  H   H34       1.0  0.92071  0.29192  0.32826  1.0000
  H   H35       1.0  0.025459999999999972  0.26298  0.36457999999999996  1.0000
  H   H36       1.0  0.8701599999999998  0.21066  0.38511  1.0000
  C   C113      1.0  0.3346799999999999  0.04838  0.13351  1.0000
  H   H37       1.0  0.23745999999999995  0.97443  0.13542  1.0000
  H   H38       1.0  0.37119  0.07929  0.17169999999999996  1.0000
  H   H39       1.0  0.34034999999999993  0.1297  0.11484  1.0000
  C   C114      1.0  0.71371  0.66526  0.36647  1.0000
  H   H40       1.0  0.7080799999999999  0.62882  0.32827  1.0000
  H   H41       1.0  0.73702  0.7625000000000001  0.36458999999999997  1.0000
  H   H42       1.0  0.78934  0.65953  0.38512  1.0000
  C   C115      1.0  0.28636  0.95242  0.6333499999999999  1.0000
  H   H43       1.0  0.26359999999999995  0.02671  0.63541  1.0000
  H   H44       1.0  0.21050999999999997  0.8715200000000001  0.61455  1.0000
  H   H45       1.0  0.29159999999999997  0.92096  0.67147  1.0000
  C   C116      1.0  0.04825999999999999  0.33456  0.86651  1.0000
  H   H46       1.0  0.9742799999999999  0.23735000000000003  0.86463  1.0000
  H   H47       1.0  0.07914  0.371  0.82831  1.0000
  H   H48       1.0  0.12958  0.34024  0.8851799999999997  1.0000
  C   C117      1.0  0.6653799999999997  0.71368  0.6334899999999999  1.0000
  H   H49       1.0  0.6288999999999998  0.70811  0.67169  1.0000
  H   H50       1.0  0.7626  0.73693  0.6354  1.0000
  H   H51       1.0  0.65973  0.78932  0.61482  1.0000
  C   C118      1.0  0.28629999999999994  0.9516700000000001  0.86649  1.0000
  H   H52       1.0  0.29188  0.92077  0.8282999999999999  1.0000
  H   H53       1.0  0.21063  0.87036  0.8851599999999997  1.0000
  H   H54       1.0  0.26305999999999996  0.025650000000000003  0.8645799999999998  1.0000
  C   C119      1.0  0.04828000000000001  0.33458  0.6334899999999999  1.0000
  H   H55       1.0  0.9743099999999999  0.23736  0.63539  1.0000
  H   H56       1.0  0.12961  0.34026  0.61482  1.0000
  H   H57       1.0  0.07918000000000003  0.37105  0.67169  1.0000
  C   C120      1.0  0.66536  0.71369  0.86649  1.0000
  H   H58       1.0  0.62889  0.7081  0.82829  1.0000
  H   H59       1.0  0.65968  0.7893399999999999  0.88515  1.0000
  H   H60       1.0  0.76259  0.73696  0.8645999999999998  1.0000
  H   H61       1.0  0.9948399999999997  0.23152000000000003  0.04462  1.0000
  H   H62       1.0  0.23734999999999995  0.00642  0.45524  1.0000
  H   H63       1.0  0.76842  0.76342  0.04461  1.0000
  H   H64       1.0  0.9948  0.23149  0.45538  1.0000
  H   H65       1.0  0.23657999999999998  0.005  0.0446  1.0000
  H   H66       1.0  0.7684700000000001  0.7633300000000001  0.45538  1.0000
  H   H67       1.0  0.23226  0.99655  0.54444  1.0000
  H   H68       1.0  0.004760000000000008  0.23646000000000003  0.95542  1.0000
  H   H69       1.0  0.76353  0.76831  0.54459  1.0000
  H   H70       1.0  0.23162999999999995  0.9951200000000001  0.9554  1.0000
  H   H71       1.0  0.004690000000000018  0.23641000000000004  0.54459  1.0000
  H   H72       1.0  0.76347  0.7683700000000001  0.9554  1.0000
