data_image0
_chemical_formula_structural       O2CO2CO2CO2CO2CO2CCr3OC10HC12HC6HC10H2C10HO2CO2CO2CO2CO2CO2CCr3ONH2NO2NH2NO2NO2NO2NO2NH2NH2NH2NO2NO2NO2NO2NO2NO2NO2NO2
_chemical_formula_sum              "O52 C60 Cr6 H16 N18"
_cell_length_a       11.1271
_cell_length_b       12.72323
_cell_length_c       23.490689999999997
_cell_angle_alpha    90.72053999999999
_cell_angle_beta     96.56442
_cell_angle_gamma    68.83839

_symmetry_space_group_name_H-M    'P 1'
_symmetry_Int_Tables_number       1

loop_
  _symmetry_equiv_pos_as_xyz
  'x,y,z'

loop_
  _atom_site_type_symbol
  _atom_site_label
  _atom_site_symmetry_multiplicity
  _atom_site_fract_x
  _atom_site_fract_y
  _atom_site_fract_z
  _atom_site_occupancy
  O   O1        1.0  0.1963400000000001  0.3032  0.4485  1.0000
  O   O2        1.0  0.19931  0.51967  0.45488  1.0000
  C   C1        1.0  0.15079000000000004  0.61676  0.42940000000000006  1.0000
  O   O3        1.0  0.045659999999999985  0.69138  0.44168  1.0000
  O   O4        1.0  0.8119299999999999  0.65946  0.43095000000000006  1.0000
  C   C2        1.0  0.7453299999999999  0.60535  0.40479  1.0000
  O   O5        1.0  0.7579  0.50762  0.42176  1.0000
  O   O6        1.0  0.98863  0.3229899999999999  0.43984  1.0000
  C   C3        1.0  0.10147000000000002  0.28137  0.42373  1.0000
  O   O7        1.0  0.19638  0.30172  0.57385  1.0000
  O   O8        1.0  0.19935  0.5183  0.57108  1.0000
  C   C4        1.0  0.15307000000000004  0.6192399999999999  0.5895  1.0000
  O   O9        1.0  0.04570000000000005  0.6898999999999997  0.56703  1.0000
  O   O10       1.0  0.8119600000000002  0.65809  0.54715  1.0000
  C   C5        1.0  0.7492299999999998  0.6024199999999998  0.56585  1.0000
  O   O11       1.0  0.75793  0.50614  0.54711  1.0000
  O   O12       1.0  0.98867  0.32162  0.55604  1.0000
  C   C6        1.0  0.09930999999999998  0.27726  0.58502  1.0000
  Cr  Cr1       1.0  0.18976999999999997  0.41565  0.51162  1.0000
  Cr  Cr2       1.0  0.9304  0.6673200000000001  0.49677  1.0000
  Cr  Cr3       1.0  0.87987  0.41701  0.49165  1.0000
  O   O13       1.0  2.0000000000034225e-05  0.4999899999999999  0.50001  1.0000
  C   C7        1.0  0.66259  0.76181  0.1413  1.0000
  C   C8        1.0  0.67841  0.6413699999999999  0.34645000000000004  1.0000
  C   C9        1.0  0.65617  0.56311  0.25276  1.0000
  C   C10       1.0  0.64755  0.5608799999999999  0.31159  1.0000
  C   C11       1.0  0.6761500000000001  0.7418  0.32113  1.0000
  C   C12       1.0  0.6708000000000001  0.74982  0.26112  1.0000
  C   C13       1.0  0.67677  0.65467  0.22793  1.0000
  C   C14       1.0  0.6931800000000001  0.65703  0.16973  1.0000
  C   C15       1.0  0.6551  0.8578399999999999  0.17402  1.0000
  C   C16       1.0  0.6621899999999997  0.84989  0.23368  1.0000
  H   H1        1.0  0.65473  0.9242499999999998  0.25801  1.0000
  C   C17       1.0  0.23391999999999993  0.16468  0.12217  1.0000
  C   C18       1.0  0.17255000000000004  0.2356  0.22531  1.0000
  C   C19       1.0  0.16166  0.16106999999999994  0.26404  1.0000
  C   C20       1.0  0.1352  0.19565  0.32167  1.0000
  C   C21       1.0  0.20621  0.19995999999999994  0.16863  1.0000
  C   C22       1.0  0.11724999999999997  0.22965000000000002  0.36923  1.0000
  C   C23       1.0  0.17008  0.7555  0.12519  1.0000
  C   C24       1.0  0.13725000000000015  0.7139699999999998  0.23138000000000006  1.0000
  C   C25       1.0  0.23990999999999996  0.66151  0.27056  1.0000
  C   C26       1.0  0.22307000000000002  0.64557  0.32956  1.0000
  C   C27       1.0  0.15692000000000003  0.73368  0.17335000000000003  1.0000
  C   C28       1.0  0.19742  0.6328299999999999  0.37692  1.0000
  H   H2        1.0  0.3376999999999999  0.63105  0.25842  1.0000
  C   C29       1.0  0.6302  0.7567  0.86533  1.0000
  C   C30       1.0  0.7044500000000001  0.71402  0.7618200000000002  1.0000
  C   C31       1.0  0.61816  0.70055  0.7198100000000001  1.0000
  C   C32       1.0  0.6528599999999999  0.66842  0.66309  1.0000
  C   C33       1.0  0.6671999999999998  0.73828  0.81868  1.0000
  C   C34       1.0  0.69021  0.63942  0.61722  1.0000
  H   H3        1.0  0.52087  0.7104899999999998  0.72854  1.0000
  C   C35       1.0  0.20895000000000002  0.18630999999999998  0.8549500000000001  1.0000
  C   C36       1.0  0.10468000000000001  0.22248999999999997  0.64067  1.0000
  C   C37       1.0  0.98663  0.22874999999999995  0.7222600000000001  1.0000
  C   C38       1.0  0.9876999999999999  0.23338999999999993  0.66316  1.0000
  C   C39       1.0  0.22222  0.18926  0.67714  1.0000
  C   C40       1.0  0.21894  0.19479  0.73696  1.0000
  C   C41       1.0  0.10002000000000005  0.21005999999999997  0.7591000000000001  1.0000
  C   C42       1.0  0.09889999999999997  0.19567999999999997  0.8178700000000001  1.0000
  C   C43       1.0  0.31111  0.20992999999999995  0.83356  1.0000
  C   C44       1.0  0.32705  0.19248  0.77569  1.0000
  H   H4        1.0  0.01629  0.18541  0.83413  1.0000
  H   H5        1.0  0.89753  0.23656999999999995  0.73948  1.0000
  C   C45       1.0  0.12905999999999998  0.75408  0.8486  1.0000
  C   C46       1.0  0.2068  0.65032  0.64495  1.0000
  C   C47       1.0  0.3245499999999999  0.57812  0.7380700000000001  1.0000
  C   C48       1.0  0.31543  0.57305  0.6778  1.0000
  C   C49       1.0  0.13213999999999998  0.75065  0.66984  1.0000
  C   C50       1.0  0.13601  0.75452  0.7298400000000002  1.0000
  C   C51       1.0  0.22352000000000002  0.66076  0.76424  1.0000
  C   C52       1.0  0.21269000000000007  0.6576799999999998  0.82383  1.0000
  C   C53       1.0  0.03825000000000012  0.8406899999999998  0.81343  1.0000
  C   C54       1.0  0.04969000000000002  0.84737  0.75604  1.0000
  H   H6        1.0  0.9725399999999998  0.9148  0.8318300000000001  1.0000
  O   O14       1.0  0.11365999999999997  0.88327  0.04782  1.0000
  O   O15       1.0  0.18693  0.06853  0.04399  1.0000
  C   C55       1.0  0.26529  0.11085  0.06911  1.0000
  O   O16       1.0  0.37777  0.08903999999999997  0.05422  1.0000
  O   O17       1.0  0.5628  0.8729599999999998  0.05697  1.0000
  C   C56       1.0  0.5997099999999999  0.77591  0.0817  1.0000
  O   O18       1.0  0.55539  0.70094  0.0627  1.0000
  O   O19       1.0  0.2950200000000001  0.7319199999999998  0.04995  1.0000
  C   C57       1.0  0.18986999999999998  0.78871  0.06997  1.0000
  O   O20       1.0  0.09429000000000015  0.8842299999999997  0.9215500000000001  1.0000
  O   O21       1.0  0.16897999999999996  0.06941  0.92694  1.0000
  C   C58       1.0  0.24126000000000009  0.11864999999999995  0.9087200000000001  1.0000
  O   O22       1.0  0.3584  0.08999  0.92795  1.0000
  O   O23       1.0  0.5448499999999998  0.8738499999999998  0.93992  1.0000
  C   C59       1.0  0.5741799999999999  0.77647  0.9182500000000002  1.0000
  O   O24       1.0  0.53602  0.7018999999999999  0.93643  1.0000
  O   O25       1.0  0.27707000000000004  0.7328099999999999  0.93289  1.0000
  C   C60       1.0  0.16365000000000007  0.7864899999999998  0.90672  1.0000
  Cr  Cr4       1.0  0.14950000000000008  0.9739799999999998  0.98533  1.0000
  Cr  Cr5       1.0  0.4570000000000001  0.9765099999999998  0.9946600000000001  1.0000
  Cr  Cr6       1.0  0.41117  0.72427  0.99527  1.0000
  O   O26       1.0  0.3392200000000002  0.8915899999999998  0.9917500000000001  1.0000
  N   N1        1.0  0.74936  0.553  0.14108  1.0000
  H   H7        1.0  0.8184  0.56043  0.11631  1.0000
  H   H8        1.0  0.6782800000000001  0.53459  0.1145  1.0000
  N   N2        1.0  0.007240000000000096  0.7591599999999997  0.24661000000000002  1.0000
  O   O27       1.0  0.9269  0.85452  0.22337000000000004  1.0000
  O   O28       1.0  0.96531  0.70127  0.27928  1.0000
  N   N3        1.0  0.83439  0.7005999999999999  0.75236  1.0000
  H   H9        1.0  0.8296300000000001  0.7565699999999999  0.71921  1.0000
  H   H10       1.0  0.8808600000000001  0.61846  0.73919  1.0000
  N   N4        1.0  0.40528000000000003  0.23801999999999998  0.8718400000000001  1.0000
  O   O29       1.0  0.52891  0.18117  0.8723300000000002  1.0000
  O   O30       1.0  0.3663400000000001  0.30842999999999987  0.9124500000000001  1.0000
  N   N5        1.0  0.45337000000000005  0.16691999999999999  0.7582200000000001  1.0000
  O   O31       1.0  0.50465  0.24397  0.75907  1.0000
  O   O32       1.0  0.52676  0.062019999999999985  0.7532  1.0000
  N   N6        1.0  0.87108  0.24345999999999998  0.62665  1.0000
  O   O33       1.0  0.8762099999999999  0.17721999999999993  0.58358  1.0000
  O   O34       1.0  0.7583699999999999  0.30527  0.64144  1.0000
  N   N7        1.0  0.34251  0.14514999999999995  0.65259  1.0000
  O   O35       1.0  0.37299  0.04805  0.62827  1.0000
  O   O36       1.0  0.40778  0.20934  0.64457  1.0000
  N   N8        1.0  0.2780900000000001  0.5552099999999999  0.8577400000000001  1.0000
  H   H11       1.0  0.24531  0.4941899999999999  0.8387200000000001  1.0000
  H   H12       1.0  0.24701000000000004  0.56271  0.8984  1.0000
  N   N9        1.0  0.63782  0.9637299999999998  0.14672  1.0000
  H   H13       1.0  0.62709  0.026939999999999995  0.17672  1.0000
  H   H14       1.0  0.7228699999999999  0.9534299999999998  0.12868  1.0000
  N   N10       1.0  0.44313  0.50876  0.7709900000000001  1.0000
  H   H15       1.0  0.42788000000000004  0.44438  0.7924700000000001  1.0000
  H   H16       1.0  0.4750000000000001  0.5581999999999999  0.8004300000000001  1.0000
  N   N11       1.0  0.9944200000000001  0.9568099999999997  0.72867  1.0000
  O   O37       1.0  0.8772699999999999  0.02332  0.73587  1.0000
  O   O38       1.0  0.07057000000000002  0.99719  0.70605  1.0000
  N   N12       1.0  0.41826  0.49431  0.64971  1.0000
  O   O39       1.0  0.48894999999999994  0.39642999999999995  0.67332  1.0000
  O   O40       1.0  0.44713999999999987  0.52343  0.60166  1.0000
  N   N13       1.0  0.04249000000000003  0.8426299999999999  0.63372  1.0000
  O   O41       1.0  0.08562999999999994  0.88948  0.59585  1.0000
  O   O42       1.0  0.9180100000000001  0.8660799999999998  0.63186  1.0000
  N   N14       1.0  0.6278599999999999  0.4799599999999999  0.21773  1.0000
  O   O43       1.0  0.7160400000000001  0.3802099999999999  0.21473000000000006  1.0000
  O   O44       1.0  0.51704  0.50651  0.18577  1.0000
  N   N15       1.0  0.6060999999999999  0.47812999999999994  0.33591  1.0000
  O   O45       1.0  0.6590799999999998  0.37185  0.32499000000000006  1.0000
  O   O46       1.0  0.52073  0.50836  0.37227  1.0000
  N   N16       1.0  0.6828000000000001  0.8331099999999999  0.35644  1.0000
  O   O47       1.0  0.7773  0.8700299999999997  0.35487  1.0000
  O   O48       1.0  0.60402  0.8695599999999999  0.39524  1.0000
  N   N17       1.0  0.1825  0.045  0.25088  1.0000
  O   O49       1.0  0.12802999999999987  0.98998  0.27872  1.0000
  O   O50       1.0  0.27008  0.98903  0.2184  1.0000
  N   N18       1.0  0.14976000000000003  0.35195  0.23852000000000004  1.0000
  O   O51       1.0  0.20555  0.40746  0.21183000000000002  1.0000
  O   O52       1.0  0.05901999999999998  0.40753  0.26964  1.0000
