data_image0
_chemical_formula_structural       C60Cr6H18O26H18
_chemical_formula_sum              "C60 Cr6 H36 O26"
_cell_length_a       10.97203
_cell_length_b       10.97764
_cell_length_c       18.812430000000003
_cell_angle_alpha    90.05823
_cell_angle_beta     89.92516
_cell_angle_gamma    119.94618

_space_group_name_H-M_alt    "P 1"
_space_group_IT_number       1

loop_
  _space_group_symop_operation_xyz
  'x, y, z'

loop_
  _atom_site_type_symbol
  _atom_site_label
  _atom_site_symmetry_multiplicity
  _atom_site_fract_x
  _atom_site_fract_y
  _atom_site_fract_z
  _atom_site_occupancy
  C   C1        1.0  0.5197499999999999  0.45837  0.14748  1.0000
  C   C2        1.0  0.5416  0.06127  0.14749  1.0000
  C   C3        1.0  0.9387499999999998  0.48023  0.14749  1.0000
  C   C4        1.0  0.45171999999999995  0.52316  0.85549  1.0000
  C   C5        1.0  0.07127  0.54824  0.85548  1.0000
  C   C6        1.0  0.47678999999999994  0.92861  0.85552  1.0000
  C   C7        1.0  0.7450199999999998  0.028060000000000005  0.53929  1.0000
  C   C8        1.0  0.9689899999999999  0.71771  0.54814  1.0000
  C   C9        1.0  0.28655  0.25646  0.54016  1.0000
  C   C10       1.0  0.9637199999999998  0.71674  0.46791999999999995  1.0000
  C   C11       1.0  0.7529599999999999  0.03746  0.45922  1.0000
  C   C12       1.0  0.29075  0.24649  0.46032999999999996  1.0000
  C   C13       1.0  0.5168899999999998  0.45846999999999993  0.3528  1.0000
  C   C14       1.0  0.54172  0.05904  0.35302  1.0000
  C   C15       1.0  0.9359999999999998  0.48019  0.35473  1.0000
  C   C16       1.0  0.4530999999999999  0.52282  0.64365  1.0000
  C   C17       1.0  0.06091999999999999  0.54183  0.64648  1.0000
  C   C18       1.0  0.47874  0.93342  0.64444  1.0000
  C   C19       1.0  0.48529999999999995  0.95533  0.93133  1.0000
  C   C20       1.0  0.04416999999999999  0.52992  0.93126  1.0000
  C   C21       1.0  0.47003  0.51444  0.9312800000000001  1.0000
  C   C22       1.0  0.008160000000000021  0.50247  0.07906  1.0000
  C   C23       1.0  0.49456999999999984  0.9918399999999999  0.07911  1.0000
  C   C24       1.0  0.49739  0.50535  0.07908  1.0000
  C   C25       1.0  0.3986099999999999  0.9975199999999999  0.96391  1.0000
  C   C26       1.0  0.001790000000000015  0.40103  0.96362  1.0000
  C   C27       1.0  0.5988899999999999  0.60089  0.96372  1.0000
  C   C28       1.0  0.9819300000000001  0.38695  0.03638  1.0000
  C   C29       1.0  0.4047499999999999  0.01762  0.03666  1.0000
  C   C30       1.0  0.61291  0.59484  0.03646  1.0000
  C   C31       1.0  0.5622499999999999  0.9253100000000001  0.04814  1.0000
  C   C32       1.0  0.07483999999999998  0.6366  0.04826  1.0000
  C   C33       1.0  0.36325  0.43786  0.04825  1.0000
  C   C34       1.0  0.09118000000000001  0.65  0.97469  1.0000
  C   C35       1.0  0.5589299999999999  0.90869  0.9745900000000001  1.0000
  C   C36       1.0  0.3498999999999999  0.4410899999999999  0.9747  1.0000
  C   C37       1.0  0.38718  0.12480999999999999  0.9492  1.0000
  C   C38       1.0  0.8741599999999999  0.2627  0.9488699999999999  1.0000
  C   C39       1.0  0.73749  0.61189  0.9488500000000001  1.0000
  C   C40       1.0  0.85109  0.24729  0.028509999999999997  1.0000
  C   C41       1.0  0.39525  0.14818  0.028820000000000002  1.0000
  C   C42       1.0  0.75284  0.60396  0.02846  1.0000
  C   C43       1.0  0.48846  0.96527  0.56926  1.0000
  C   C44       1.0  0.9948999999999998  0.49643000000000004  0.57763  1.0000
  C   C45       1.0  0.47302999999999995  0.51598  0.56799  1.0000
  C   C46       1.0  0.9713999999999998  0.49221999999999994  0.42932  1.0000
  C   C47       1.0  0.49940999999999997  0.98653  0.42077  1.0000
  C   C48       1.0  0.48454999999999987  0.50129  0.41994  1.0000
  C   C49       1.0  0.58929  0.95178  0.53056  1.0000
  C   C50       1.0  0.935  0.56749  0.54435  1.0000
  C   C51       1.0  0.36062  0.41165  0.53003  1.0000
  C   C52       1.0  0.92573  0.5662  0.4717100000000001  1.0000
  C   C53       1.0  0.5948800000000001  0.9608400000000001  0.45803  1.0000
  C   C54       1.0  0.36489999999999995  0.40414  0.4576200000000001  1.0000
  C   C55       1.0  0.38176  0.97328  0.4574  1.0000
  C   C56       1.0  0.011580000000000005  0.40363  0.46249  1.0000
  C   C57       1.0  0.58451  0.62289  0.45543  1.0000
  C   C58       1.0  0.022069999999999965  0.40475  0.5366  1.0000
  C   C59       1.0  0.37793999999999994  0.966  0.53186  1.0000
  C   C60       1.0  0.57978  0.62954  0.52983  1.0000
  Cr  Cr1       1.0  0.76916  0.54157  0.25069  1.0000
  Cr  Cr2       1.0  0.4584299999999999  0.22759  0.25069  1.0000
  Cr  Cr3       1.0  0.7724099999999999  0.23084000000000002  0.25069  1.0000
  Cr  Cr4       1.0  0.54157  0.76916  0.74931  1.0000
  Cr  Cr5       1.0  0.22759  0.45843000000000006  0.74931  1.0000
  Cr  Cr6       1.0  0.23084  0.77241  0.74931  1.0000
  H   H1        1.0  0.62881  0.8992000000000001  0.07949  1.0000
  H   H2        1.0  0.10126999999999999  0.72919  0.07978  1.0000
  H   H3        1.0  0.2706299999999999  0.37154  0.07972  1.0000
  H   H4        1.0  0.1358  0.75393  0.95175  1.0000
  H   H5        1.0  0.6184499999999999  0.8642299999999999  0.95149  1.0000
  H   H6        1.0  0.24596  0.38177  0.95174  1.0000
  H   H7        1.0  0.78538  0.96143  0.56156  1.0000
  H   H8        1.0  0.07511000000000001  0.79116  0.56861  1.0000
  H   H9        1.0  0.17838000000000004  0.21329000000000004  0.56152  1.0000
  H   H10       1.0  0.8784499999999998  0.73132  0.44638  1.0000
  H   H11       1.0  0.80058  0.14711  0.4402  1.0000
  H   H12       1.0  0.35981  0.20557  0.44299000000000005  1.0000
  H   H13       1.0  0.78489  0.13153  0.56591  1.0000
  H   H14       1.0  0.8832099999999999  0.72819  0.57345  1.0000
  H   H15       1.0  0.35258  0.22109  0.56819  1.0000
  H   H16       1.0  0.06795000000000007  0.78363  0.44271000000000005  1.0000
  H   H17       1.0  0.7966999999999999  0.97501  0.43497  1.0000
  H   H18       1.0  0.18501  0.19675000000000004  0.4352  1.0000
  O   O1        1.0  0.9114799999999998  0.57265  0.17099  1.0000
  O   O2        1.0  0.42734999999999995  0.33883  0.17099  1.0000
  O   O3        1.0  0.66117  0.08852  0.17099  1.0000
  O   O4        1.0  0.5726500000000001  0.9114800000000001  0.82901  1.0000
  O   O5        1.0  0.33883  0.42735  0.82901  1.0000
  O   O6        1.0  0.08851999999999999  0.66117  0.82901  1.0000
  O   O7        1.0  0.64034  0.52897  0.17568  1.0000
  O   O8        1.0  0.47102999999999995  0.11137000000000001  0.17568  1.0000
  O   O9        1.0  0.88863  0.35966  0.17568  1.0000
  O   O10       1.0  0.52897  0.64034  0.82432  1.0000
  O   O11       1.0  0.11137  0.47103  0.82432  1.0000
  O   O12       1.0  0.35966  0.88863  0.82432  1.0000
  O   O13       1.0  0.90998  0.57245  0.33153  1.0000
  O   O14       1.0  0.4275499999999999  0.33753  0.33153  1.0000
  O   O15       1.0  0.66247  0.09002  0.33153  1.0000
  O   O16       1.0  0.57245  0.90998  0.66847  1.0000
  O   O17       1.0  0.33753  0.42755  0.66847  1.0000
  O   O18       1.0  0.09002  0.66247  0.66847  1.0000
  O   O19       1.0  0.63895  0.52878  0.3245  1.0000
  O   O20       1.0  0.47122  0.11017  0.3245  1.0000
  O   O21       1.0  0.88983  0.36105  0.3245  1.0000
  O   O22       1.0  0.52878  0.63895  0.6755  1.0000
  O   O23       1.0  0.11017000000000003  0.47122  0.6755  1.0000
  O   O24       1.0  0.36105000000000004  0.88983  0.6755  1.0000
  O   O25       1.0  0.6666699999999998  0.33333  0.25056  1.0000
  O   O26       1.0  0.33333  0.66667  0.74944  1.0000
  H   H19       1.0  0.28325  0.09773  0.92639  1.0000
  H   H20       1.0  0.9009  0.18572  0.9257700000000001  1.0000
  H   H21       1.0  0.8143399999999997  0.71564  0.9259200000000001  1.0000
  H   H22       1.0  0.75526  0.24985  0.04536  1.0000
  H   H23       1.0  0.49349  0.24414000000000002  0.04539  1.0000
  H   H24       1.0  0.7505499999999999  0.5057  0.04508  1.0000
  H   H25       1.0  0.47979  0.20775  0.92005  1.0000
  H   H26       1.0  0.79119  0.27276  0.9199700000000001  1.0000
  H   H27       1.0  0.72774  0.51916  0.91974  1.0000
  H   H28       1.0  0.86311  0.16053  0.05133  1.0000
  H   H29       1.0  0.29651  0.13606  0.05191  1.0000
  H   H30       1.0  0.83944  0.70261  0.05143  1.0000
  H   H31       1.0  0.30029  0.9815500000000001  0.42936  1.0000
  H   H32       1.0  0.038529999999999995  0.33736  0.43136  1.0000
  H   H33       1.0  0.67049  0.70659  0.42648  1.0000
  H   H34       1.0  0.06356  0.34392  0.56088  1.0000
  H   H35       1.0  0.29283  0.96707  0.56008  1.0000
  H   H36       1.0  0.66078  0.72004  0.55736  1.0000
