data_image0
_chemical_formula_structural       C46Cr6H27N3O27
_chemical_formula_sum              "C46 Cr6 H27 N3 O27"
_cell_length_a       10.65658
_cell_length_b       10.73922
_cell_length_c       16.99648
_cell_angle_alpha    80.59635999999999
_cell_angle_beta     99.56264000000002
_cell_angle_gamma    118.53709

_symmetry_space_group_name_H-M    'P 1'
_symmetry_Int_Tables_number       1

loop_
  _symmetry_equiv_pos_as_xyz
  'x,y,z'

loop_
  _atom_site_type_symbol
  _atom_site_label
  _atom_site_symmetry_multiplicity
  _atom_site_fract_x
  _atom_site_fract_y
  _atom_site_fract_z
  _atom_site_occupancy
  C   C1        1.0  0.35837  0.22306  0.62619  1.0000
  C   C2        1.0  0.29389  0.11020000000000003  0.77184  1.0000
  C   C3        1.0  0.37174  0.63195  0.27444  1.0000
  C   C4        1.0  0.4132600000000002  0.6209700000000002  0.60172  1.0000
  C   C5        1.0  0.3453200000000001  0.6508100000000002  0.20349  1.0000
  C   C6        1.0  0.85573  0.6820300000000001  0.16426  1.0000
  C   C7        1.0  0.8701600000000002  0.5765100000000001  0.21725999999999995  1.0000
  C   C8        1.0  0.86646  0.56869  0.2974799999999999  1.0000
  C   C9        1.0  0.8406500000000001  0.7841600000000002  0.27683  1.0000
  C   C10       1.0  0.84845  0.79186  0.19478  1.0000
  C   C11       1.0  0.79517  0.41937000000000013  0.21402  1.0000
  C   C12       1.0  0.5124900000000001  0.7055300000000002  0.73659  1.0000
  C   C13       1.0  0.79359  0.40753  0.30439  1.0000
  C   C14       1.0  0.83938  0.66573  0.32769  1.0000
  C   C15       1.0  0.26339  0.05518  0.18042  1.0000
  C   C16       1.0  0.77729  0.6189300000000001  0.62674  1.0000
  C   C17       1.0  0.16342  0.08085  0.20889  1.0000
  C   C18       1.0  0.18318  0.11739000000000001  0.28496  1.0000
  C   C19       1.0  0.3957199999999998  0.08726  0.3139  1.0000
  C   C20       1.0  0.37167  0.04159000000000001  0.23715999999999995  1.0000
  C   C21       1.0  0.09904  0.17785  0.17507  1.0000
  C   C22       1.0  0.11832  0.21572000000000005  0.25937  1.0000
  C   C23       1.0  0.4902  0.72041  0.8126  1.0000
  C   C24       1.0  0.30828  0.13786  0.33478  1.0000
  C   C25       1.0  0.89065  0.70165  0.85614  1.0000
  C   C26       1.0  0.31589000000000006  0.7061700000000001  0.89862  1.0000
  C   C27       1.0  0.25244  0.05854999999999999  0.85119  1.0000
  C   C28       1.0  0.34919  0.22316  0.40104  1.0000
  C   C29       1.0  0.8895800000000001  0.6931300000000001  0.08449  1.0000
  C   C30       1.0  0.31729  0.69642  0.12221  1.0000
  C   C31       1.0  0.24657  0.038099999999999995  0.0952  1.0000
  C   C32       1.0  0.40393999999999997  0.62431  0.35923  1.0000
  C   C33       1.0  0.77382  0.6231000000000001  0.40098  1.0000
  C   C34       1.0  0.09153999999999994  0.5276899999999999  0.76262  1.0000
  C   C35       1.0  0.35025999999999996  0.65195  0.83656  1.0000
  C   C36       1.0  0.24075999999999986  0.54899  0.7901899999999997  1.0000
  C   C37       1.0  0.2637  0.53195  0.71573  1.0000
  C   C38       1.0  0.55027  0.41301000000000004  0.17791  1.0000
  C   C39       1.0  0.5904  0.05064000000000002  0.20637  1.0000
  C   C40       1.0  0.017569999999999957  0.24151000000000006  0.7040899999999998  1.0000
  C   C41       1.0  0.89009  0.36638000000000015  0.18987  1.0000
  C   C42       1.0  0.11593000000000007  0.5084400000000001  0.68078  1.0000
  C   C43       1.0  0.3956799999999999  0.62035  0.68487  1.0000
  C   C44       1.0  0.8226599999999998  0.65642  0.70606  1.0000
  C   C45       1.0  0.84973  0.68442  0.7739  1.0000
  C   C46       1.0  0.32989  0.15648000000000006  0.70546  1.0000
  Cr  Cr1       1.0  0.60844  0.38908  0.51968  1.0000
  Cr  Cr2       1.0  0.28864000000000006  0.40009000000000006  0.4907599999999999  1.0000
  Cr  Cr3       1.0  0.6029399999999999  0.7107999999999999  0.48951  1.0000
  Cr  Cr4       1.0  0.05253000000000002  0.94756  0.96421  1.0000
  Cr  Cr5       1.0  0.05997000000000001  0.6268000000000001  0.9929199999999999  1.0000
  Cr  Cr6       1.0  0.37332  0.93844  0.99537  1.0000
  H   H1        1.0  0.61814  0.76873  0.71612  1.0000
  H   H2        1.0  0.08228000000000008  0.6264500000000002  0.76243  1.0000
  H   H3        1.0  0.009020000000000045  0.4319300000000001  0.79414  1.0000
  H   H4        1.0  0.11772000000000007  0.5944300000000001  0.63374  1.0000
  H   H5        1.0  0.82278  0.8630800000000001  0.2986999999999999  1.0000
  H   H6        1.0  0.84327  0.87928  0.15524  1.0000
  H   H7        1.0  0.65765  0.36283  0.10748  1.0000
  H   H8        1.0  0.44405  0.34262  0.14808999999999994  1.0000
  H   H9        1.0  0.58048  0.52228  0.14893  1.0000
  H   H10       1.0  0.5374900000000001  0.40836  0.24175  1.0000
  H   H11       1.0  0.4362000000000001  0.8921400000000002  0.27028  1.0000
  H   H12       1.0  0.68487  0.354  0.3248  1.0000
  H   H13       1.0  0.65419  0.11854  0.25561  1.0000
  H   H14       1.0  0.59667  0.11474000000000001  0.14788  1.0000
  H   H15       1.0  0.63706  0.97919  0.20222  1.0000
  H   H16       1.0  0.92332  0.354  0.6284099999999998  1.0000
  H   H17       1.0  0.9641999999999998  0.14894000000000002  0.66796  1.0000
  H   H18       1.0  0.9546399999999999  0.21693  0.75541  1.0000
  H   H19       1.0  0.1268499999999999  0.25582  0.72641  1.0000
  H   H20       1.0  0.8446199999999999  0.27282  0.15758  1.0000
  H   H21       1.0  0.8654899999999999  0.36562000000000006  0.33973  1.0000
  H   H22       1.0  0.48484999999999995  0.08760000000000004  0.35538  1.0000
  H   H23       1.0  0.9846199999999999  0.12052  0.15124  1.0000
  H   H24       1.0  0.16794  0.26945  0.13456  1.0000
  H   H25       1.0  0.19696000000000002  0.3288300000000001  0.26646  1.0000
  H   H26       1.0  0.015150000000000004  0.17669000000000004  0.28518  1.0000
  H   H27       1.0  0.57926  0.7965600000000004  0.84862  1.0000
  N   N1        1.0  0.6536999999999998  0.3664200000000001  0.16727  1.0000
  N   N2        1.0  0.4426899999999999  0.9662700000000001  0.22271  1.0000
  N   N3        1.0  0.022939999999999988  0.36695  0.65421  1.0000
  O   O1        1.0  0.7540199999999999  0.49759  0.60993  1.0000
  O   O2        1.0  0.4061800000000001  0.8269300000000002  0.92066  1.0000
  O   O3        1.0  0.35862000000000005  0.06287000000000001  0.90195  1.0000
  O   O4        1.0  0.48141999999999996  0.27139000000000013  0.60063  1.0000
  O   O5        1.0  0.16391  0.08546  0.05021  1.0000
  O   O6        1.0  0.9352  0.81517  0.04576999999999999  1.0000
  O   O7        1.0  0.91612  0.59669  0.06943  1.0000
  O   O8        1.0  0.19230999999999998  0.6312  0.08616999999999997  1.0000
  O   O9        1.0  0.4067700000000001  0.8194800000000002  0.09642  1.0000
  O   O10       1.0  0.35917  0.05596000000000002  0.06488  1.0000
  O   O11       1.0  0.16194  0.8375999999999999  0.98416  1.0000
  O   O12       1.0  0.29508  0.5336200000000002  0.39789  1.0000
  O   O13       1.0  0.26381  0.25455  0.58959  1.0000
  O   O14       1.0  0.3008199999999999  0.5312000000000001  0.56089  1.0000
  O   O15       1.0  0.49147999999999986  0.74402  0.5642699999999999  1.0000
  O   O16       1.0  0.7262900000000001  0.6938000000000001  0.58301  1.0000
  O   O17       1.0  0.74783  0.50019  0.43409  1.0000
  O   O18       1.0  0.47568  0.2738  0.43763  1.0000
  O   O19       1.0  0.25762  0.25716  0.41375  1.0000
  O   O20       1.0  0.01986000000000001  0.42886  0.20637  1.0000
  O   O21       1.0  0.4852800000000001  0.7466200000000002  0.38844  1.0000
  O   O22       1.0  0.72055  0.6962200000000002  0.42001  1.0000
  O   O23       1.0  0.50001  0.49999  0.49998  1.0000
  O   O24       1.0  0.16332000000000002  0.0929  0.87445  1.0000
  O   O25       1.0  0.9346500000000002  0.8220800000000004  0.88284  1.0000
  O   O26       1.0  0.91552  0.6041400000000001  0.89367  1.0000
  O   O27       1.0  0.19176000000000015  0.6381100000000002  0.92323  1.0000
