data_image0
_chemical_formula_structural       O3CO2CO2VOCOCVOCH2C13H3C2H2C2HC2H2C2HCH3C13H5O3CO2CO2VOCOCVOCl2CNCNCl
_chemical_formula_sum              "O20 C46 V4 H19 Cl3 N2"
_cell_length_a       6.94305
_cell_length_b       13.638980000000002
_cell_length_c       20.4714
_cell_angle_alpha    102.16882
_cell_angle_beta     90.34007999999999
_cell_angle_gamma    90.87100000000001

_space_group_name_H-M_alt    "P 1"
_space_group_IT_number       1

loop_
  _space_group_symop_operation_xyz
  'x, y, z'

loop_
  _atom_site_type_symbol
  _atom_site_label
  _atom_site_symmetry_multiplicity
  _atom_site_fract_x
  _atom_site_fract_y
  _atom_site_fract_z
  _atom_site_occupancy
  O   O1        1.0  0.50686  0.5993899999999998  0.44924  1.0000
  O   O2        1.0  0.18022  0.5946  0.58678  1.0000
  O   O3        1.0  0.004500000000000002  0.40060999999999997  0.55076  1.0000
  C   C1        1.0  0.34967  0.61276  0.61447  1.0000
  O   O4        1.0  0.17749000000000006  0.6112899999999998  0.45197  1.0000
  O   O5        1.0  0.0017499999999999955  0.4174199999999999  0.41499  1.0000
  C   C2        1.0  0.3469000000000001  0.63748  0.43483  1.0000
  O   O6        1.0  0.50961  0.5825799999999999  0.5850100000000001  1.0000
  O   O7        1.0  0.33742  0.43637  0.48802  1.0000
  V   V1        1.0  0.06468  0.5117999999999998  0.50222  1.0000
  O   O8        1.0  0.6717100000000003  0.4054  0.41322  1.0000
  C   C3        1.0  0.83897  0.38378  0.3867  1.0000
  O   O9        1.0  0.67444  0.38870999999999994  0.5480300000000001  1.0000
  C   C4        1.0  0.8426600000000001  0.36177  0.56426  1.0000
  V   V2        1.0  0.56401  0.48819999999999986  0.49778000000000006  1.0000
  O   O10       1.0  0.84114  0.5636299999999997  0.51198  1.0000
  C   C5        1.0  0.8487100000000002  0.10816  0.60799  1.0000
  H   H1        1.0  0.8540500000000001  0.98144  0.68766  1.0000
  H   H2        1.0  0.84653  0.029900000000000034  0.5825700000000001  1.0000
  C   C6        1.0  0.84932  0.28281  0.6023200000000001  1.0000
  C   C7        1.0  0.86556  0.3102299999999999  0.92457  1.0000
  C   C8        1.0  0.86317  0.3861200000000001  0.8890000000000001  1.0000
  C   C9        1.0  0.8594600000000001  0.36249000000000003  0.8194500000000001  1.0000
  C   C10       1.0  0.8584  0.26148  0.78332  1.0000
  C   C11       1.0  0.8602900000000002  0.18263000000000001  0.8199900000000001  1.0000
  C   C12       1.0  0.85556  0.23690999999999995  0.71178  1.0000
  C   C13       1.0  0.8533200000000002  0.13484  0.6781  1.0000
  C   C14       1.0  0.8553700000000001  0.05930000000000004  0.7141000000000001  1.0000
  C   C15       1.0  0.85915  0.08094  0.78347  1.0000
  C   C16       1.0  0.8544799999999999  0.31018  0.6720600000000001  1.0000
  C   C17       1.0  0.8459300000000001  0.18158000000000002  0.5700500000000001  1.0000
  C   C18       1.0  0.8639100000000002  0.20962000000000003  0.8914000000000001  1.0000
  H   H3        1.0  0.85637  0.3894499999999999  0.69318  1.0000
  H   H4        1.0  0.86914  0.3295700000000001  0.9788000000000001  1.0000
  H   H5        1.0  0.85752  0.42535  0.79533  1.0000
  C   C19       1.0  0.004880000000000001  0.2871  0.2875400000000001  1.0000
  C   C20       1.0  0.8404600000000001  0.31413  0.32059000000000004  1.0000
  H   H6        1.0  0.14048  0.31703  0.31079  1.0000
  H   H7        1.0  0.70249  0.28403  0.30006  1.0000
  C   C21       1.0  0.01932  0.21581  0.22162  1.0000
  C   C22       1.0  0.8654400000000001  0.18409  0.18066000000000002  1.0000
  H   H8        1.0  0.7228800000000002  0.21019000000000002  0.19599000000000003  1.0000
  C   C23       1.0  0.20895  0.7758199999999998  0.78689  1.0000
  C   C24       1.0  0.36181  0.8286099999999998  0.8167500000000001  1.0000
  H   H9        1.0  0.07384000000000002  0.77794  0.81356  1.0000
  H   H10       1.0  0.49347  0.8318999999999998  0.78907  1.0000
  C   C25       1.0  0.21135  0.7193100000000001  0.7160600000000003  1.0000
  C   C26       1.0  0.36387  0.6689199999999997  0.68488  1.0000
  H   H11       1.0  0.07572000000000001  0.71677  0.689  1.0000
  C   C27       1.0  0.41896  0.88604  0.38652  1.0000
  H   H12       1.0  0.41481  0.8358999999999998  0.4790400000000001  1.0000
  H   H13       1.0  0.45506  0.009980000000000013  0.30341000000000007  1.0000
  H   H14       1.0  0.44957  0.96315  0.41128000000000003  1.0000
  C   C28       1.0  0.35921  0.71422  0.39465  1.0000
  C   C29       1.0  0.31544  0.68629  0.07185  1.0000
  C   C30       1.0  0.29453000000000007  0.6108199999999998  0.10755  1.0000
  C   C31       1.0  0.3099400000000001  0.63277  0.17705  1.0000
  C   C32       1.0  0.34774  0.73201  0.21297000000000002  1.0000
  C   C33       1.0  0.3712  0.8089499999999997  0.17585000000000006  1.0000
  C   C34       1.0  0.3625500000000001  0.7575299999999999  0.28433  1.0000
  C   C35       1.0  0.4018300000000001  0.85893  0.31662  1.0000
  C   C36       1.0  0.4248800000000001  0.93263  0.27907  1.0000
  C   C37       1.0  0.4099100000000001  0.90822  0.20990000000000003  1.0000
  C   C38       1.0  0.34063000000000004  0.6860899999999999  0.32504  1.0000
  C   C39       1.0  0.39874  0.81399  0.42523  1.0000
  C   C40       1.0  0.35393  0.78507  0.10517000000000003  1.0000
  H   H15       1.0  0.3114800000000001  0.60782  0.3044700000000001  1.0000
  H   H16       1.0  0.3007  0.6676999999999997  0.01789  1.0000
  H   H17       1.0  0.29112  0.57019  0.20096000000000003  1.0000
  H   H18       1.0  0.26488  0.53451  0.08115  1.0000
  H   H19       1.0  0.42958000000000013  0.96816  0.18322  1.0000
  O   O11       1.0  0.20323  0.9173099999999998  0.9150200000000002  1.0000
  O   O12       1.0  0.5355  0.8886899999999998  0.048040000000000006  1.0000
  O   O13       1.0  0.7110800000000003  0.08260999999999998  0.08500000000000002  1.0000
  C   C41       1.0  0.36616  0.8625399999999998  0.06523  1.0000
  O   O14       1.0  0.53263  0.90537  0.91323  1.0000
  O   O15       1.0  0.7081900000000002  0.09941000000000004  0.9492300000000001  1.0000
  C   C42       1.0  0.36378  0.8863799999999995  0.88613  1.0000
  O   O16       1.0  0.20611999999999997  0.90051  0.05079000000000001  1.0000
  O   O17       1.0  0.37536000000000014  0.06357  0.01199  1.0000
  V   V3        1.0  0.64817  0.9881999999999997  0.9977800000000001  1.0000
  O   O18       1.0  0.03824000000000001  0.11139000000000003  0.95194  1.0000
  C   C43       1.0  0.87019  0.13627999999999996  0.93398  1.0000
  O   O19       1.0  0.04112  0.09471000000000002  0.08675000000000001  1.0000
  C   C44       1.0  0.8741500000000001  0.11518  0.11392  1.0000
  V   V4        1.0  0.14881  0.011929999999999996  0.00218  1.0000
  O   O20       1.0  0.87175  0.9364299999999999  0.98801  1.0000
  Cl  Cl1       1.0  0.83813  0.14463999999999994  0.48224  1.0000
  Cl  Cl2       1.0  0.25645  0.17624  0.20045  1.0000
  C   C45       1.0  0.54023  0.6575  0.72075  1.0000
  N   N1        1.0  0.6811100000000001  0.64789  0.74911  1.0000
  C   C46       1.0  0.86537  0.48948999999999987  0.92426  1.0000
  N   N2        1.0  0.86719  0.57246  0.9525600000000001  1.0000
  Cl  Cl3       1.0  0.8619500000000002  0.9731299999999997  0.81826  1.0000
