data_image0
_chemical_formula_structural       O2CO2CO2CO2CO2CO2CCr3OCHC12H3C7H5CHCHC2HCHC2HC4HC2HCHC2HCHC2HCHC2HCHCO2CO2CO2CO2CO2CO2CCr3ONO2CO2HNO2CO2HNO2
_chemical_formula_sum              "O36 C58 Cr6 H25 N3"
_cell_length_a       10.99874
_cell_length_b       10.94603
_cell_length_c       18.796070000000004
_cell_angle_alpha    90.45094
_cell_angle_beta     89.43942999999999
_cell_angle_gamma    119.93259

_space_group_name_H-M_alt    "P 1"
_space_group_IT_number       1

loop_
  _space_group_symop_operation_xyz
  'x, y, z'

loop_
  _atom_site_type_symbol
  _atom_site_label
  _atom_site_symmetry_multiplicity
  _atom_site_fract_x
  _atom_site_fract_y
  _atom_site_fract_z
  _atom_site_occupancy
  O   O1        1.0  0.7665  0.25004  0.57979  1.0000
  O   O2        1.0  0.79857  0.51678  0.5747800000000001  1.0000
  C   C1        1.0  0.86686  0.63632  0.60447  1.0000
  O   O3        1.0  0.984  0.73295  0.58109  1.0000
  O   O4        1.0  0.2186  0.70089  0.57476  1.0000
  C   C2        1.0  0.2750000000000001  0.6360500000000001  0.60209  1.0000
  O   O5        1.0  0.24939  0.51535  0.57994  1.0000
  O   O6        1.0  0.98279  0.2809  0.5737  1.0000
  C   C3        1.0  0.8579399999999999  0.21946  0.60027  1.0000
  O   O7        1.0  0.7666  0.25113  0.41926  1.0000
  O   O8        1.0  0.79866  0.51779  0.42597999999999997  1.0000
  C   C4        1.0  0.87019  0.63672  0.39564  1.0000
  O   O9        1.0  0.9841  0.73404  0.42057  1.0000
  O   O10       1.0  0.21869000000000002  0.7019  0.42596000000000006  1.0000
  C   C5        1.0  0.26549  0.63032  0.39443  1.0000
  O   O11       1.0  0.24949  0.51644  0.41942  1.0000
  O   O12       1.0  0.98288  0.28191  0.42489  1.0000
  C   C6        1.0  0.86463  0.23483  0.39435  1.0000
  Cr  Cr1       1.0  0.7916599999999999  0.3902500000000001  0.49993  1.0000
  Cr  Cr2       1.0  0.09852  0.70829  0.50054  1.0000
  Cr  Cr3       1.0  0.10976999999999998  0.40143  0.49948  1.0000
  O   O13       1.0  0.99998  0.49999000000000005  0.49998  1.0000
  C   C7        1.0  0.29618  0.76112  0.71411  1.0000
  H   H1        1.0  0.24489000000000002  0.81337  0.69041  1.0000
  C   C8        1.0  0.30951  0.76558  0.78775  1.0000
  C   C9        1.0  0.35786  0.68207  0.81976  1.0000
  C   C10       1.0  0.3894  0.59308  0.77617  1.0000
  C   C11       1.0  0.39812999999999993  0.60919  0.70268  1.0000
  C   C12       1.0  0.33776  0.68172  0.67183  1.0000
  C   C13       1.0  0.84198  0.15278  0.81845  1.0000
  C   C14       1.0  0.05217  0.12188000000000002  0.80879  1.0000
  C   C15       1.0  0.13658  0.08668  0.76781  1.0000
  C   C16       1.0  0.11855000000000004  0.06912  0.6947  1.0000
  C   C17       1.0  0.020649999999999998  0.09320000000000002  0.66163  1.0000
  C   C18       1.0  0.93272  0.12655  0.702  1.0000
  C   C19       1.0  0.9425400000000002  0.13434  0.77758  1.0000
  H   H2        1.0  0.21541000000000002  0.07192  0.79327  1.0000
  H   H3        1.0  0.17871  0.03540000000000001  0.66299  1.0000
  H   H4        1.0  0.07771  0.14236  0.8643800000000001  1.0000
  C   C20       1.0  0.71531  0.12843  0.70871  1.0000
  C   C21       1.0  0.73723  0.16653  0.7807300000000001  1.0000
  C   C22       1.0  0.58494  0.09015  0.67762  1.0000
  C   C23       1.0  0.48878000000000005  0.11488  0.71345  1.0000
  C   C24       1.0  0.52108  0.17744  0.78011  1.0000
  C   C25       1.0  0.6457899999999999  0.20712  0.81299  1.0000
  C   C26       1.0  0.8278599999999999  0.14082  0.66801  1.0000
  H   H5        1.0  0.0073100000000000005  0.07576  0.60476  1.0000
  H   H6        1.0  0.66797  0.25903  0.8642900000000001  1.0000
  H   H7        1.0  0.39142  0.08894  0.68853  1.0000
  H   H8        1.0  0.55904  0.04428  0.62479  1.0000
  H   H9        1.0  0.44649  0.19710000000000003  0.8078  1.0000
  C   C27       1.0  0.84897  0.55126  0.72569  1.0000
  H   H10       1.0  0.87486  0.47339  0.70633  1.0000
  C   C28       1.0  0.83645  0.56502  0.79847  1.0000
  H   H11       1.0  0.8525100000000001  0.49888  0.83525  1.0000
  C   C29       1.0  0.80751  0.66809  0.8231  1.0000
  C   C30       1.0  0.79031  0.75672  0.77565  1.0000
  H   H12       1.0  0.76581  0.83543  0.7951  1.0000
  C   C31       1.0  0.8056700000000002  0.7448600000000001  0.70316  1.0000
  H   H13       1.0  0.79466  0.8146700000000001  0.66667  1.0000
  C   C32       1.0  0.8352700000000002  0.6424800000000002  0.67836  1.0000
  C   C33       1.0  0.25194  0.53533  0.27506  1.0000
  H   H14       1.0  0.20713  0.43089000000000005  0.29786  1.0000
  C   C34       1.0  0.25603  0.54743  0.20173  1.0000
  C   C35       1.0  0.31661000000000006  0.6828500000000001  0.17097  1.0000
  C   C36       1.0  0.34324999999999994  0.80052  0.2146  1.0000
  C   C37       1.0  0.3366  0.78496  0.28853  1.0000
  H   H15       1.0  0.3578400000000001  0.8735800000000001  0.32272  1.0000
  C   C38       1.0  0.2964  0.65401  0.31877  1.0000
  C   C39       1.0  0.7992199999999999  0.26405  0.27501  1.0000
  H   H16       1.0  0.75607  0.3265  0.29658  1.0000
  C   C40       1.0  0.7958799999999999  0.24427000000000001  0.20242  1.0000
  H   H17       1.0  0.7458899999999999  0.28689  0.1693  1.0000
  C   C41       1.0  0.8481899999999999  0.1619  0.1736  1.0000
  C   C42       1.0  0.91385  0.10839000000000001  0.21743  1.0000
  H   H18       1.0  0.95388  0.04308  0.19597  1.0000
  C   C43       1.0  0.91978  0.1309  0.29037  1.0000
  H   H19       1.0  0.96875  0.08818  0.32412  1.0000
  C   C44       1.0  0.85712  0.20378  0.31934  1.0000
  C   C45       1.0  0.9637499999999999  0.71881  0.27664  1.0000
  H   H20       1.0  0.06895999999999998  0.7748  0.29798  1.0000
  C   C46       1.0  0.94826  0.71909  0.20411  1.0000
  H   H21       1.0  0.04083000000000006  0.77993  0.17151  1.0000
  C   C47       1.0  0.81407  0.65114  0.17468  1.0000
  C   C48       1.0  0.6958400000000001  0.57091  0.21813  1.0000
  H   H22       1.0  0.59091  0.51779  0.19629  1.0000
  C   C49       1.0  0.71192  0.56773  0.29133  1.0000
  H   H23       1.0  0.6206300000000001  0.5068200000000002  0.32478  1.0000
  C   C50       1.0  0.8456999999999999  0.64628  0.32088  1.0000
  O   O14       1.0  0.8951099999999999  0.80686  0.9204300000000001  1.0000
  O   O15       1.0  0.87226  0.04697  0.925  1.0000
  C   C51       1.0  0.80781  0.10307000000000001  0.89403  1.0000
  O   O16       1.0  0.69143  0.08506000000000001  0.91855  1.0000
  O   O17       1.0  0.45148999999999995  0.82246  0.92525  1.0000
  C   C52       1.0  0.39818000000000003  0.70056  0.8951300000000001  1.0000
  O   O18       1.0  0.41333000000000003  0.6033600000000001  0.9204399999999999  1.0000
  O   O19       1.0  0.67611  0.62625  0.9267499999999999  1.0000
  C   C53       1.0  0.7975500000000001  0.69092  0.8976600000000001  1.0000
  O   O20       1.0  0.89535  0.8098700000000001  0.08095  1.0000
  O   O21       1.0  0.87249  0.04976  0.0738  1.0000
  C   C54       1.0  0.80765  0.10623999999999999  0.1024  1.0000
  O   O22       1.0  0.6916799999999999  0.08807  0.07907  1.0000
  O   O23       1.0  0.45172000000000007  0.8252500000000002  0.07405  1.0000
  C   C55       1.0  0.38992999999999994  0.70342  0.10233  1.0000
  O   O24       1.0  0.41358  0.60637  0.08096  1.0000
  O   O25       1.0  0.67634  0.62904  0.07555  1.0000
  C   C56       1.0  0.7971300000000001  0.6930100000000001  0.1041  1.0000
  Cr  Cr4       1.0  0.87479  0.92589  7e-05  1.0000
  Cr  Cr5       1.0  0.5741200000000001  0.9486700000000001  0.9993  1.0000
  Cr  Cr6       1.0  0.55142  0.62532  0.00092  1.0000
  O   O26       1.0  0.66678  0.83329  9e-05  1.0000
  N   N1        1.0  0.20179999999999995  0.4218  0.15892  1.0000
  O   O27       1.0  0.21849  0.31733  0.17846  1.0000
  O   O28       1.0  0.13295  0.41027  0.10097  1.0000
  C   C57       1.0  0.37295  0.93881  0.18584  1.0000
  O   O29       1.0  0.31809  0.94445  0.13061  1.0000
  O   O30       1.0  0.4577899999999999  0.06242  0.22407  1.0000
  H   H24       1.0  0.4681  0.14958  0.19986  1.0000
  N   N2        1.0  0.25001999999999996  0.83411  0.82894  1.0000
  O   O31       1.0  0.32738  0.93978  0.8704699999999999  1.0000
  O   O32       1.0  0.12341999999999992  0.80691  0.81532  1.0000
  C   C58       1.0  0.40525000000000005  0.47669  0.80526  1.0000
  O   O33       1.0  0.31039  0.38380000000000003  0.84016  1.0000
  O   O34       1.0  0.52908  0.47484  0.79414  1.0000
  H   H25       1.0  0.5433  0.41777  0.83171  1.0000
  N   N3        1.0  0.45487  0.5408  0.65856  1.0000
  O   O35       1.0  0.53978  0.61028  0.60649  1.0000
  O   O36       1.0  0.40174  0.40469  0.66109  1.0000
