data_image0
_chemical_formula_structural       C52Cu2H10N14O12
_chemical_formula_sum              "C52 Cu2 H10 N14 O12"
_cell_length_a       27.81256
_cell_length_b       8.734669999999998
_cell_length_c       7.40841
_cell_angle_alpha    102.91863
_cell_angle_beta     94.25151
_cell_angle_gamma    92.48683

_space_group_name_H-M_alt    "P 1"
_space_group_IT_number       1

loop_
  _space_group_symop_operation_xyz
  'x, y, z'

loop_
  _atom_site_type_symbol
  _atom_site_label
  _atom_site_symmetry_multiplicity
  _atom_site_fract_x
  _atom_site_fract_y
  _atom_site_fract_z
  _atom_site_occupancy
  C   C1        1.0  0.49758000000000013  0.20026  0.4542200000000001  1.0000
  C   C2        1.0  0.86892  0.36438  0.38167  1.0000
  C   C3        1.0  0.35409000000000007  0.49516  0.508  1.0000
  C   C4        1.0  0.64591  0.50484  0.4920000000000001  1.0000
  C   C5        1.0  0.9713400000000001  0.35934  0.41979  1.0000
  C   C6        1.0  0.028660000000000015  0.6406700000000001  0.5802100000000001  1.0000
  C   C7        1.0  0.9776300000000001  0.64489  0.5492800000000001  1.0000
  C   C8        1.0  0.022370000000000008  0.35511  0.45072  1.0000
  C   C9        1.0  0.9490100000000002  0.50348  0.4743600000000001  1.0000
  C   C10       1.0  0.05099000000000002  0.49653  0.52564  1.0000
  C   C11       1.0  0.9419500000000001  0.22433999999999998  0.32874  1.0000
  C   C12       1.0  0.50242  0.79974  0.54578  1.0000
  C   C13       1.0  0.058050000000000004  0.77567  0.67125  1.0000
  C   C14       1.0  0.8918600000000002  0.22493  0.31066000000000005  1.0000
  C   C15       1.0  0.10814  0.77508  0.68933  1.0000
  C   C16       1.0  0.40729  0.49775  0.50189  1.0000
  C   C17       1.0  0.59271  0.50225  0.4981100000000001  1.0000
  C   C18       1.0  0.04566  0.21245000000000003  0.4131300000000001  1.0000
  C   C19       1.0  0.95434  0.78755  0.58688  1.0000
  C   C20       1.0  0.4905  0.03442  0.43343  1.0000
  C   C21       1.0  0.5095  0.9655800000000001  0.56657  1.0000
  C   C22       1.0  0.17586  0.35335  0.50669  1.0000
  C   C23       1.0  0.10231000000000003  0.49385  0.54639  1.0000
  C   C24       1.0  0.8241400000000002  0.64666  0.49331000000000014  1.0000
  C   C25       1.0  0.1817  0.6323999999999999  0.61399  1.0000
  C   C26       1.0  0.8183000000000002  0.36761  0.38601  1.0000
  C   C27       1.0  0.28589  0.53727  0.69673  1.0000
  C   C28       1.0  0.71411  0.46274  0.3032700000000001  1.0000
  C   C29       1.0  0.33542  0.53963  0.68205  1.0000
  C   C30       1.0  0.6645800000000001  0.46038  0.3179500000000001  1.0000
  C   C31       1.0  0.32151  0.44931  0.34543  1.0000
  C   C32       1.0  0.6784900000000003  0.55069  0.65457  1.0000
  C   C33       1.0  0.27137  0.45393  0.3607300000000001  1.0000
  C   C34       1.0  0.89769  0.50616  0.4536100000000001  1.0000
  C   C35       1.0  0.72863  0.54607  0.6392600000000003  1.0000
  C   C36       1.0  0.25368000000000007  0.4948699999999999  0.53749  1.0000
  C   C37       1.0  0.7463200000000001  0.50513  0.46251  1.0000
  C   C38       1.0  0.3385100000000001  0.39136  0.16364000000000006  1.0000
  C   C39       1.0  0.66149  0.60864  0.8363600000000002  1.0000
  C   C40       1.0  0.23777  0.41908  0.19540000000000005  1.0000
  C   C41       1.0  0.76223  0.58092  0.8046  1.0000
  C   C42       1.0  0.11503  0.05545000000000001  0.3727100000000001  1.0000
  C   C43       1.0  0.88497  0.9445499999999999  0.62729  1.0000
  C   C44       1.0  0.8657700000000003  0.07968000000000001  0.21194000000000005  1.0000
  C   C45       1.0  0.12487000000000001  0.34976000000000007  0.4939900000000001  1.0000
  C   C46       1.0  0.13423000000000002  0.92033  0.7880500000000001  1.0000
  C   C47       1.0  0.45806  0.95223  0.2745  1.0000
  C   C48       1.0  0.54194  0.04777000000000003  0.7255000000000003  1.0000
  C   C49       1.0  0.8751300000000001  0.65024  0.50601  1.0000
  C   C50       1.0  0.09567  0.20845  0.42974  1.0000
  C   C51       1.0  0.90433  0.79156  0.57026  1.0000
  C   C52       1.0  0.13107  0.63563  0.61833  1.0000
  Cu  Cu1       1.0  0.50538  0.51738  0.68438  1.0000
  Cu  Cu2       1.0  0.49462  0.48261999999999994  0.3156200000000001  1.0000
  H   H1        1.0  0.9569700000000002  0.11567  0.26522  1.0000
  H   H2        1.0  0.97424  0.90021  0.6280000000000001  1.0000
  H   H3        1.0  0.04303  0.88434  0.73477  1.0000
  H   H4        1.0  0.46237  0.3780200000000001  0.9477900000000001  1.0000
  H   H5        1.0  0.53763  0.62198  0.05221  1.0000
  H   H6        1.0  0.64077  0.42381  0.19161  1.0000
  H   H7        1.0  0.35923  0.57619  0.80839  1.0000
  H   H8        1.0  0.72761  0.43051  0.16730000000000006  1.0000
  H   H9        1.0  0.27239  0.5695  0.8327  1.0000
  H   H10       1.0  0.025760000000000005  0.09979  0.37201  1.0000
  N   N1        1.0  0.20253000000000004  0.49343999999999993  0.5556200000000001  1.0000
  N   N2        1.0  0.86974  0.06711000000000003  0.67385  1.0000
  N   N3        1.0  0.8451400000000002  0.9632400000000001  0.13284  1.0000
  N   N4        1.0  0.15486000000000003  0.03676999999999999  0.86715  1.0000
  N   N5        1.0  0.4322700000000001  0.88737  0.14808  1.0000
  N   N6        1.0  0.56773  0.11263  0.8519200000000001  1.0000
  N   N7        1.0  0.79746  0.50657  0.44438  1.0000
  N   N8        1.0  0.4865100000000001  0.45643  0.03851  1.0000
  N   N9        1.0  0.51349  0.54357  0.96149  1.0000
  N   N10       1.0  0.35195  0.34415  0.01857  1.0000
  N   N11       1.0  0.6480500000000001  0.65586  0.98143  1.0000
  N   N12       1.0  0.21097  0.39154  0.06351  1.0000
  N   N13       1.0  0.78903  0.60847  0.93649  1.0000
  N   N14       1.0  0.13026  0.9328999999999998  0.32615  1.0000
  O   O1        1.0  0.5035  0.28612000000000004  0.6197800000000002  1.0000
  O   O2        1.0  0.80089  0.78098  0.53199  1.0000
  O   O3        1.0  0.78994  0.23312000000000002  0.33837000000000006  1.0000
  O   O4        1.0  0.21006000000000002  0.76689  0.6616300000000003  1.0000
  O   O5        1.0  0.4965000000000001  0.71388  0.38022  1.0000
  O   O6        1.0  0.4944100000000001  0.25678  0.30836  1.0000
  O   O7        1.0  0.50559  0.74322  0.69164  1.0000
  O   O8        1.0  0.43481  0.5147  0.6556900000000001  1.0000
  O   O9        1.0  0.56519  0.4853  0.3443100000000001  1.0000
  O   O10       1.0  0.42572  0.48534999999999995  0.34428  1.0000
  O   O11       1.0  0.57428  0.51465  0.65572  1.0000
  O   O12       1.0  0.19911000000000006  0.21902  0.4680100000000001  1.0000
