data_image0
_chemical_formula_structural       O8C4O8C4O8C4O8C4O8C4O8C4Cr12O4C8H4C32H20C16H4C32H20NO2NO2NO2NO2CHOCHOCHOCHOCHOCHOCHOCHONO2NO2NO2NO2NO2NO2NO2NO2
_chemical_formula_sum              "O84 C120 Cr12 H56 N12"
_cell_length_a       19.2311
_cell_length_b       11.08503
_cell_length_c       18.669680000000003
_cell_angle_alpha    89.56611
_cell_angle_beta     89.81815
_cell_angle_gamma    89.80502

_symmetry_space_group_name_H-M    'P 1'
_symmetry_Int_Tables_number       1

loop_
  _symmetry_equiv_pos_as_xyz
  'x,y,z'

loop_
  _atom_site_type_symbol
  _atom_site_label
  _atom_site_symmetry_multiplicity
  _atom_site_fract_x
  _atom_site_fract_y
  _atom_site_fract_z
  _atom_site_occupancy
  O   O1        1.0  0.78429  0.29036  0.83054  1.0000
  O   O2        1.0  0.21571  0.29036  0.16946000000000003  1.0000
  O   O3        1.0  0.28429000000000004  0.79036  0.83054  1.0000
  O   O4        1.0  0.71571  0.79036  0.16946000000000003  1.0000
  O   O5        1.0  0.76261  0.04107  0.8252300000000002  1.0000
  O   O6        1.0  0.23739000000000005  0.04107  0.17477  1.0000
  O   O7        1.0  0.26261  0.54107  0.8252300000000002  1.0000
  O   O8        1.0  0.7373900000000002  0.54107  0.17477  1.0000
  C   C1        1.0  0.72752  0.9548  0.8529800000000001  1.0000
  C   C2        1.0  0.27534000000000003  0.96134  0.14443000000000003  1.0000
  C   C3        1.0  0.22752000000000003  0.45479  0.85297  1.0000
  C   C4        1.0  0.77534  0.46135  0.14442  1.0000
  O   O9        1.0  0.66739  0.92416  0.82997  1.0000
  O   O10       1.0  0.33261  0.92416  0.17003  1.0000
  O   O11       1.0  0.16739000000000007  0.42416000000000004  0.82997  1.0000
  O   O12       1.0  0.83261  0.42416000000000004  0.17003  1.0000
  O   O13       1.0  0.5539800000000001  0.08142  0.82178  1.0000
  O   O14       1.0  0.44602  0.08142  0.17822000000000002  1.0000
  O   O15       1.0  0.05398  0.58142  0.82178  1.0000
  O   O16       1.0  0.94602  0.58142  0.17822000000000002  1.0000
  C   C5        1.0  0.52979  0.17615000000000003  0.85099  1.0000
  C   C6        1.0  0.4713000000000001  0.17786  0.15019000000000002  1.0000
  C   C7        1.0  0.029790000000000004  0.67615  0.85099  1.0000
  C   C8        1.0  0.9713000000000002  0.67785  0.15019000000000002  1.0000
  O   O17       1.0  0.5432100000000001  0.28317  0.8267400000000003  1.0000
  O   O18       1.0  0.45679000000000003  0.28317  0.17326000000000003  1.0000
  O   O19       1.0  0.043210000000000005  0.78317  0.8267400000000003  1.0000
  O   O20       1.0  0.95679  0.78317  0.17326000000000003  1.0000
  O   O21       1.0  0.67835  0.375  0.8227200000000002  1.0000
  O   O22       1.0  0.32165  0.375  0.17728  1.0000
  O   O23       1.0  0.17835  0.875  0.8227200000000002  1.0000
  O   O24       1.0  0.82165  0.875  0.17728  1.0000
  C   C9        1.0  0.73778  0.36409  0.8522200000000002  1.0000
  C   C10       1.0  0.27597  0.31409  0.14025  1.0000
  C   C11       1.0  0.23778000000000002  0.8641  0.8522200000000002  1.0000
  C   C12       1.0  0.77597  0.8141  0.14025  1.0000
  O   O25       1.0  0.7850600000000002  0.2893  0.67058  1.0000
  O   O26       1.0  0.21494  0.2893  0.32942  1.0000
  O   O27       1.0  0.28506  0.7892999999999999  0.67058  1.0000
  O   O28       1.0  0.71494  0.7892999999999999  0.32942  1.0000
  O   O29       1.0  0.76333  0.04009  0.67694  1.0000
  O   O30       1.0  0.23667000000000002  0.04009  0.32306  1.0000
  O   O31       1.0  0.26333  0.54009  0.67694  1.0000
  O   O32       1.0  0.73667  0.54009  0.32306  1.0000
  C   C13       1.0  0.73053  0.9506  0.6507800000000001  1.0000
  C   C14       1.0  0.29037  0.00196  0.35997  1.0000
  C   C15       1.0  0.21308  0.49658  0.6395  1.0000
  C   C16       1.0  0.7691  0.44798  0.34908000000000006  1.0000
  O   O33       1.0  0.66816  0.92311  0.6700000000000002  1.0000
  O   O34       1.0  0.33184  0.92311  0.33  1.0000
  O   O35       1.0  0.16816  0.42311000000000004  0.6700000000000002  1.0000
  O   O36       1.0  0.8318400000000001  0.42311000000000004  0.33  1.0000
  O   O37       1.0  0.55469  0.08044  0.67348  1.0000
  O   O38       1.0  0.44531000000000004  0.08044  0.32652  1.0000
  O   O39       1.0  0.054690000000000016  0.58044  0.67348  1.0000
  O   O40       1.0  0.9453100000000001  0.58044  0.32652  1.0000
  C   C17       1.0  0.53329  0.17467  0.64318  1.0000
  C   C18       1.0  0.47128000000000003  0.17772999999999997  0.35335  1.0000
  C   C19       1.0  0.03234  0.67787  0.64355  1.0000
  C   C20       1.0  0.9706800000000001  0.67373  0.35447  1.0000
  O   O41       1.0  0.5439800000000002  0.28211  0.6667700000000001  1.0000
  O   O42       1.0  0.45602  0.28211  0.3332300000000001  1.0000
  O   O43       1.0  0.04398  0.7821099999999999  0.6667700000000001  1.0000
  O   O44       1.0  0.95602  0.7821100000000001  0.3332300000000001  1.0000
  O   O45       1.0  0.6790700000000001  0.37403  0.67443  1.0000
  O   O46       1.0  0.3209300000000001  0.37403  0.32557  1.0000
  O   O47       1.0  0.17907  0.8740299999999999  0.67443  1.0000
  O   O48       1.0  0.82093  0.8740299999999999  0.32557  1.0000
  C   C21       1.0  0.72376  0.3099  0.6389900000000002  1.0000
  C   C22       1.0  0.26001  0.36426  0.3518100000000001  1.0000
  C   C23       1.0  0.24132  0.86729  0.64914  1.0000
  C   C24       1.0  0.7741100000000001  0.8143600000000001  0.36152  1.0000
  Cr  Cr1       1.0  0.76926  0.16374999999999998  0.7507300000000001  1.0000
  Cr  Cr2       1.0  0.23074  0.16375  0.24927000000000002  1.0000
  Cr  Cr3       1.0  0.26926000000000005  0.66375  0.7507300000000001  1.0000
  Cr  Cr4       1.0  0.73074  0.66375  0.24927000000000002  1.0000
  Cr  Cr5       1.0  0.61264  0.00991  0.74878  1.0000
  Cr  Cr6       1.0  0.3873600000000001  0.00991  0.25122  1.0000
  Cr  Cr7       1.0  0.11264  0.50991  0.74878  1.0000
  Cr  Cr8       1.0  0.8873600000000003  0.50991  0.25122  1.0000
  Cr  Cr9       1.0  0.6141900000000002  0.3224  0.74771  1.0000
  Cr  Cr10      1.0  0.38581000000000004  0.3224  0.25229  1.0000
  Cr  Cr11      1.0  0.11419000000000001  0.8224000000000001  0.74771  1.0000
  Cr  Cr12      1.0  0.88581  0.8224000000000001  0.25229  1.0000
  O   O49       1.0  0.66536  0.16535  0.74907  1.0000
  O   O50       1.0  0.3346400000000001  0.16535  0.25093  1.0000
  O   O51       1.0  0.16536000000000003  0.66535  0.74907  1.0000
  O   O52       1.0  0.8346400000000003  0.66535  0.25093  1.0000
  C   C25       1.0  0.49847  0.16029  0.92279  1.0000
  C   C26       1.0  0.50477  0.17007  0.07987000000000001  1.0000
  C   C27       1.0  0.9984700000000001  0.66029  0.92279  1.0000
  C   C28       1.0  0.004770000000000001  0.67005  0.07987000000000001  1.0000
  C   C29       1.0  0.51032  0.06458  0.04467  1.0000
  C   C30       1.0  0.51329  0.061419999999999995  0.9645800000000001  1.0000
  C   C31       1.0  0.01031  0.56456  0.044660000000000005  1.0000
  C   C32       1.0  0.01327  0.56141  0.9645800000000001  1.0000
  H   H1        1.0  0.51179  0.25528  0.05228000000000001  1.0000
  H   H2        1.0  0.47468  0.23989000000000002  0.9454900000000002  1.0000
  H   H3        1.0  0.0118  0.7552699999999999  0.05228000000000001  1.0000
  H   H4        1.0  0.9746900000000002  0.7399  0.9454900000000002  1.0000
  C   C33       1.0  0.7646600000000002  0.44187  0.06870000000000001  1.0000
  C   C34       1.0  0.25523  0.39785999999999994  0.91784  1.0000
  C   C35       1.0  0.26466  0.94187  0.06870000000000001  1.0000
  C   C36       1.0  0.75525  0.89784  0.9178300000000001  1.0000
  C   C37       1.0  0.70029  0.46241  0.03727000000000001  1.0000
  C   C38       1.0  0.30521  0.45706  0.9592400000000001  1.0000
  C   C39       1.0  0.20029  0.96244  0.03727000000000001  1.0000
  C   C40       1.0  0.8052300000000002  0.9570400000000001  0.9592200000000001  1.0000
  C   C41       1.0  0.6920100000000002  0.45417  0.96415  1.0000
  C   C42       1.0  0.31483  0.42673999999999995  0.030670000000000003  1.0000
  C   C43       1.0  0.19202  0.9542  0.96414  1.0000
  C   C44       1.0  0.8148300000000002  0.92675  0.03066  1.0000
  C   C45       1.0  0.81529  0.42533  0.9496600000000001  1.0000
  C   C46       1.0  0.23301000000000002  0.26464  0.01899  1.0000
  C   C47       1.0  0.31529  0.92532  0.9496600000000001  1.0000
  C   C48       1.0  0.73301  0.7646400000000001  0.01899  1.0000
  C   C49       1.0  0.82319  0.43497  0.02346000000000001  1.0000
  C   C50       1.0  0.22489000000000003  0.29274  0.94624  1.0000
  C   C51       1.0  0.32319000000000003  0.93495  0.02346000000000001  1.0000
  C   C52       1.0  0.7248900000000003  0.79273  0.9462300000000001  1.0000
  C   C53       1.0  0.63097  0.41042  0.05388  1.0000
  C   C54       1.0  0.31598  0.58881  0.97233  1.0000
  C   C55       1.0  0.13096  0.9104899999999999  0.053870000000000015  1.0000
  C   C56       1.0  0.81601  0.08877999999999997  0.9722800000000001  1.0000
  C   C57       1.0  0.62076  0.40119000000000005  0.97311  1.0000
  C   C58       1.0  0.3259600000000001  0.55595  0.05092  1.0000
  C   C59       1.0  0.12076000000000002  0.90124  0.9731  1.0000
  C   C60       1.0  0.82595  0.055970000000000006  0.05089  1.0000
  C   C61       1.0  0.74846  0.42328  0.92013  1.0000
  C   C62       1.0  0.27463  0.33663  0.06309  1.0000
  C   C63       1.0  0.24847000000000002  0.9233  0.92013  1.0000
  C   C64       1.0  0.7746300000000002  0.83665  0.06309  1.0000
  H   H5        1.0  0.86069  0.40868  0.91685  1.0000
  H   H6        1.0  0.20216  0.19332000000000002  0.04214  1.0000
  H   H7        1.0  0.3607  0.90866  0.91685  1.0000
  H   H8        1.0  0.70217  0.69332  0.04214  1.0000
  H   H9        1.0  0.87493  0.43455  0.04516  1.0000
  H   H10       1.0  0.18860000000000005  0.24069000000000002  0.9148800000000001  1.0000
  H   H11       1.0  0.3749300000000001  0.9344999999999999  0.04516  1.0000
  H   H12       1.0  0.6886  0.74069  0.9148800000000001  1.0000
  H   H13       1.0  0.09632  0.97697  0.08062  1.0000
  H   H14       1.0  0.76891  0.1441  0.9608500000000001  1.0000
  H   H15       1.0  0.5963200000000001  0.47689  0.08064  1.0000
  H   H16       1.0  0.26886  0.6441  0.96094  1.0000
  H   H17       1.0  0.63498  0.32132  0.08129  1.0000
  H   H18       1.0  0.36436  0.62253  0.9464800000000001  1.0000
  H   H19       1.0  0.13496  0.82138  0.08128  1.0000
  H   H20       1.0  0.8644200000000002  0.12246  0.94644  1.0000
  H   H21       1.0  0.6160300000000001  0.3072099999999999  0.9536100000000001  1.0000
  H   H22       1.0  0.37931  0.57345  0.07118000000000001  1.0000
  H   H23       1.0  0.11602000000000001  0.8072600000000001  0.9536100000000001  1.0000
  H   H24       1.0  0.87929  0.0735  0.07117  1.0000
  C   C65       1.0  0.5037100000000002  0.17902  0.42181000000000013  1.0000
  C   C66       1.0  0.51393  0.15921  0.5696800000000001  1.0000
  C   C67       1.0  0.00801  0.65254  0.42055  1.0000
  C   C68       1.0  0.015120000000000001  0.67342  0.5688800000000003  1.0000
  C   C69       1.0  0.48704000000000003  0.2755  0.46671  1.0000
  C   C70       1.0  0.4887700000000001  0.2617  0.53826  1.0000
  C   C71       1.0  0.042280000000000005  0.7485  0.45134  1.0000
  C   C72       1.0  0.04815  0.7557599999999999  0.52399  1.0000
  C   C73       1.0  0.54256  0.06643  0.52471  1.0000
  C   C74       1.0  0.5390000000000003  0.07931  0.44931000000000004  1.0000
  C   C75       1.0  0.98676  0.56956  0.53997  1.0000
  C   C76       1.0  0.9922800000000002  0.54989  0.46491000000000005  1.0000
  C   C77       1.0  0.42417000000000005  0.35622999999999994  0.47248000000000007  1.0000
  C   C78       1.0  0.42596  0.33562  0.55333  1.0000
  C   C79       1.0  0.036170000000000015  0.88215  0.44215000000000004  1.0000
  C   C80       1.0  0.04450000000000001  0.89002  0.5227  1.0000
  H   H25       1.0  0.98472  0.9137400000000001  0.4238400000000001  1.0000
  H   H26       1.0  0.09447  0.9252300000000001  0.5407  1.0000
  H   H27       1.0  0.37783  0.31898  0.44544000000000006  1.0000
  H   H28       1.0  0.43799000000000005  0.41608000000000006  0.58633  1.0000
  C   C81       1.0  0.7389  0.37687  0.41006  1.0000
  C   C82       1.0  0.23342000000000002  0.46737  0.56683  1.0000
  C   C83       1.0  0.27922  0.9835500000000001  0.43685000000000007  1.0000
  C   C84       1.0  0.76141  0.89907  0.5862  1.0000
  C   C85       1.0  0.78345  0.30397  0.44846  1.0000
  C   C86       1.0  0.1976  0.37445999999999996  0.5365700000000001  1.0000
  C   C87       1.0  0.32341  0.90579  0.47292  1.0000
  C   C88       1.0  0.75041  0.78334  0.56157  1.0000
  C   C89       1.0  0.77302  0.27048  0.5193800000000001  1.0000
  C   C90       1.0  0.20741000000000004  0.34306  0.46628000000000003  1.0000
  C   C91       1.0  0.3134500000000001  0.87709  0.54381  1.0000
  C   C92       1.0  0.7569700000000001  0.7581000000000001  0.4898600000000001  1.0000
  C   C93       1.0  0.66504  0.3825200000000001  0.51768  1.0000
  C   C94       1.0  0.27851  0.51967  0.44806  1.0000
  C   C95       1.0  0.21962000000000004  0.020650000000000005  0.55078  1.0000
  C   C96       1.0  0.8026700000000002  0.9524200000000002  0.46596  1.0000
  C   C97       1.0  0.6742100000000002  0.40021000000000007  0.44193  1.0000
  C   C98       1.0  0.27359  0.544  0.5223000000000001  1.0000
  C   C99       1.0  0.22756  0.04366  0.47657  1.0000
  C   C100      1.0  0.7971500000000001  0.9765200000000002  0.53964  1.0000
  C   C101      1.0  0.8564000000000002  0.33173  0.46020000000000005  1.0000
  C   C102      1.0  0.12182000000000001  0.38307  0.52774  1.0000
  C   C103      1.0  0.39933  0.92014  0.48234  1.0000
  C   C104      1.0  0.69989  0.68466  0.5740400000000002  1.0000
  C   C105      1.0  0.84826  0.28755  0.535  1.0000
  C   C106      1.0  0.13189  0.3383  0.45326000000000005  1.0000
  C   C107      1.0  0.38903  0.88536  0.55968  1.0000
  C   C108      1.0  0.7094900000000002  0.65569  0.49457000000000007  1.0000
  C   C109      1.0  0.7189300000000001  0.32094  0.55862  1.0000
  C   C110      1.0  0.24858000000000002  0.41298  0.42216000000000004  1.0000
  C   C111      1.0  0.26034  0.9301  0.58314  1.0000
  C   C112      1.0  0.77306  0.84515  0.4383600000000001  1.0000
  H   H29       1.0  0.63694  0.4531  0.41157000000000005  1.0000
  H   H30       1.0  0.29619  0.62508  0.54398  1.0000
  H   H31       1.0  0.19434000000000004  0.10743  0.44983  1.0000
  H   H32       1.0  0.8150100000000002  0.06001  0.56003  1.0000
  H   H33       1.0  0.8648400000000003  0.431  0.45872  1.0000
  H   H34       1.0  0.10603000000000001  0.47884  0.52923  1.0000
  H   H35       1.0  0.41335  0.01585  0.47489  1.0000
  H   H36       1.0  0.6468200000000002  0.71686  0.58774  1.0000
  H   H37       1.0  0.8888800000000001  0.27741  0.42377  1.0000
  H   H38       1.0  0.09228  0.32561  0.5650000000000002  1.0000
  H   H39       1.0  0.4298400000000001  0.85342  0.45143  1.0000
  H   H40       1.0  0.72106  0.61338  0.61013  1.0000
  H   H41       1.0  0.88038  0.20672000000000001  0.54603  1.0000
  H   H42       1.0  0.11181000000000002  0.24601000000000003  0.44427000000000005  1.0000
  H   H43       1.0  0.41149000000000013  0.7956300000000001  0.57351  1.0000
  H   H44       1.0  0.7416  0.57457  0.48645  1.0000
  H   H45       1.0  0.8546100000000002  0.35842  0.57444  1.0000
  H   H46       1.0  0.11772  0.4056  0.41159  1.0000
  H   H47       1.0  0.4015  0.95904  0.59766  1.0000
  H   H48       1.0  0.66243  0.66864  0.46098000000000006  1.0000
  N   N1        1.0  0.51904  0.95349  0.08492  1.0000
  O   O53       1.0  0.49073000000000006  0.85354  0.0637  1.0000
  O   O54       1.0  0.56155  0.94981  0.13904  1.0000
  N   N2        1.0  0.5335500000000001  0.94904  0.93247  1.0000
  O   O55       1.0  0.58673  0.88979  0.9572900000000001  1.0000
  O   O56       1.0  0.4925  0.89665  0.88708  1.0000
  N   N3        1.0  0.01901  0.45346  0.0849  1.0000
  O   O57       1.0  0.9906900000000001  0.35352  0.06368000000000001  1.0000
  O   O58       1.0  0.061520000000000005  0.44974  0.13903  1.0000
  N   N4        1.0  0.03352000000000001  0.44902000000000003  0.93246  1.0000
  O   O59       1.0  0.08669  0.38975  0.95727  1.0000
  O   O60       1.0  0.9924800000000001  0.39667  0.8870500000000001  1.0000
  C   C113      1.0  0.44196  0.4835499999999999  0.45143  1.0000
  H   H49       1.0  0.43506000000000006  0.55611  0.48955000000000004  1.0000
  O   O61       1.0  0.4636900000000001  0.50713  0.39146  1.0000
  C   C114      1.0  0.36641  0.26064  0.58111  1.0000
  H   H50       1.0  0.34665  0.18592  0.55  1.0000
  O   O62       1.0  0.3406  0.28231  0.6394000000000002  1.0000
  C   C115      1.0  0.09524000000000002  0.9321400000000001  0.3991  1.0000
  H   H51       1.0  0.14583000000000002  0.88869  0.40067  1.0000
  O   O63       1.0  0.08629  0.02065  0.36093  1.0000
  C   C116      1.0  0.9810800000000001  0.94  0.55989  1.0000
  H   H52       1.0  0.93079  0.8989  0.55126  1.0000
  O   O64       1.0  0.9858400000000002  0.025269999999999994  0.60046  1.0000
  C   C117      1.0  0.6064200000000002  0.45075999999999994  0.5509  1.0000
  H   H53       1.0  0.5933200000000001  0.44566999999999996  0.60641  1.0000
  O   O65       1.0  0.57185  0.52147  0.51547  1.0000
  C   C118      1.0  0.30793  0.60788  0.39665  1.0000
  H   H54       1.0  0.29413  0.60443  0.34039  1.0000
  O   O66       1.0  0.34898  0.68393  0.4158300000000001  1.0000
  C   C119      1.0  0.171  0.09166  0.59462  1.0000
  H   H55       1.0  0.18240000000000006  0.10934  0.65045  1.0000
  O   O67       1.0  0.11618  0.12638  0.5696800000000001  1.0000
  C   C120      1.0  0.83782  0.041940000000000005  0.4204700000000001  1.0000
  H   H56       1.0  0.81136  0.08184  0.37477  1.0000
  O   O68       1.0  0.89812  0.068  0.43235  1.0000
  N   N5        1.0  0.5658500000000001  0.48207000000000005  0.94704  1.0000
  O   O69       1.0  0.50233  0.46826  0.9696900000000002  1.0000
  O   O70       1.0  0.5786800000000001  0.56214  0.8974200000000001  1.0000
  N   N6        1.0  0.27085  0.60381  0.09721000000000003  1.0000
  O   O71       1.0  0.28721  0.65657  0.15676  1.0000
  O   O72       1.0  0.20553000000000005  0.59193  0.08052  1.0000
  N   N7        1.0  0.06587  0.9821199999999999  0.9470100000000001  1.0000
  O   O73       1.0  0.0023400000000000005  0.96835  0.9696600000000001  1.0000
  O   O74       1.0  0.07870000000000003  0.06209  0.8973300000000001  1.0000
  N   N8        1.0  0.7708  0.10389  0.0971  1.0000
  O   O75       1.0  0.7871300000000001  0.15694  0.15658  1.0000
  O   O76       1.0  0.70549  0.09191  0.0804  1.0000
  N   N9        1.0  0.5742000000000003  0.96009  0.55348  1.0000
  O   O77       1.0  0.5390200000000002  0.8884  0.59535  1.0000
  O   O78       1.0  0.63042  0.9200000000000002  0.52348  1.0000
  N   N10       1.0  0.5661900000000001  0.9896400000000001  0.40116  1.0000
  O   O79       1.0  0.60083  0.023189999999999995  0.34444  1.0000
  O   O80       1.0  0.55198  0.87585  0.41015  1.0000
  N   N11       1.0  0.94876  0.4920399999999999  0.58737  1.0000
  O   O81       1.0  0.8970900000000002  0.53953  0.6227200000000003  1.0000
  O   O82       1.0  0.97882  0.39684  0.61445  1.0000
  N   N12       1.0  0.99031  0.42796  0.43703000000000003  1.0000
  O   O83       1.0  0.0033799999999999998  0.40424  0.3701700000000001  1.0000
  O   O84       1.0  0.9913200000000001  0.33684  0.48124  1.0000
