data_image0
_chemical_formula_structural       BrC60Cr6H41O26
_chemical_formula_sum              "Br1 C60 Cr6 H41 O26"
_cell_length_a       10.91747
_cell_length_b       10.9557
_cell_length_c       18.74771
_cell_angle_alpha    90.60334
_cell_angle_beta     90.38111000000002
_cell_angle_gamma    60.38473

_symmetry_space_group_name_H-M    'P 1'
_symmetry_Int_Tables_number       1

loop_
  _symmetry_equiv_pos_as_xyz
  'x,y,z'

loop_
  _atom_site_type_symbol
  _atom_site_label
  _atom_site_symmetry_multiplicity
  _atom_site_fract_x
  _atom_site_fract_y
  _atom_site_fract_z
  _atom_site_occupancy
  Br  Br1       1.0  0.6845000000000001  0.94802  0.35993  1.0000
  C   C1        1.0  0.23998000000000005  0.64542  0.61049  1.0000
  C   C2        1.0  0.57917  0.13956  0.70928  1.0000
  C   C3        1.0  0.57494  0.14716  0.78254  1.0000
  C   C4        1.0  0.65429  0.62262  0.60062  1.0000
  C   C5        1.0  0.93662  0.09093  0.78647  1.0000
  C   C6        1.0  0.9319800000000001  0.09816  0.70572  1.0000
  C   C7        1.0  0.67564  0.16255  0.6718  1.0000
  C   C8        1.0  0.18263000000000001  0.66631  0.83559  1.0000
  C   C9        1.0  0.15533000000000002  0.57535  0.79434  1.0000
  C   C10       1.0  0.16367  0.57332  0.7204  1.0000
  C   C11       1.0  0.21746000000000007  0.76125  0.72656  1.0000
  C   C12       1.0  0.66702  0.5534  0.79973  1.0000
  C   C13       1.0  0.21678  0.75781  0.8006  1.0000
  C   C14       1.0  0.22928  0.4192  0.79766  1.0000
  C   C15       1.0  0.23611000000000001  0.41746999999999995  0.71699  1.0000
  C   C16       1.0  0.6307100000000001  0.225  0.60168  1.0000
  C   C17       1.0  0.19667  0.66483  0.68513  1.0000
  C   C18       1.0  0.6717  0.67375  0.17197  1.0000
  C   C19       1.0  0.7918400000000001  0.60605  0.21521  1.0000
  C   C20       1.0  0.7846100000000001  0.6037  0.28783  1.0000
  C   C21       1.0  0.53097  0.74391  0.27939  1.0000
  C   C22       1.0  0.54015  0.74929  0.20494  1.0000
  C   C23       1.0  0.69829  0.67395  0.81223  1.0000
  C   C24       1.0  0.9144700000000002  0.46009  0.21145  1.0000
  C   C25       1.0  0.9120500000000002  0.46018  0.29216  1.0000
  C   C26       1.0  0.65375  0.6638  0.32096  1.0000
  C   C27       1.0  0.62763  0.1915  0.16844  1.0000
  C   C28       1.0  0.22022000000000005  0.6493  0.40198  1.0000
  C   C29       1.0  0.53773  0.16825  0.21142  1.0000
  C   C30       1.0  0.52102  0.20514  0.28179  1.0000
  C   C31       1.0  0.6529800000000001  0.32479  0.2659  1.0000
  C   C32       1.0  0.6748300000000002  0.2821  0.19363  1.0000
  C   C33       1.0  0.53673  0.03507  0.22525  1.0000
  C   C34       1.0  0.67023  0.64827  0.67603  1.0000
  C   C35       1.0  0.52015  0.0745  0.30362  1.0000
  C   C36       1.0  0.5876000000000001  0.27354999999999996  0.31195  1.0000
  C   C37       1.0  0.06125000000000009  0.7186199999999999  0.19358  1.0000
  C   C38       1.0  0.004960000000000128  0.8293499999999998  0.24271999999999996  1.0000
  C   C39       1.0  0.04670000000000004  0.80695  0.31317  1.0000
  C   C40       1.0  0.64121  0.6227  0.39228  1.0000
  C   C41       1.0  0.18576999999999994  0.55816  0.28922  1.0000
  C   C42       1.0  0.14859  0.58153  0.21778999999999998  1.0000
  C   C43       1.0  0.004290000000000071  0.9659499999999999  0.24159000000000003  1.0000
  C   C44       1.0  0.048829999999999985  0.94201  0.31913  1.0000
  C   C45       1.0  0.8176000000000001  0.62915  0.6907  1.0000
  C   C46       1.0  0.14317999999999995  0.67236  0.33641  1.0000
  C   C47       1.0  0.70192  0.10033  0.8953400000000001  1.0000
  C   C48       1.0  0.72277  0.68784  0.88838  1.0000
  C   C49       1.0  0.11969000000000006  0.70526  0.90627  1.0000
  C   C50       1.0  0.67164  0.11339  0.10189  1.0000
  C   C51       1.0  0.6965100000000001  0.6895299999999999  0.09759  1.0000
  C   C52       1.0  0.5772200000000001  0.29813  0.38856  1.0000
  C   C53       1.0  0.029009999999999946  0.74582  0.1189  1.0000
  C   C54       1.0  0.57368  0.81125  0.78199  1.0000
  C   C55       1.0  0.55885  0.79724  0.70131  1.0000
  C   C56       1.0  0.6512500000000001  0.53785  0.71932  1.0000
  C   C57       1.0  0.8342  0.64306  0.77107  1.0000
  C   C58       1.0  0.6825700000000001  0.15224999999999997  0.82226  1.0000
  C   C59       1.0  0.7806400000000001  0.17345999999999998  0.78495  1.0000
  C   C60       1.0  0.7751300000000001  0.18193  0.71066  1.0000
  Cr  Cr1       1.0  0.39296  0.39791999999999994  0.50224  1.0000
  Cr  Cr2       1.0  0.39834  0.70848  0.50125  1.0000
  Cr  Cr3       1.0  0.70867  0.39357  0.49646  1.0000
  Cr  Cr4       1.0  0.9376500000000002  0.9385399999999999  0.00761  1.0000
  Cr  Cr5       1.0  0.6253299999999999  0.93737  0.99452  1.0000
  Cr  Cr6       1.0  0.9379400000000002  0.62523  0.00119  1.0000
  H   H1        1.0  0.59402  0.89916  0.79192  1.0000
  H   H2        1.0  0.96829  0.99495  0.67895  1.0000
  H   H3        1.0  0.4735700000000001  0.83615  0.80922  1.0000
  H   H4        1.0  0.23293  0.8341799999999999  0.83021  1.0000
  H   H5        1.0  0.16117  0.37896  0.81867  1.0000
  H   H6        1.0  0.33310000000000006  0.3770899999999999  0.82446  1.0000
  H   H7        1.0  0.34408000000000005  0.37374  0.69594  1.0000
  H   H8        1.0  0.17039  0.3782  0.69091  1.0000
  H   H9        1.0  0.42745  0.79452  0.30356  1.0000
  H   H10       1.0  0.44571000000000005  0.80957  0.17355  1.0000
  H   H11       1.0  0.009830000000000024  0.45424  0.18849  1.0000
  H   H12       1.0  0.7332200000000001  0.43139  0.70261  1.0000
  H   H13       1.0  0.88707  0.38422  0.1871  1.0000
  H   H14       1.0  0.89417  0.37664  0.31384  1.0000
  H   H15       1.0  0.002950000000000035  0.46349999999999997  0.31686  1.0000
  H   H16       1.0  0.6915500000000001  0.39138999999999996  0.28632  1.0000
  H   H17       1.0  0.73467  0.31135  0.15913  1.0000
  H   H18       1.0  0.63905  0.94116  0.21146  1.0000
  H   H19       1.0  0.44182  0.03759  0.20175  1.0000
  H   H20       1.0  0.41718  0.09624999999999999  0.32598  1.0000
  H   H21       1.0  0.25972  0.45219  0.30555  1.0000
  H   H22       1.0  0.19561  0.49327999999999994  0.18104  1.0000
  H   H23       1.0  0.92388  0.54285  0.79002  1.0000
  H   H24       1.0  0.89715  0.05526  0.23426999999999998  1.0000
  H   H25       1.0  0.5732200000000001  0.8773999999999997  0.67245  1.0000
  H   H26       1.0  0.08586000000000014  0.96481  0.20595  1.0000
  H   H27       1.0  0.1558400000000001  0.9280399999999999  0.32761  1.0000
  H   H28       1.0  0.96634  0.01795  0.35598  1.0000
  H   H29       1.0  0.8594199999999999  0.72858  0.78126  1.0000
  H   H30       1.0  0.8314600000000001  0.70957  0.66162  1.0000
  H   H31       1.0  0.75402  0.45348  0.82122  1.0000
  H   H32       1.0  0.54645  0.5476  0.70812  1.0000
  H   H33       1.0  0.23920000000000005  0.8372399999999999  0.70204  1.0000
  H   H34       1.0  0.9013  0.52407  0.67202  1.0000
  H   H35       1.0  0.45090000000000013  0.8175399999999999  0.68968  1.0000
  H   H36       1.0  0.5683500000000001  0.57566  0.82768  1.0000
  H   H37       1.0  0.4976700000000001  0.1278  0.68207  1.0000
  H   H38       1.0  0.49193000000000003  0.136  0.8075  1.0000
  H   H39       1.0  0.9732500000000001  0.9843299999999999  0.80733  1.0000
  H   H40       1.0  0.9842  0.15  0.81172  1.0000
  H   H41       1.0  0.97787  0.16089  0.68413  1.0000
  O   O1        1.0  0.50738  0.2557  0.58144  1.0000
  O   O2        1.0  0.83717  0.5934099999999999  0.9152499999999999  1.0000
  O   O3        1.0  0.06520000000000004  0.63553  0.93157  1.0000
  O   O4        1.0  0.28032  0.52735  0.57893  1.0000
  O   O5        1.0  0.06825999999999996  0.82889  0.09184  1.0000
  O   O6        1.0  0.7988700000000002  0.05741  0.07934  1.0000
  O   O7        1.0  0.58493  0.08035  0.07678  1.0000
  O   O8        1.0  0.62696  0.8096499999999999  0.06706  1.0000
  O   O9        1.0  0.81604  0.59661  0.07651  1.0000
  O   O10       1.0  0.045610000000000026  0.6385  0.08106  1.0000
  O   O11       1.0  0.83364  0.8337099999999998  0.0011  1.0000
  O   O12       1.0  0.5244799999999998  0.69581  0.42404  1.0000
  O   O13       1.0  0.26051  0.73959  0.58459  1.0000
  O   O14       1.0  0.5323000000000002  0.69508  0.57382  1.0000
  O   O15       1.0  0.74484  0.5035  0.57637  1.0000
  O   O16       1.0  0.6991200000000002  0.27656  0.57196  1.0000
  O   O17       1.0  0.49894  0.2565  0.41986  1.0000
  O   O18       1.0  0.2725  0.52808  0.42915000000000003  1.0000
  O   O19       1.0  0.25206000000000023  0.7403799999999999  0.42301  1.0000
  O   O20       1.0  0.7363900000000003  0.50429  0.41479  1.0000
  O   O21       1.0  0.6913  0.2772899999999999  0.42217  1.0000
  O   O22       1.0  0.49999000000000005  0.49998999999999993  0.4999799999999999  1.0000
  O   O23       1.0  0.08940000000000013  0.82569  0.9305699999999999  1.0000
  O   O24       1.0  0.81846  0.05444  0.92985  1.0000
  O   O25       1.0  0.60606  0.07714999999999998  0.91551  1.0000
  O   O26       1.0  0.6465500000000002  0.80668  0.91757  1.0000
