data_image0
_chemical_formula_structural       C100Cr12H32O52CNCNCNCNOHOHOHOHCNCNCNCNOHOHOHOHCNCNCNCN
_chemical_formula_sum              "C112 Cr12 H40 O60 N12"
_cell_length_a       19.10692
_cell_length_b       10.8946
_cell_length_c       18.86694
_cell_angle_alpha    90.14292
_cell_angle_beta     89.88425
_cell_angle_gamma    89.85252000000001

_symmetry_space_group_name_H-M    'P 1'
_symmetry_Int_Tables_number       1

loop_
  _symmetry_equiv_pos_as_xyz
  'x,y,z'

loop_
  _atom_site_type_symbol
  _atom_site_label
  _atom_site_symmetry_multiplicity
  _atom_site_fract_x
  _atom_site_fract_y
  _atom_site_fract_z
  _atom_site_occupancy
  C   C1        1.0  0.72982  0.37432  0.6452  1.0000
  C   C2        1.0  0.27135  0.3744  0.35523  1.0000
  C   C3        1.0  0.22982  0.87432  0.6452  1.0000
  C   C4        1.0  0.7713499999999999  0.8744000000000001  0.35523  1.0000
  C   C5        1.0  0.54619  0.33457  0.44503  1.0000
  C   C6        1.0  0.56636  0.33871  0.52269  1.0000
  C   C7        1.0  0.04619  0.83457  0.44503  1.0000
  C   C8        1.0  0.06636  0.8387100000000001  0.52269  1.0000
  C   C9        1.0  0.6868  0.92906  0.5320999999999999  1.0000
  C   C10       1.0  0.27995  0.83932  0.45478  1.0000
  C   C11       1.0  0.1868  0.42905  0.5320999999999999  1.0000
  C   C12       1.0  0.77995  0.33932  0.45478  1.0000
  C   C13       1.0  0.6932  0.9165  0.45901999999999993  1.0000
  C   C14       1.0  0.28371  0.82297  0.52744  1.0000
  C   C15       1.0  0.1932  0.4165  0.45901999999999993  1.0000
  C   C16       1.0  0.7837099999999999  0.32297  0.52744  1.0000
  C   C17       1.0  0.7597299999999999  0.89864  0.42993  1.0000
  C   C18       1.0  0.24925  0.90741  0.57339  1.0000
  C   C19       1.0  0.25973  0.39864  0.42993  1.0000
  C   C20       1.0  0.74925  0.40740999999999994  0.57339  1.0000
  C   C21       1.0  0.8182799999999999  0.8879999999999999  0.47420999999999996  1.0000
  C   C22       1.0  0.21829  0.01241  0.54583  1.0000
  C   C23       1.0  0.31828  0.38800999999999997  0.47420999999999996  1.0000
  C   C24       1.0  0.71829  0.51241  0.54583  1.0000
  C   C25       1.0  0.81206  0.8935  0.54701  1.0000
  C   C26       1.0  0.21680000000000002  0.03074  0.4738299999999999  1.0000
  C   C27       1.0  0.31206  0.3935  0.54701  1.0000
  C   C28       1.0  0.71681  0.53075  0.4738299999999999  1.0000
  C   C29       1.0  0.74643  0.9214  0.57603  1.0000
  C   C30       1.0  0.24898  0.9440199999999999  0.42775  1.0000
  C   C31       1.0  0.24644  0.42139999999999994  0.57603  1.0000
  C   C32       1.0  0.74898  0.44401999999999997  0.42775  1.0000
  C   C33       1.0  0.45780999999999994  0.06055  0.9465  1.0000
  C   C34       1.0  0.44797  0.05115  0.01962  1.0000
  C   C35       1.0  0.9578100000000002  0.56055  0.9465  1.0000
  C   C36       1.0  0.9479699999999999  0.55115  0.01962  1.0000
  C   C37       1.0  0.45654  0.15642  0.06313  1.0000
  C   C38       1.0  0.4909299999999999  0.1658  0.9187499999999998  1.0000
  C   C39       1.0  0.9565399999999998  0.65642  0.06313  1.0000
  C   C40       1.0  0.99093  0.6658  0.9187499999999998  1.0000
  C   C41       1.0  0.48133  0.2656  0.03306  1.0000
  C   C42       1.0  0.50087  0.26874  0.9621399999999999  1.0000
  C   C43       1.0  0.9813299999999999  0.7656000000000001  0.03306  1.0000
  C   C44       1.0  0.0008700000000000004  0.76874  0.9621399999999999  1.0000
  C   C45       1.0  0.53106  0.15551  0.64733  1.0000
  C   C46       1.0  0.43882  0.1504  0.36145  1.0000
  C   C47       1.0  0.03106  0.65551  0.64733  1.0000
  C   C48       1.0  0.9388199999999999  0.6504  0.36145  1.0000
  C   C49       1.0  0.8154499999999999  0.9338799999999999  0.95802  1.0000
  C   C50       1.0  0.21541999999999997  0.03203  0.02527  1.0000
  C   C51       1.0  0.31545  0.43388  0.95802  1.0000
  C   C52       1.0  0.71542  0.53203  0.02527  1.0000
  C   C53       1.0  0.8201899999999999  0.9255199999999999  0.030999999999999996  1.0000
  C   C54       1.0  0.2161  0.01433  0.9526099999999998  1.0000
  C   C55       1.0  0.32019  0.42552  0.030999999999999996  1.0000
  C   C56       1.0  0.7161  0.51433  0.9526099999999998  1.0000
  C   C57       1.0  0.76035  0.9072799999999999  0.07297  1.0000
  C   C58       1.0  0.24677  0.90988  0.92424  1.0000
  C   C59       1.0  0.26035  0.40728  0.07297  1.0000
  C   C60       1.0  0.74677  0.40988  0.92424  1.0000
  C   C61       1.0  0.69453  0.9005  0.04177  1.0000
  C   C62       1.0  0.27967  0.82327  0.96821  1.0000
  C   C63       1.0  0.19452999999999998  0.40049  0.04177  1.0000
  C   C64       1.0  0.77967  0.32327  0.96821  1.0000
  C   C65       1.0  0.68886  0.91062  0.96863  1.0000
  C   C66       1.0  0.28116  0.8415499999999999  0.04086  1.0000
  C   C67       1.0  0.18886  0.41062  0.96863  1.0000
  C   C68       1.0  0.78116  0.34155  0.04086  1.0000
  C   C69       1.0  0.7490899999999999  0.92848  0.9266399999999999  1.0000
  C   C70       1.0  0.25071  0.94674  0.06956  1.0000
  C   C71       1.0  0.24909  0.42848  0.9266399999999999  1.0000
  C   C72       1.0  0.75071  0.44674  0.06956  1.0000
  C   C73       1.0  0.74061  0.9691899999999999  0.64744  1.0000
  C   C74       1.0  0.2589  0.97418  0.35392  1.0000
  C   C75       1.0  0.24060999999999996  0.46919  0.64744  1.0000
  C   C76       1.0  0.7589  0.47418  0.35392  1.0000
  C   C77       1.0  0.72924  0.37667999999999996  0.8526599999999999  1.0000
  C   C78       1.0  0.27162  0.37684  0.14676  1.0000
  C   C79       1.0  0.22924  0.87669  0.8526599999999999  1.0000
  C   C80       1.0  0.77162  0.87684  0.14676  1.0000
  C   C81       1.0  0.5295599999999999  0.15737  0.8517300000000001  1.0000
  C   C82       1.0  0.43805  0.15237  0.13880999999999996  1.0000
  C   C83       1.0  0.02956  0.65737  0.8517300000000001  1.0000
  C   C84       1.0  0.9380499999999999  0.65237  0.13880999999999996  1.0000
  C   C85       1.0  0.74079  0.9717299999999999  0.8545499999999999  1.0000
  C   C86       1.0  0.25941  0.97569  0.14408  1.0000
  C   C87       1.0  0.24078999999999998  0.47173  0.8545499999999999  1.0000
  C   C88       1.0  0.75941  0.47569  0.14408  1.0000
  C   C89       1.0  0.45775999999999994  0.15343999999999997  0.43656999999999996  1.0000
  C   C90       1.0  0.49127999999999994  0.16527  0.58181  1.0000
  C   C91       1.0  0.9577599999999998  0.65344  0.43656999999999996  1.0000
  C   C92       1.0  0.9912799999999999  0.66527  0.58181  1.0000
  C   C93       1.0  0.48373000000000005  0.26107  0.46659  1.0000
  C   C94       1.0  0.50201  0.2655  0.53715  1.0000
  C   C95       1.0  0.98373  0.7610599999999998  0.46659  1.0000
  C   C96       1.0  0.00201  0.7655000000000001  0.53715  1.0000
  C   C97       1.0  0.45433000000000007  0.0631  0.55525  1.0000
  C   C98       1.0  0.44442999999999994  0.0516  0.48166  1.0000
  C   C99       1.0  0.9543299999999999  0.5631  0.55525  1.0000
  C   C100      1.0  0.94443  0.5516  0.48166  1.0000
  Cr  Cr1       1.0  0.77195  0.16948  0.7501  1.0000
  Cr  Cr2       1.0  0.22804999999999997  0.16948  0.2499  1.0000
  Cr  Cr3       1.0  0.27195  0.66948  0.7501  1.0000
  Cr  Cr4       1.0  0.72805  0.66948  0.2499  1.0000
  Cr  Cr5       1.0  0.6149299999999999  0.32334  0.74917  1.0000
  Cr  Cr6       1.0  0.38507  0.32334  0.25082999999999994  1.0000
  Cr  Cr7       1.0  0.11493  0.82334  0.74917  1.0000
  Cr  Cr8       1.0  0.88507  0.82334  0.25082999999999994  1.0000
  Cr  Cr9       1.0  0.6165899999999999  0.01062  0.75061  1.0000
  Cr  Cr10      1.0  0.38341  0.01062  0.24939  1.0000
  Cr  Cr11      1.0  0.11659  0.51062  0.75061  1.0000
  Cr  Cr12      1.0  0.8834099999999999  0.51062  0.24939  1.0000
  H   H1        1.0  0.8715999999999999  0.92973  0.05465  1.0000
  H   H2        1.0  0.18945  0.07916  0.91839  1.0000
  H   H3        1.0  0.3716  0.42973  0.05465  1.0000
  H   H4        1.0  0.68945  0.57916  0.91839  1.0000
  H   H5        1.0  0.64807  0.88593  0.07364  1.0000
  H   H6        1.0  0.30114  0.7387  0.9469399999999999  1.0000
  H   H7        1.0  0.14807  0.38592999999999994  0.07364  1.0000
  H   H8        1.0  0.80114  0.2387  0.9469399999999999  1.0000
  H   H9        1.0  0.63706  0.90963  0.94539  1.0000
  H   H10       1.0  0.30505  0.77323  0.07472  1.0000
  H   H11       1.0  0.13706  0.40963000000000005  0.94539  1.0000
  H   H12       1.0  0.80505  0.27322  0.07472  1.0000
  H   H13       1.0  0.03129  0.9259  0.42358  1.0000
  H   H14       1.0  0.11522999999999999  0.787  0.5343299999999999  1.0000
  H   H15       1.0  0.5312799999999999  0.42589999999999995  0.42359  1.0000
  H   H16       1.0  0.61523  0.287  0.5343299999999999  1.0000
  H   H17       1.0  0.5837  0.28147  0.41171  1.0000
  H   H18       1.0  0.56328  0.4324  0.54595  1.0000
  H   H19       1.0  0.0837  0.78146  0.41171  1.0000
  H   H20       1.0  0.06328  0.9324  0.54595  1.0000
  H   H21       1.0  0.63591  0.95179  0.55418  1.0000
  H   H22       1.0  0.30429999999999996  0.7735900000000001  0.41909  1.0000
  H   H23       1.0  0.13591  0.45177999999999996  0.55418  1.0000
  H   H24       1.0  0.8043  0.27359  0.41909  1.0000
  H   H25       1.0  0.8693699999999999  0.8730099999999998  0.4518  1.0000
  H   H26       1.0  0.19186999999999999  0.07792  0.5801  1.0000
  H   H27       1.0  0.3693699999999999  0.37302  0.4518  1.0000
  H   H28       1.0  0.69187  0.57792  0.5801  1.0000
  H   H29       1.0  0.48975  0.34664  0.06522999999999998  1.0000
  H   H30       1.0  0.5265999999999998  0.35011  0.9420999999999999  1.0000
  H   H31       1.0  0.9897499999999999  0.84664  0.06522999999999998  1.0000
  H   H32       1.0  0.0266  0.8501099999999999  0.9420999999999999  1.0000
  O   O1        1.0  0.78751  0.04261  0.6704099999999998  1.0000
  O   O2        1.0  0.21249  0.04261  0.32959  1.0000
  O   O3        1.0  0.28751  0.54261  0.6704099999999998  1.0000
  O   O4        1.0  0.71249  0.54261  0.32959  1.0000
  O   O5        1.0  0.55645  0.25289  0.82379  1.0000
  O   O6        1.0  0.44355  0.25289  0.17621  1.0000
  O   O7        1.0  0.05645  0.75289  0.82379  1.0000
  O   O8        1.0  0.94355  0.75289  0.17621  1.0000
  O   O9        1.0  0.54575  0.05106999999999999  0.83056  1.0000
  O   O10       1.0  0.45424999999999993  0.05106999999999999  0.16944  1.0000
  O   O11       1.0  0.04575  0.55107  0.83056  1.0000
  O   O12       1.0  0.9542499999999999  0.55107  0.16944  1.0000
  O   O13       1.0  0.68121  0.95915  0.8253199999999999  1.0000
  O   O14       1.0  0.31879  0.95915  0.17468  1.0000
  O   O15       1.0  0.18121  0.45915  0.8253199999999999  1.0000
  O   O16       1.0  0.81879  0.45915  0.17468  1.0000
  O   O17       1.0  0.66782  0.16781  0.74996  1.0000
  O   O18       1.0  0.33218  0.16781  0.25004  1.0000
  O   O19       1.0  0.16782  0.66781  0.74996  1.0000
  O   O20       1.0  0.8321799999999999  0.66781  0.25004  1.0000
  O   O21       1.0  0.76567  0.29209  0.67509  1.0000
  O   O22       1.0  0.23433  0.29209  0.32491  1.0000
  O   O23       1.0  0.26567  0.7920900000000001  0.67509  1.0000
  O   O24       1.0  0.7343299999999999  0.7920900000000001  0.32491  1.0000
  O   O25       1.0  0.67022  0.40901999999999994  0.66856  1.0000
  O   O26       1.0  0.32978  0.40901999999999994  0.33144  1.0000
  O   O27       1.0  0.17022  0.90902  0.66856  1.0000
  O   O28       1.0  0.8297799999999999  0.90902  0.33144  1.0000
  O   O29       1.0  0.55658  0.25159  0.67498  1.0000
  O   O30       1.0  0.4434199999999999  0.25159  0.3250199999999999  1.0000
  O   O31       1.0  0.05657999999999999  0.7515899999999999  0.67498  1.0000
  O   O32       1.0  0.9434199999999999  0.7515899999999999  0.3250199999999999  1.0000
  O   O33       1.0  0.54589  0.04967  0.67003  1.0000
  O   O34       1.0  0.45411  0.04967  0.32997  1.0000
  O   O35       1.0  0.04589  0.54967  0.67003  1.0000
  O   O36       1.0  0.95411  0.54967  0.32997  1.0000
  O   O37       1.0  0.68134  0.9578599999999999  0.6765  1.0000
  O   O38       1.0  0.31865999999999994  0.9578599999999999  0.3235  1.0000
  O   O39       1.0  0.18134  0.45786  0.6765  1.0000
  O   O40       1.0  0.8186599999999999  0.45786  0.3235  1.0000
  O   O41       1.0  0.78738  0.04401  0.83094  1.0000
  O   O42       1.0  0.21262  0.04401  0.16905999999999996  1.0000
  O   O43       1.0  0.28738  0.54401  0.83094  1.0000
  O   O44       1.0  0.71262  0.54401  0.16905999999999996  1.0000
  O   O45       1.0  0.76554  0.29339  0.82391  1.0000
  O   O46       1.0  0.23445999999999997  0.29339  0.17609  1.0000
  O   O47       1.0  0.26554  0.79339  0.82391  1.0000
  O   O48       1.0  0.73446  0.79339  0.17609  1.0000
  O   O49       1.0  0.67009  0.41041  0.8290899999999999  1.0000
  O   O50       1.0  0.32991  0.41041  0.17091  1.0000
  O   O51       1.0  0.17009  0.91041  0.8290899999999999  1.0000
  O   O52       1.0  0.8299099999999999  0.91041  0.17091  1.0000
  C   C101      1.0  0.43319  0.9654  0.60273  1.0000
  N   N1        1.0  0.41733  0.88906  0.64206  1.0000
  C   C102      1.0  0.43696999999999997  0.92925  0.45259999999999995  1.0000
  N   N2        1.0  0.4339199999999999  0.83118  0.42913  1.0000
  C   C103      1.0  0.93319  0.4654  0.60273  1.0000
  N   N3        1.0  0.9173300000000001  0.38905999999999996  0.64206  1.0000
  C   C104      1.0  0.9369699999999999  0.42924999999999996  0.45259999999999995  1.0000
  N   N4        1.0  0.93392  0.33118  0.42913  1.0000
  O   O53       1.0  0.87459  0.9503199999999999  0.9167699999999999  1.0000
  H   H33       1.0  0.9147  0.9709599999999999  0.9477599999999999  1.0000
  O   O54       1.0  0.17987  0.13121  0.05362  1.0000
  H   H34       1.0  0.1492  0.16751  0.01683  1.0000
  O   O55       1.0  0.37459  0.45032  0.9167699999999999  1.0000
  H   H35       1.0  0.4147  0.47095999999999993  0.9477599999999999  1.0000
  O   O56       1.0  0.67987  0.63121  0.05362  1.0000
  H   H36       1.0  0.6492  0.66751  0.01683  1.0000
  C   C105      1.0  0.63236  0.92813  0.41451  1.0000
  N   N5        1.0  0.58414  0.93717  0.37799  1.0000
  C   C106      1.0  0.32944  0.72642  0.55146  1.0000
  N   N6        1.0  0.36851  0.65141  0.56921  1.0000
  C   C107      1.0  0.13236  0.42812  0.41451  1.0000
  N   N7        1.0  0.08414  0.43715000000000004  0.37799  1.0000
  C   C108      1.0  0.82944  0.22642  0.55146  1.0000
  N   N8        1.0  0.86851  0.1514  0.56921  1.0000
  O   O57       1.0  0.87133  0.8766299999999999  0.5874799999999999  1.0000
  H   H37       1.0  0.8572799999999999  0.85473  0.6363899999999999  1.0000
  O   O58       1.0  0.18422  0.13511  0.44997  1.0000
  H   H38       1.0  0.13962  0.10726  0.42851999999999996  1.0000
  O   O59       1.0  0.37134  0.3766399999999999  0.5874799999999999  1.0000
  H   H39       1.0  0.35728  0.35473  0.6363899999999999  1.0000
  O   O60       1.0  0.68422  0.63511  0.44997  1.0000
  H   H40       1.0  0.63962  0.60726  0.42851999999999996  1.0000
  C   C109      1.0  0.4371499999999999  0.9590099999999999  0.90099  1.0000
  N   N9        1.0  0.42087  0.8781599999999999  0.86474  1.0000
  C   C110      1.0  0.4402  0.92926  0.04943  1.0000
  N   N10       1.0  0.43628  0.8316399999999999  0.07313  1.0000
  C   C111      1.0  0.93715  0.45901  0.90099  1.0000
  N   N11       1.0  0.9208699999999999  0.37816  0.86474  1.0000
  C   C112      1.0  0.9402  0.42926  0.04943  1.0000
  N   N12       1.0  0.93628  0.33164  0.07313  1.0000
