data_image0
_chemical_formula_structural       C120Cr12H68O52NH2NH2NH2NH2
_chemical_formula_sum              "C120 Cr12 H76 O52 N4"
_cell_length_a       18.89309
_cell_length_b       10.99557
_cell_length_c       18.76063
_cell_angle_alpha    90.11539
_cell_angle_beta     91.25994
_cell_angle_gamma    89.90952999999999

_symmetry_space_group_name_H-M    'P 1'
_symmetry_Int_Tables_number       1

loop_
  _symmetry_equiv_pos_as_xyz
  'x,y,z'

loop_
  _atom_site_type_symbol
  _atom_site_label
  _atom_site_symmetry_multiplicity
  _atom_site_fract_x
  _atom_site_fract_y
  _atom_site_fract_z
  _atom_site_occupancy
  C   C1        1.0  0.27344  0.03996  0.85477  1.0000
  C   C2        1.0  0.72629  0.03948  0.14512000000000003  1.0000
  C   C3        1.0  0.77344  0.53996  0.85477  1.0000
  C   C4        1.0  0.22628999999999996  0.53949  0.14512000000000003  1.0000
  C   C5        1.0  0.53176  0.73155  0.9715700000000002  1.0000
  C   C6        1.0  0.47274  0.72692  0.02716  1.0000
  C   C7        1.0  0.03175  0.23155  0.9715700000000002  1.0000
  C   C8        1.0  0.9727399999999999  0.22692  0.02716  1.0000
  C   C9        1.0  0.24051  0.5737  0.0719  1.0000
  C   C10       1.0  0.7581  0.57567  0.92772  1.0000
  C   C11       1.0  0.74051  0.07369  0.07189  1.0000
  C   C12       1.0  0.2581  0.07568  0.92772  1.0000
  C   C13       1.0  0.30488  0.54989  0.03918  1.0000
  C   C14       1.0  0.69584  0.54204  0.96194  1.0000
  C   C15       1.0  0.80488  0.04988  0.03918  1.0000
  C   C16       1.0  0.19584  0.04204  0.96194  1.0000
  C   C17       1.0  0.31074  0.5594  0.9654200000000001  1.0000
  C   C18       1.0  0.69122  0.5502  0.036070000000000005  1.0000
  C   C19       1.0  0.81074  0.05939  0.9654200000000001  1.0000
  C   C20       1.0  0.19122  0.05021  0.036070000000000005  1.0000
  C   C21       1.0  0.18703  0.61256  0.95543  1.0000
  C   C22       1.0  0.81183  0.62122  0.04311  1.0000
  C   C23       1.0  0.68702  0.11254  0.95542  1.0000
  C   C24       1.0  0.31183  0.12123  0.04311  1.0000
  C   C25       1.0  0.18222  0.60932  0.028770000000000004  1.0000
  C   C26       1.0  0.81508  0.61978  0.9697100000000001  1.0000
  C   C27       1.0  0.68222  0.10931  0.028770000000000004  1.0000
  C   C28       1.0  0.31508  0.11977999999999998  0.9697100000000001  1.0000
  C   C29       1.0  0.34865  0.43739  0.04304000000000001  1.0000
  C   C30       1.0  0.65866  0.42273  0.95868  1.0000
  C   C31       1.0  0.84864  0.9373799999999999  0.04303  1.0000
  C   C32       1.0  0.15866  0.92274  0.95868  1.0000
  C   C33       1.0  0.35465  0.44606  0.96273  1.0000
  C   C34       1.0  0.6558  0.42838999999999994  0.03924  1.0000
  C   C35       1.0  0.85465  0.94605  0.96273  1.0000
  C   C36       1.0  0.1558  0.92839  0.03924  1.0000
  C   C37       1.0  0.25124  0.58773  0.9225800000000001  1.0000
  C   C38       1.0  0.74974  0.58782  0.07741  1.0000
  C   C39       1.0  0.7512300000000001  0.08772  0.9225800000000001  1.0000
  C   C40       1.0  0.24974  0.08783  0.07741  1.0000
  C   C41       1.0  0.49579000000000006  0.82925  0.4215  1.0000
  C   C42       1.0  0.48548  0.83113  0.57087  1.0000
  C   C43       1.0  0.99404  0.33043  0.42067000000000004  1.0000
  C   C44       1.0  0.98277  0.32978  0.5698500000000001  1.0000
  C   C45       1.0  0.47051  0.82177  0.8554500000000002  1.0000
  C   C46       1.0  0.5296  0.82165  0.14445  1.0000
  C   C47       1.0  0.9705100000000001  0.32177  0.8554500000000002  1.0000
  C   C48       1.0  0.02959  0.32165  0.14445  1.0000
  C   C49       1.0  0.48745000000000005  0.7213  0.45981  1.0000
  C   C50       1.0  0.48405999999999993  0.72325  0.53243  1.0000
  C   C51       1.0  0.97973  0.22274  0.4575  1.0000
  C   C52       1.0  0.9749199999999999  0.22317999999999996  0.5303100000000001  1.0000
  C   C53       1.0  0.48126  0.94104  0.53234  1.0000
  C   C54       1.0  0.48597999999999997  0.94006  0.45759  1.0000
  C   C55       1.0  0.98514  0.44078999999999996  0.5327  1.0000
  C   C56       1.0  0.98952  0.44113  0.45803  1.0000
  C   C57       1.0  0.53005  0.60606  0.4620600000000001  1.0000
  C   C58       1.0  0.52623  0.61007  0.54248  1.0000
  C   C59       1.0  0.01742  0.10248  0.45898000000000005  1.0000
  C   C60       1.0  0.012850000000000002  0.10508999999999999  0.5392100000000001  1.0000
  C   C61       1.0  0.25318  0.61326  0.41667  1.0000
  C   C62       1.0  0.74817  0.58873  0.57764  1.0000
  C   C63       1.0  0.75138  0.10548  0.41857  1.0000
  C   C64       1.0  0.24565000000000003  0.09621  0.58  1.0000
  C   C65       1.0  0.20459  0.68876  0.45102  1.0000
  C   C66       1.0  0.78364  0.68452  0.54567  1.0000
  C   C67       1.0  0.70239  0.17707  0.4550600000000001  1.0000
  C   C68       1.0  0.28071  0.19245  0.5477900000000001  1.0000
  C   C69       1.0  0.21333  0.71681  0.52194  1.0000
  C   C70       1.0  0.78389  0.69196  0.47308000000000006  1.0000
  C   C71       1.0  0.70547  0.18218999999999996  0.52762  1.0000
  C   C72       1.0  0.28072  0.19966  0.47507000000000005  1.0000
  C   C73       1.0  0.32618  0.61379  0.52399  1.0000
  C   C74       1.0  0.70547  0.52009  0.4615  1.0000
  C   C75       1.0  0.81472  0.06985  0.5294900000000001  1.0000
  C   C76       1.0  0.20053  0.030719999999999997  0.4642200000000001  1.0000
  C   C77       1.0  0.31769  0.58651  0.45137000000000005  1.0000
  C   C78       1.0  0.70408  0.5128  0.53537  1.0000
  C   C79       1.0  0.81233  0.06497  0.4551300000000001  1.0000
  C   C80       1.0  0.19884000000000002  0.024919999999999998  0.5382200000000001  1.0000
  C   C81       1.0  0.12641  0.67182  0.45837  1.0000
  C   C82       1.0  0.8591100000000002  0.72677  0.5518700000000001  1.0000
  C   C83       1.0  0.62267  0.17529  0.4556  1.0000
  C   C84       1.0  0.35503  0.24016999999999997  0.554  1.0000
  C   C85       1.0  0.13614  0.7001  0.53626  1.0000
  C   C86       1.0  0.85932  0.73139  0.47153000000000006  1.0000
  C   C87       1.0  0.62728  0.18073  0.5358200000000002  1.0000
  C   C88       1.0  0.35511  0.24436  0.47342000000000006  1.0000
  C   C89       1.0  0.26072  0.63521  0.85122  1.0000
  C   C90       1.0  0.7395  0.63504  0.14884  1.0000
  C   C91       1.0  0.76072  0.1352  0.85122  1.0000
  C   C92       1.0  0.2395  0.13504  0.14884  1.0000
  C   C93       1.0  0.27149  0.67232  0.56058  1.0000
  C   C94       1.0  0.74867  0.60662  0.43006000000000005  1.0000
  C   C95       1.0  0.75728  0.11925999999999999  0.5662  1.0000
  C   C96       1.0  0.24577000000000002  0.11362999999999998  0.43219  1.0000
  C   C97       1.0  0.27033  0.04751  0.6470700000000003  1.0000
  C   C98       1.0  0.72939  0.04888  0.35258000000000006  1.0000
  C   C99       1.0  0.7708599999999999  0.54577  0.64636  1.0000
  C   C100      1.0  0.22934000000000004  0.54881  0.3530000000000001  1.0000
  C   C101      1.0  0.4678899999999999  0.8235699999999999  0.64572  1.0000
  C   C102      1.0  0.5293  0.82334  0.35247000000000006  1.0000
  C   C103      1.0  0.96716  0.32326  0.64528  1.0000
  C   C104      1.0  0.029090000000000005  0.32341  0.35236  1.0000
  C   C105      1.0  0.27457  0.6906  0.63698  1.0000
  C   C106      1.0  0.7405  0.63741  0.35642  1.0000
  C   C107      1.0  0.76127  0.14181  0.64152  1.0000
  C   C108      1.0  0.23981000000000002  0.13958  0.35748  1.0000
  C   C109      1.0  0.46818  0.9269699999999998  0.02864  1.0000
  C   C110      1.0  0.52689  0.9317300000000001  0.9723800000000001  1.0000
  C   C111      1.0  0.9681799999999999  0.42697  0.02864  1.0000
  C   C112      1.0  0.0269  0.43172  0.9723800000000001  1.0000
  C   C113      1.0  0.43032  0.82491  0.9858200000000001  1.0000
  C   C114      1.0  0.5695  0.83377  0.014050000000000002  1.0000
  C   C115      1.0  0.93032  0.32492  0.9858200000000001  1.0000
  C   C116      1.0  0.0695  0.33376  0.014050000000000002  1.0000
  C   C117      1.0  0.48982  0.82924  0.93101  1.0000
  C   C118      1.0  0.51003  0.82874  0.06888  1.0000
  C   C119      1.0  0.98982  0.32924  0.93101  1.0000
  C   C120      1.0  0.01003  0.32874  0.06888  1.0000
  Cr  Cr1       1.0  0.22964  0.83588  0.7473700000000002  1.0000
  Cr  Cr2       1.0  0.77036  0.83588  0.25263  1.0000
  Cr  Cr3       1.0  0.72964  0.33588  0.7473700000000002  1.0000
  Cr  Cr4       1.0  0.27036  0.33588  0.25263  1.0000
  Cr  Cr5       1.0  0.38739  0.98972  0.75085  1.0000
  Cr  Cr6       1.0  0.61261  0.98972  0.24915000000000004  1.0000
  Cr  Cr7       1.0  0.8873900000000001  0.48972000000000004  0.75085  1.0000
  Cr  Cr8       1.0  0.11261000000000004  0.48972000000000004  0.24915000000000004  1.0000
  Cr  Cr9       1.0  0.38577  0.67722  0.74934  1.0000
  Cr  Cr10      1.0  0.61423  0.67722  0.25066  1.0000
  Cr  Cr11      1.0  0.8857700000000001  0.17722  0.74934  1.0000
  Cr  Cr12      1.0  0.11423  0.17722  0.25066  1.0000
  H   H1        1.0  0.37277  0.8215799999999999  0.9724900000000001  1.0000
  H   H2        1.0  0.62706  0.8373  0.02736  1.0000
  H   H3        1.0  0.87276  0.32159  0.9724900000000001  1.0000
  H   H4        1.0  0.12705  0.33728  0.02736  1.0000
  H   H5        1.0  0.4764999999999999  0.02691  0.55982  1.0000
  H   H6        1.0  0.48675999999999997  0.02527  0.42896  1.0000
  H   H7        1.0  0.9866899999999998  0.52611  0.5613  1.0000
  H   H8        1.0  0.99545  0.52668  0.43052  1.0000
  H   H9        1.0  0.07243  0.10914  0.44073000000000007  1.0000
  H   H10       1.0  0.97931  0.03166  0.56063  1.0000
  H   H11       1.0  0.58419  0.6202  0.44275000000000003  1.0000
  H   H12       1.0  0.49502000000000007  0.53417  0.56483  1.0000
  H   H13       1.0  0.50099  0.52791  0.43778  1.0000
  H   H14       1.0  0.5779800000000002  0.62764  0.56979  1.0000
  H   H15       1.0  0.98552  0.02863  0.43370000000000003  1.0000
  H   H16       1.0  0.06492  0.11616999999999998  0.56708  1.0000
  H   H17       1.0  0.37242  0.58047  0.55252  1.0000
  H   H18       1.0  0.67334  0.45871999999999996  0.4292500000000001  1.0000
  H   H19       1.0  0.8596600000000001  0.03198  0.55809  1.0000
  H   H20       1.0  0.16784  0.9695399999999998  0.4324  1.0000
  H   H21       1.0  0.35823  0.53552  0.42458  1.0000
  H   H22       1.0  0.67373  0.44067999999999996  0.55881  1.0000
  H   H23       1.0  0.85424  0.02  0.42701  1.0000
  H   H24       1.0  0.16680999999999999  0.9560899999999999  0.56229  1.0000
  H   H25       1.0  0.11028000000000002  0.57617  0.44914  1.0000
  H   H26       1.0  0.89681  0.65825  0.5731600000000001  1.0000
  H   H27       1.0  0.60007  0.08801  0.43668000000000007  1.0000
  H   H28       1.0  0.39446  0.17485  0.57574  1.0000
  H   H29       1.0  0.09504  0.7415900000000001  0.42865000000000003  1.0000
  H   H30       1.0  0.86359  0.8176499999999999  0.57742  1.0000
  H   H31       1.0  0.59874  0.25814  0.4311400000000001  1.0000
  H   H32       1.0  0.35709  0.33199  0.57891  1.0000
  H   H33       1.0  0.10828999999999998  0.78431  0.55215  1.0000
  H   H34       1.0  0.8656699999999999  0.8240599999999999  0.45016  1.0000
  H   H35       1.0  0.60608  0.26666  0.55804  1.0000
  H   H36       1.0  0.35879  0.33748  0.45186000000000004  1.0000
  H   H37       1.0  0.12546  0.62012  0.57063  1.0000
  H   H38       1.0  0.8941300000000001  0.66181  0.44733  1.0000
  H   H39       1.0  0.60856  0.09646  0.5620600000000001  1.0000
  H   H40       1.0  0.39166  0.17724  0.44942  1.0000
  H   H41       1.0  0.44354  0.00622  0.05469  1.0000
  H   H42       1.0  0.54725  0.01531  0.94745  1.0000
  H   H43       1.0  0.9435500000000001  0.50623  0.05469  1.0000
  H   H44       1.0  0.047259999999999996  0.51531  0.94745  1.0000
  H   H45       1.0  0.55773  0.65299  0.9457400000000001  1.0000
  H   H46       1.0  0.45033  0.64475  0.05198  1.0000
  H   H47       1.0  0.05772  0.15299  0.9457400000000001  1.0000
  H   H48       1.0  0.9503199999999999  0.14475  0.051990000000000015  1.0000
  H   H49       1.0  0.14097  0.64135  0.9244900000000001  1.0000
  H   H50       1.0  0.8574900000000001  0.65468  0.073  1.0000
  H   H51       1.0  0.64097  0.14134  0.92448  1.0000
  H   H52       1.0  0.35749  0.15469  0.07299000000000001  1.0000
  H   H53       1.0  0.13091  0.62835  0.050970000000000015  1.0000
  H   H54       1.0  0.86489  0.64571  0.9466400000000001  1.0000
  H   H55       1.0  0.6309  0.12834  0.05096  1.0000
  H   H56       1.0  0.36489  0.14572  0.9466400000000001  1.0000
  H   H57       1.0  0.81698  0.85868  0.06018  1.0000
  H   H58       1.0  0.19386  0.84983  0.9394900000000002  1.0000
  H   H59       1.0  0.31698  0.35868  0.06018  1.0000
  H   H60       1.0  0.69387  0.34982  0.9394900000000002  1.0000
  H   H61       1.0  0.39916  0.45091  0.07346  1.0000
  H   H62       1.0  0.60632  0.42905  0.93065  1.0000
  H   H63       1.0  0.8991599999999998  0.9509  0.07346  1.0000
  H   H64       1.0  0.10631999999999998  0.92906  0.93064  1.0000
  H   H65       1.0  0.32899  0.37054999999999993  0.9322500000000001  1.0000
  H   H66       1.0  0.68861  0.35814  0.06699000000000001  1.0000
  H   H67       1.0  0.82898  0.87054  0.9322400000000001  1.0000
  H   H68       1.0  0.18861  0.85815  0.06699000000000001  1.0000
  O   O1        1.0  0.21429999999999996  0.70908  0.8275  1.0000
  O   O2        1.0  0.7857  0.70908  0.17250000000000004  1.0000
  O   O3        1.0  0.7143  0.20908  0.8275  1.0000
  O   O4        1.0  0.2857  0.20908  0.17250000000000004  1.0000
  O   O5        1.0  0.4459  0.91937  0.6765000000000001  1.0000
  O   O6        1.0  0.5541  0.91937  0.32350000000000007  1.0000
  O   O7        1.0  0.9459  0.41937  0.6765000000000001  1.0000
  O   O8        1.0  0.0541  0.41937  0.32350000000000007  1.0000
  O   O9        1.0  0.45666  0.71771  0.66982  1.0000
  O   O10       1.0  0.54334  0.71771  0.33018  1.0000
  O   O11       1.0  0.95666  0.21771  0.66982  1.0000
  O   O12       1.0  0.04334  0.21771  0.33018  1.0000
  O   O13       1.0  0.32059  0.62577  0.67293  1.0000
  O   O14       1.0  0.67941  0.62577  0.32707000000000014  1.0000
  O   O15       1.0  0.82059  0.12577  0.67293  1.0000
  O   O16       1.0  0.17941  0.12577  0.32707000000000014  1.0000
  O   O17       1.0  0.33427  0.83428  0.74919  1.0000
  O   O18       1.0  0.66573  0.83428  0.25081  1.0000
  O   O19       1.0  0.83427  0.33428  0.74919  1.0000
  O   O20       1.0  0.16573  0.33428  0.25081  1.0000
  O   O21       1.0  0.23619  0.95839  0.82315  1.0000
  O   O22       1.0  0.76381  0.95839  0.17685  1.0000
  O   O23       1.0  0.73619  0.45838999999999996  0.82315  1.0000
  O   O24       1.0  0.26381  0.45838999999999996  0.17685  1.0000
  O   O25       1.0  0.33209  0.07528  0.83129  1.0000
  O   O26       1.0  0.66791  0.07528  0.16871000000000005  1.0000
  O   O27       1.0  0.83209  0.57528  0.83129  1.0000
  O   O28       1.0  0.16791  0.57528  0.16871000000000005  1.0000
  O   O29       1.0  0.44627999999999995  0.91804  0.8266200000000002  1.0000
  O   O30       1.0  0.55372  0.91804  0.17338  1.0000
  O   O31       1.0  0.94628  0.41803999999999997  0.8266200000000002  1.0000
  O   O32       1.0  0.053720000000000004  0.41803999999999997  0.17338  1.0000
  O   O33       1.0  0.45707999999999993  0.71627  0.83176  1.0000
  O   O34       1.0  0.54292  0.71627  0.16824000000000006  1.0000
  O   O35       1.0  0.9570800000000002  0.21627  0.83176  1.0000
  O   O36       1.0  0.04292  0.21627  0.16824000000000006  1.0000
  O   O37       1.0  0.32098  0.62444  0.8230400000000001  1.0000
  O   O38       1.0  0.67902  0.62444  0.17696  1.0000
  O   O39       1.0  0.82098  0.12444  0.8230400000000001  1.0000
  O   O40       1.0  0.17902  0.12444  0.17696  1.0000
  O   O41       1.0  0.21388  0.71051  0.66556  1.0000
  O   O42       1.0  0.78612  0.71051  0.3344400000000001  1.0000
  O   O43       1.0  0.71388  0.21051  0.66556  1.0000
  O   O44       1.0  0.28612  0.21051  0.3344400000000001  1.0000
  O   O45       1.0  0.2358  0.95972  0.6730400000000001  1.0000
  O   O46       1.0  0.7642  0.95972  0.32696  1.0000
  O   O47       1.0  0.7358  0.45971999999999996  0.6730400000000001  1.0000
  O   O48       1.0  0.2642  0.45971999999999996  0.32696  1.0000
  O   O49       1.0  0.33167  0.07672  0.6693500000000002  1.0000
  O   O50       1.0  0.66833  0.07672  0.33065  1.0000
  O   O51       1.0  0.83167  0.57672  0.6693500000000002  1.0000
  O   O52       1.0  0.16833  0.57672  0.33065  1.0000
  N   N1        1.0  0.42684999999999995  0.47147999999999995  0.94108  1.0000
  H   H69       1.0  0.42572000000000004  0.48456  0.8859100000000001  1.0000
  H   H70       1.0  0.45694  0.39298  0.9504000000000001  1.0000
  N   N2        1.0  0.5835  0.43425  0.06552  1.0000
  H   H71       1.0  0.55685  0.50892  0.04346  1.0000
  H   H72       1.0  0.58665  0.44864999999999994  0.12058000000000002  1.0000
  N   N3        1.0  0.92684  0.97147  0.94108  1.0000
  H   H73       1.0  0.92572  0.98455  0.8859100000000001  1.0000
  H   H74       1.0  0.9569300000000001  0.8929699999999999  0.9504000000000001  1.0000
  N   N4        1.0  0.0835  0.93425  0.06552  1.0000
  H   H75       1.0  0.05684999999999999  0.00892  0.04347  1.0000
  H   H76       1.0  0.08665  0.94864  0.12058000000000002  1.0000
