data_image0
_chemical_formula_structural       C48Cr6H17O27H
_chemical_formula_sum              "C48 Cr6 H18 O27"
_cell_length_a       10.74933
_cell_length_b       10.748280000000001
_cell_length_c       17.12962
_cell_angle_alpha    99.98340000000002
_cell_angle_beta     99.66066999999998
_cell_angle_gamma    60.26772

_symmetry_space_group_name_H-M    'P 1'
_symmetry_Int_Tables_number       1

loop_
  _symmetry_equiv_pos_as_xyz
  'x,y,z'

loop_
  _atom_site_type_symbol
  _atom_site_label
  _atom_site_symmetry_multiplicity
  _atom_site_fract_x
  _atom_site_fract_y
  _atom_site_fract_z
  _atom_site_occupancy
  C   C1        1.0  0.35487  0.77697  0.40153  1.0000
  C   C2        1.0  0.8151499999999998  0.23743999999999998  0.19333  1.0000
  C   C3        1.0  0.82485  0.22080999999999998  0.2741599999999999  1.0000
  C   C4        1.0  0.91731  0.3899499999999999  0.31254  1.0000
  C   C5        1.0  0.9328399999999999  0.38743  0.23344  1.0000
  C   C6        1.0  0.75417  0.16658  0.1355  1.0000
  C   C7        1.0  0.7241  0.06571999999999999  0.15661  1.0000
  C   C8        1.0  0.7498599999999999  0.03755  0.23533  1.0000
  C   C9        1.0  0.80148  0.11209999999999998  0.2935499999999999  1.0000
  C   C10       1.0  0.85407  0.31623  0.33265  1.0000
  C   C11       1.0  0.31776000000000004  0.8617399999999998  0.16864  1.0000
  C   C12       1.0  0.40060999999999997  0.3690699999999999  0.35438999999999987  1.0000
  C   C13       1.0  0.4534499999999999  0.81386  0.21199  1.0000
  C   C14       1.0  0.4621100000000001  0.8198999999999997  0.2956399999999999  1.0000
  C   C15       1.0  0.20552999999999993  0.89634  0.28741  1.0000
  C   C16       1.0  0.19463  0.90645  0.20779  1.0000
  C   C17       1.0  0.5801400000000001  0.76012  0.17431  1.0000
  C   C18       1.0  0.71064  0.7275499999999999  0.2191  1.0000
  C   C19       1.0  0.7171700000000001  0.7496099999999999  0.30176999999999987  1.0000
  C   C20       1.0  0.5939999999999999  0.7978699999999999  0.3398699999999999  1.0000
  C   C21       1.0  0.33906000000000003  0.8447599999999998  0.3311  1.0000
  C   C22       1.0  0.2998  0.2761  0.7995  1.0000
  C   C23       1.0  0.7804300000000003  0.37221999999999994  0.40507  1.0000
  C   C24       1.0  0.4272499999999997  0.17564  0.7629299999999998  1.0000
  C   C25       1.0  0.47823  0.22463999999999998  0.71188  1.0000
  C   C26       1.0  0.24615999999999988  0.44476999999999994  0.7061599999999998  1.0000
  C   C27       1.0  0.20896999999999996  0.40917999999999993  0.7695099999999998  1.0000
  C   C28       1.0  0.50948  0.02969  0.77883  1.0000
  C   C29       1.0  0.6485699999999999  0.9434899999999999  0.7564499999999997  1.0000
  C   C30       1.0  0.70861  0.0014199999999999914  0.71811  1.0000
  C   C31       1.0  0.62461  0.14062  0.69613  1.0000
  C   C32       1.0  0.3797199999999998  0.35283  0.6761299999999998  1.0000
  C   C33       1.0  0.81836  0.34199  0.70898  1.0000
  C   C34       1.0  0.35792  0.76898  0.6275  1.0000
  C   C35       1.0  0.84588  0.31345  0.7764999999999997  1.0000
  C   C36       1.0  0.33885999999999994  0.80931  0.70946  1.0000
  C   C37       1.0  0.3133000000000002  0.8370499999999997  0.77751  1.0000
  C   C38       1.0  0.9019099999999999  0.30706  0.09138  1.0000
  C   C39       1.0  0.2988299999999999  0.27126  0.12492  1.0000
  C   C40       1.0  0.2913500000000001  0.8960699999999999  0.08715  1.0000
  C   C41       1.0  0.8872  0.29706  0.85876  1.0000
  C   C42       1.0  0.27931000000000006  0.25245  0.87701  1.0000
  C   C43       1.0  0.27934  0.8843399999999999  0.85729  1.0000
  C   C44       1.0  0.40684000000000003  0.37538999999999995  0.6001599999999998  1.0000
  C   C45       1.0  0.77308  0.38076  0.62986  1.0000
  C   C46       1.0  0.3591599999999999  0.34428  0.2731999999999999  1.0000
  C   C47       1.0  0.32818  0.3157799999999999  0.20494999999999994  1.0000
  C   C48       1.0  0.87145  0.32016  0.17289  1.0000
  Cr  Cr1       1.0  0.6081  0.6108599999999997  0.52225  1.0000
  Cr  Cr2       1.0  0.28889  0.59999  0.48842  1.0000
  Cr  Cr3       1.0  0.60304  0.28919  0.48938999999999994  1.0000
  Cr  Cr4       1.0  0.05395999999999994  0.05224999999999997  0.9673799999999999  1.0000
  Cr  Cr5       1.0  0.05989000000000005  0.3731599999999999  0.9927099999999999  1.0000
  Cr  Cr6       1.0  0.37337  0.06168999999999996  0.9917099999999999  1.0000
  H   H1        1.0  0.9492299999999999  0.45476  0.3583499999999999  1.0000
  H   H2        1.0  0.80518  0.69315  0.18922999999999995  1.0000
  H   H3        1.0  0.8174600000000002  0.7319699999999998  0.3363999999999999  1.0000
  H   H4        1.0  0.6032  0.82256  0.4037199999999999  1.0000
  H   H5        1.0  0.17075999999999988  0.54448  0.6809399999999998  1.0000
  H   H6        1.0  0.46806000000000003  0.98166  0.80955  1.0000
  H   H7        1.0  0.10969000000000007  0.4860499999999999  0.79528  1.0000
  H   H8        1.0  0.71096  0.8333499999999998  0.77101  1.0000
  H   H9        1.0  0.8189700000000004  0.9375599999999998  0.7036  1.0000
  H   H10       1.0  0.6752400000000001  0.18068999999999996  0.66626  1.0000
  H   H11       1.0  0.72962  0.18761  0.07378  1.0000
  H   H12       1.0  0.6832  0.007429999999999997  0.11167  1.0000
  H   H13       1.0  0.72773  0.9597699999999999  0.2521  1.0000
  H   H14       1.0  0.8269300000000003  0.07997999999999997  0.35306  1.0000
  H   H15       1.0  0.11008000000000005  0.9208099999999999  0.31385  1.0000
  H   H16       1.0  0.58016  0.74176  0.11024  1.0000
  H   H17       1.0  0.08748999999999989  0.94922  0.17680999999999994  1.0000
  O   O1        1.0  0.7498099999999996  0.49978999999999996  0.4380399999999999  1.0000
  O   O2        1.0  0.29897  0.46879999999999994  0.55739  1.0000
  O   O3        1.0  0.48940000000000006  0.25593  0.56191  1.0000
  O   O4        1.0  0.72389  0.30605  0.58461  1.0000
  O   O5        1.0  0.50001  0.50001  0.50002  1.0000
  O   O6        1.0  0.1711  0.9146799999999999  0.05309999999999999  1.0000
  O   O7        1.0  0.9416799999999999  0.18484  0.05071  1.0000
  O   O8        1.0  0.92208  0.40341999999999995  0.07261  1.0000
  O   O9        1.0  0.19688000000000003  0.36915  0.08385  1.0000
  O   O10       1.0  0.41172999999999993  0.18102  0.09153  1.0000
  O   O11       1.0  0.36501  0.9443599999999999  0.06331999999999997  1.0000
  O   O12       1.0  0.47766  0.72626  0.43929  1.0000
  O   O13       1.0  0.1593799999999999  0.90667  0.8762099999999998  1.0000
  O   O14       1.0  0.9308199999999999  0.17742  0.88673  1.0000
  O   O15       1.0  0.9103599999999998  0.39542000000000005  0.89572  1.0000
  O   O16       1.0  0.18601000000000004  0.36173  0.91987  1.0000
  O   O17       1.0  0.4  0.17300999999999994  0.9146299999999998  1.0000
  O   O18       1.0  0.35414  0.93694  0.89934  1.0000
  O   O19       1.0  0.16241000000000008  0.16236999999999993  0.98393  1.0000
  O   O20       1.0  0.26014999999999994  0.7429999999999998  0.41227  1.0000
  O   O21       1.0  0.29774  0.4665499999999999  0.3947199999999999  1.0000
  O   O22       1.0  0.48807999999999996  0.2535  0.38643  1.0000
  O   O23       1.0  0.7226699999999998  0.3038  0.42194  1.0000
  O   O24       1.0  0.7511299999999997  0.50222  0.61352  1.0000
  O   O25       1.0  0.4788900000000001  0.7285099999999998  0.6019599999999998  1.0000
  O   O26       1.0  0.2614700000000001  0.7454299999999998  0.58775  1.0000
  O   O27       1.0  0.007499999999999985  0.45032  0.21437999999999996  1.0000
  H   H18       1.0  0.04038000000000001  0.49406999999999995  0.2635999999999999  1.0000
