data_image0
_chemical_formula_structural       C42Cu2H14N4O12Cl2NHCH3NHCH3Cl2
_chemical_formula_sum              "C44 Cu2 H22 N6 O12 Cl4"
_cell_length_a       27.87502
_cell_length_b       8.66084
_cell_length_c       7.41383
_cell_angle_alpha    103.10533
_cell_angle_beta     93.95971999999999
_cell_angle_gamma    92.5277

_space_group_name_H-M_alt    "P 1"
_space_group_IT_number       1

loop_
  _space_group_symop_operation_xyz
  'x, y, z'

loop_
  _atom_site_type_symbol
  _atom_site_label
  _atom_site_symmetry_multiplicity
  _atom_site_fract_x
  _atom_site_fract_y
  _atom_site_fract_z
  _atom_site_occupancy
  C   C1        1.0  0.49854  0.19949999999999998  0.45301000000000013  1.0000
  C   C2        1.0  0.50146  0.8005  0.54699  1.0000
  C   C3        1.0  0.10181  0.50518  0.48487  1.0000
  C   C4        1.0  0.89819  0.49482  0.5151300000000001  1.0000
  C   C5        1.0  0.12433  0.3631399999999999  0.4112000000000001  1.0000
  C   C6        1.0  0.87567  0.63687  0.5887900000000003  1.0000
  C   C7        1.0  0.09529  0.22301  0.33222  1.0000
  C   C8        1.0  0.90471  0.77699  0.6677800000000003  1.0000
  C   C9        1.0  0.13032  0.64951  0.55229  1.0000
  C   C10       1.0  0.86968  0.35049  0.4477100000000001  1.0000
  C   C11       1.0  0.35422  0.49924999999999997  0.5077300000000002  1.0000
  C   C12       1.0  0.64578  0.50075  0.4922700000000001  1.0000
  C   C13       1.0  0.97165  0.35497  0.43619000000000013  1.0000
  C   C14       1.0  0.028349999999999993  0.6450299999999995  0.56381  1.0000
  C   C15       1.0  0.9775899999999997  0.6414099999999998  0.57704  1.0000
  C   C16       1.0  0.022410000000000003  0.35858999999999996  0.4229600000000001  1.0000
  C   C17       1.0  0.94926  0.49712999999999996  0.50905  1.0000
  C   C18       1.0  0.05074  0.50287  0.49095000000000005  1.0000
  C   C19       1.0  0.94259  0.21203  0.3831  1.0000
  C   C20       1.0  0.05741  0.78797  0.6169000000000002  1.0000
  C   C21       1.0  0.89284  0.20841999999999997  0.3853800000000001  1.0000
  C   C22       1.0  0.10716000000000002  0.7915800000000001  0.6146200000000003  1.0000
  C   C23       1.0  0.40735  0.49900999999999995  0.5031400000000001  1.0000
  C   C24       1.0  0.59265  0.50099  0.49686  1.0000
  C   C25       1.0  0.04566  0.22274999999999995  0.3377300000000001  1.0000
  C   C26       1.0  0.95434  0.77725  0.66226  1.0000
  C   C27       1.0  0.49778  0.031490000000000025  0.42648000000000014  1.0000
  C   C28       1.0  0.50222  0.96851  0.57352  1.0000
  C   C29       1.0  0.17507  0.36735000000000007  0.4187000000000001  1.0000
  C   C30       1.0  0.8249300000000002  0.6326599999999999  0.5813000000000003  1.0000
  C   C31       1.0  0.1809  0.64588  0.5527400000000001  1.0000
  C   C32       1.0  0.8191  0.35412999999999994  0.44726  1.0000
  C   C33       1.0  0.28012  0.52425  0.66589  1.0000
  C   C34       1.0  0.71988  0.4757599999999999  0.3341000000000001  1.0000
  C   C35       1.0  0.33032  0.52017  0.6747000000000002  1.0000
  C   C36       1.0  0.66968  0.47984  0.3253  1.0000
  C   C37       1.0  0.32625  0.48108  0.33756  1.0000
  C   C38       1.0  0.67375  0.51892  0.6624400000000003  1.0000
  C   C39       1.0  0.27639  0.4845999999999999  0.33162000000000014  1.0000
  C   C40       1.0  0.7236100000000001  0.5153999999999999  0.66838  1.0000
  C   C41       1.0  0.25323  0.50621  0.4954900000000001  1.0000
  C   C42       1.0  0.7467700000000002  0.49378999999999995  0.5045000000000002  1.0000
  Cu  Cu1       1.0  0.50538  0.51738  0.68438  1.0000
  Cu  Cu2       1.0  0.49461999999999995  0.48262  0.3156200000000001  1.0000
  H   H1        1.0  0.34284  0.46357999999999994  0.20734  1.0000
  H   H2        1.0  0.65716  0.53642  0.79266  1.0000
  H   H3        1.0  0.46307  0.37527  0.9477200000000002  1.0000
  H   H4        1.0  0.53693  0.6247299999999998  0.052280000000000014  1.0000
  H   H5        1.0  0.25565  0.4702799999999999  0.19922000000000004  1.0000
  H   H6        1.0  0.74435  0.52971  0.80078  1.0000
  H   H7        1.0  0.73826  0.46107000000000004  0.20772000000000004  1.0000
  H   H8        1.0  0.26174  0.53894  0.7922800000000002  1.0000
  H   H9        1.0  0.95742  0.09801  0.34155  1.0000
  H   H10       1.0  0.04258000000000001  0.9019899999999998  0.6584400000000002  1.0000
  H   H11       1.0  0.026159999999999996  0.11308000000000001  0.26833000000000007  1.0000
  H   H12       1.0  0.97384  0.8869199999999998  0.73167  1.0000
  H   H13       1.0  0.49356  0.9593799999999999  0.28499  1.0000
  H   H14       1.0  0.50644  0.04060999999999998  0.71501  1.0000
  N   N1        1.0  0.20172  0.5065699999999999  0.4886700000000001  1.0000
  N   N2        1.0  0.79828  0.4934299999999999  0.51133  1.0000
  N   N3        1.0  0.48651  0.4564299999999999  0.03851  1.0000
  N   N4        1.0  0.51349  0.54357  0.9614900000000002  1.0000
  O   O1        1.0  0.5035  0.28612  0.6197800000000002  1.0000
  O   O2        1.0  0.4965  0.7138799999999997  0.38022  1.0000
  O   O3        1.0  0.49441  0.2567799999999999  0.30836  1.0000
  O   O4        1.0  0.50559  0.74322  0.69164  1.0000
  O   O5        1.0  0.43481  0.5147  0.65569  1.0000
  O   O6        1.0  0.56519  0.4852999999999999  0.34431  1.0000
  O   O7        1.0  0.42572  0.48534999999999995  0.34428  1.0000
  O   O8        1.0  0.57428  0.51465  0.6557200000000002  1.0000
  O   O9        1.0  0.19817  0.23374  0.36076  1.0000
  O   O10       1.0  0.80183  0.76626  0.63924  1.0000
  O   O11       1.0  0.7904400000000001  0.2207399999999999  0.38312000000000007  1.0000
  O   O12       1.0  0.20956  0.7792699999999999  0.61688  1.0000
  Cl  Cl1       1.0  0.11754000000000002  0.04221  0.21538000000000004  1.0000
  Cl  Cl2       1.0  0.88246  0.95779  0.7846100000000003  1.0000
  N   N5        1.0  0.64504  0.46754999999999997  0.14774000000000007  1.0000
  H   H15       1.0  0.6198099999999999  0.5495999999999998  0.14021  1.0000
  C   C43       1.0  0.631  0.30721  0.04525  1.0000
  H   H16       1.0  0.61365  0.3095999999999999  0.90659  1.0000
  H   H17       1.0  0.60501  0.24988  0.12065  1.0000
  H   H18       1.0  0.6632  0.23596999999999999  0.02478  1.0000
  N   N6        1.0  0.35496000000000005  0.53247  0.8522600000000001  1.0000
  H   H19       1.0  0.38019  0.45042  0.8598000000000002  1.0000
  C   C44       1.0  0.36900000000000005  0.69281  0.9547400000000001  1.0000
  H   H20       1.0  0.38635  0.69042  0.09341000000000003  1.0000
  H   H21       1.0  0.3368  0.7640499999999997  0.97519  1.0000
  H   H22       1.0  0.3950000000000001  0.75012  0.8793500000000002  1.0000
  Cl  Cl3       1.0  0.86273  0.01806  0.30948  1.0000
  Cl  Cl4       1.0  0.13727  0.98195  0.6905100000000002  1.0000
