data_image0
_chemical_formula_structural       C124Cr12H68O52C2H5C2H5C2H5C2H5
_chemical_formula_sum              "C132 Cr12 H88 O52"
_cell_length_a       19.01422
_cell_length_b       10.98123
_cell_length_c       18.74715
_cell_angle_alpha    89.96034
_cell_angle_beta     90.10754000000001
_cell_angle_gamma    90.21091

_symmetry_space_group_name_H-M    'P 1'
_symmetry_Int_Tables_number       1

loop_
  _symmetry_equiv_pos_as_xyz
  'x,y,z'

loop_
  _atom_site_type_symbol
  _atom_site_label
  _atom_site_symmetry_multiplicity
  _atom_site_fract_x
  _atom_site_fract_y
  _atom_site_fract_z
  _atom_site_occupancy
  C   C1        1.0  0.73055  0.37789  0.14613  1.0000
  C   C2        1.0  0.26935  0.38017999999999996  0.8523199999999997  1.0000
  C   C3        1.0  0.23075999999999997  0.87912  0.14639  1.0000
  C   C4        1.0  0.76993  0.87875  0.8532299999999999  1.0000
  C   C5        1.0  0.5318  0.37751  0.93281  1.0000
  C   C6        1.0  0.48417999999999994  0.39798999999999995  0.07587  1.0000
  C   C7        1.0  0.037559999999999996  0.87135  0.93126  1.0000
  C   C8        1.0  0.9926  0.90171  0.07469  1.0000
  C   C9        1.0  0.04022  0.9853699999999997  0.96465  1.0000
  C   C10       1.0  0.01558  0.0009399999999999999  0.03366  1.0000
  C   C11       1.0  0.5298799999999999  0.49052  0.9675399999999998  1.0000
  C   C12       1.0  0.50359  0.5011099999999999  0.0363  1.0000
  C   C13       1.0  0.75613  0.9206299999999998  0.92451  1.0000
  C   C14       1.0  0.25755  0.94065  0.08229  1.0000
  C   C15       1.0  0.25274  0.42982999999999993  0.92117  1.0000
  C   C16       1.0  0.75739  0.43521999999999994  0.0813  1.0000
  C   C17       1.0  0.69016  0.9254299999999999  0.95646  1.0000
  C   C18       1.0  0.31196  0.89105  0.04167  1.0000
  C   C19       1.0  0.18517  0.44302  0.9492599999999999  1.0000
  C   C20       1.0  0.8075199999999999  0.37741  0.03885  1.0000
  C   C21       1.0  0.68531  0.92969  0.02973  1.0000
  C   C22       1.0  0.31964  0.92093  0.97016  1.0000
  C   C23       1.0  0.17728  0.4602  0.02208  1.0000
  C   C24       1.0  0.81532  0.40825999999999996  0.9678099999999998  1.0000
  C   C25       1.0  0.81019  0.9496799999999999  0.03986  1.0000
  C   C26       1.0  0.2289  0.07017  0.98108  1.0000
  C   C27       1.0  0.30259  0.47683  0.0358  1.0000
  C   C28       1.0  0.73406  0.5723599999999999  0.9823099999999999  1.0000
  C   C29       1.0  0.81579  0.9444799999999999  0.96713  1.0000
  C   C30       1.0  0.2206  0.03981  0.05312  1.0000
  C   C31       1.0  0.31098  0.45738  0.9646599999999999  1.0000
  C   C32       1.0  0.72554  0.54089  0.05423  1.0000
  C   C33       1.0  0.6230399999999999  0.85679  0.94795  1.0000
  C   C34       1.0  0.32877  0.7612399999999999  0.028060000000000005  1.0000
  C   C35       1.0  0.12076  0.36645999999999995  0.94326  1.0000
  C   C36       1.0  0.81944  0.24573  0.02417  1.0000
  C   C37       1.0  0.6201  0.85332  0.02937  1.0000
  C   C38       1.0  0.33857  0.7937  0.9501799999999999  1.0000
  C   C39       1.0  0.11686  0.37268  0.02424  1.0000
  C   C40       1.0  0.8295499999999999  0.27981  0.94633  1.0000
  C   C41       1.0  0.74557  0.93297  0.07325  1.0000
  C   C42       1.0  0.2736  0.00249  0.93705  1.0000
  C   C43       1.0  0.23607  0.47228  0.06673  1.0000
  C   C44       1.0  0.77331  0.49818999999999997  0.9365799999999999  1.0000
  C   C45       1.0  0.52977  0.15603999999999998  0.14793  1.0000
  C   C46       1.0  0.46618999999999994  0.1551  0.8554599999999999  1.0000
  C   C47       1.0  0.02965  0.65641  0.14802  1.0000
  C   C48       1.0  0.9653899999999999  0.65485  0.8558999999999999  1.0000
  C   C49       1.0  0.50564  0.16294999999999998  0.57959  1.0000
  C   C50       1.0  0.5204399999999999  0.16385  0.43105  1.0000
  C   C51       1.0  0.005639999999999999  0.66295  0.57959  1.0000
  C   C52       1.0  0.02043  0.66385  0.4310399999999999  1.0000
  C   C53       1.0  0.51692  0.05451  0.54204  1.0000
  C   C54       1.0  0.5237  0.05575  0.46953  1.0000
  C   C55       1.0  0.01692  0.55452  0.54204  1.0000
  C   C56       1.0  0.02369  0.55575  0.46953  1.0000
  C   C57       1.0  0.52283  0.27449  0.46908  1.0000
  C   C58       1.0  0.51613  0.27398  0.54367  1.0000
  C   C59       1.0  0.02282  0.7744999999999999  0.46908  1.0000
  C   C60       1.0  0.01613  0.7739799999999999  0.54367  1.0000
  C   C61       1.0  0.47543  0.93792  0.5392  1.0000
  C   C62       1.0  0.48349  0.9403999999999998  0.4591299999999999  1.0000
  C   C63       1.0  0.9754300000000001  0.4379199999999999  0.5392  1.0000
  C   C64       1.0  0.98349  0.44039999999999996  0.4591299999999999  1.0000
  C   C65       1.0  0.74915  0.93387  0.58082  1.0000
  C   C66       1.0  0.23776  0.8922599999999999  0.43026000000000003  1.0000
  C   C67       1.0  0.24914  0.43388  0.58082  1.0000
  C   C68       1.0  0.73776  0.39226  0.43026000000000003  1.0000
  C   C69       1.0  0.79831  0.00487  0.54351  1.0000
  C   C70       1.0  0.18148  0.94117  0.46776999999999996  1.0000
  C   C71       1.0  0.29828999999999994  0.5049  0.54352  1.0000
  C   C72       1.0  0.68148  0.44117999999999996  0.46776999999999996  1.0000
  C   C73       1.0  0.79534  0.012849999999999999  0.47078999999999993  1.0000
  C   C74       1.0  0.1829  0.9505199999999999  0.54043  1.0000
  C   C75       1.0  0.29533  0.51288  0.4708  1.0000
  C   C76       1.0  0.6828999999999998  0.45053  0.54042  1.0000
  C   C77       1.0  0.68649  0.9009999999999999  0.46976000000000007  1.0000
  C   C78       1.0  0.29241  0.8406799999999998  0.54365  1.0000
  C   C79       1.0  0.18649  0.401  0.46977  1.0000
  C   C80       1.0  0.79241  0.34067  0.54365  1.0000
  C   C81       1.0  0.68888  0.89322  0.54437  1.0000
  C   C82       1.0  0.2908  0.8321499999999998  0.46905  1.0000
  C   C83       1.0  0.18888  0.39321999999999996  0.54437  1.0000
  C   C84       1.0  0.7908  0.33214  0.46905  1.0000
  C   C85       1.0  0.87728  0.00119  0.54186  1.0000
  C   C86       1.0  0.14497  0.05968  0.45738  1.0000
  C   C87       1.0  0.37727  0.50125  0.54187  1.0000
  C   C88       1.0  0.64498  0.5597  0.45738  1.0000
  C   C89       1.0  0.74029  0.97112  0.1467  1.0000
  C   C90       1.0  0.27331  0.02162  0.85954  1.0000
  C   C91       1.0  0.22924999999999998  0.51246  0.13965  1.0000
  C   C92       1.0  0.77322  0.5208  0.85961  1.0000
  C   C93       1.0  0.8731099999999999  0.01024  0.46162999999999993  1.0000
  C   C94       1.0  0.14637  0.07145  0.5376  1.0000
  C   C95       1.0  0.3731  0.5103  0.46164  1.0000
  C   C96       1.0  0.6463799999999998  0.57146  0.5376  1.0000
  C   C97       1.0  0.74357  0.95218  0.43217999999999995  1.0000
  C   C98       1.0  0.24193  0.91188  0.57887  1.0000
  C   C99       1.0  0.24356  0.4522  0.43217999999999995  1.0000
  C   C100      1.0  0.74194  0.41187999999999997  0.57887  1.0000
  C   C101      1.0  0.72791  0.37332999999999994  0.35457  1.0000
  C   C102      1.0  0.26971  0.38088  0.64855  1.0000
  C   C103      1.0  0.22791  0.87333  0.35457  1.0000
  C   C104      1.0  0.76972  0.88088  0.64855  1.0000
  C   C105      1.0  0.53564  0.15687  0.35552  1.0000
  C   C106      1.0  0.46899  0.1569  0.6473799999999998  1.0000
  C   C107      1.0  0.03563  0.65687  0.35552  1.0000
  C   C108      1.0  0.9689899999999999  0.6569  0.6473799999999998  1.0000
  C   C109      1.0  0.73996  0.97642  0.35647  1.0000
  C   C110      1.0  0.25745  0.9693  0.64668  1.0000
  C   C111      1.0  0.23995999999999998  0.47642  0.35647  1.0000
  C   C112      1.0  0.75745  0.46931  0.64668  1.0000
  C   C113      1.0  0.48701999999999995  0.16229  0.9315899999999999  1.0000
  C   C114      1.0  0.48947  0.16941  0.08121  1.0000
  C   C115      1.0  0.98524  0.66192  0.93234  1.0000
  C   C116      1.0  0.98867  0.6722199999999999  0.08189  1.0000
  C   C117      1.0  0.50209  0.2741  0.96742  1.0000
  C   C118      1.0  0.49039  0.28084  0.04268  1.0000
  C   C119      1.0  0.00431  0.7726899999999999  0.9671799999999999  1.0000
  C   C120      1.0  0.99318  0.78282  0.04248  1.0000
  C   C121      1.0  0.47202  0.06224  0.0459  1.0000
  C   C122      1.0  0.47130999999999995  0.058689999999999985  0.97253  1.0000
  C   C123      1.0  0.96663  0.56658  0.04761  1.0000
  C   C124      1.0  0.9652999999999999  0.56146  0.97412  1.0000
  Cr  Cr1       1.0  0.77201  0.16967  0.25009  1.0000
  Cr  Cr2       1.0  0.22799  0.16967  0.7499099999999999  1.0000
  Cr  Cr3       1.0  0.27201  0.6696699999999999  0.25009  1.0000
  Cr  Cr4       1.0  0.72799  0.6696699999999999  0.7499099999999999  1.0000
  Cr  Cr5       1.0  0.615  0.32326  0.24926  1.0000
  Cr  Cr6       1.0  0.385  0.32326  0.7507399999999999  1.0000
  Cr  Cr7       1.0  0.115  0.82326  0.24926  1.0000
  Cr  Cr8       1.0  0.885  0.82326  0.7507399999999999  1.0000
  Cr  Cr9       1.0  0.61671  0.01076  0.25084  1.0000
  Cr  Cr10      1.0  0.38328999999999996  0.010759999999999999  0.74916  1.0000
  Cr  Cr11      1.0  0.11671  0.51076  0.25084  1.0000
  Cr  Cr12      1.0  0.88329  0.51076  0.74916  1.0000
  H   H1        1.0  0.46427  0.9780099999999999  0.07501999999999999  1.0000
  H   H2        1.0  0.45877  0.97247  0.9478099999999999  1.0000
  H   H3        1.0  0.95669  0.4838  0.07752  1.0000
  H   H4        1.0  0.9497699999999999  0.47618  0.9498999999999999  1.0000
  H   H5        1.0  0.5273999999999999  0.3604899999999999  0.44133  1.0000
  H   H6        1.0  0.5135499999999998  0.35962999999999995  0.57202  1.0000
  H   H7        1.0  0.027389999999999998  0.86049  0.44133  1.0000
  H   H8        1.0  0.013550000000000001  0.85963  0.57202  1.0000
  H   H9        1.0  0.9201  0.45053  0.55587  1.0000
  H   H10       1.0  0.01657  0.3652  0.43844999999999995  1.0000
  H   H11       1.0  0.4201  0.95054  0.55587  1.0000
  H   H12       1.0  0.51658  0.8651999999999997  0.43844999999999995  1.0000
  H   H13       1.0  0.50346  0.8608099999999999  0.56498  1.0000
  H   H14       1.0  0.43304  0.95448  0.43022  1.0000
  H   H15       1.0  0.00346  0.36082  0.56497  1.0000
  H   H16       1.0  0.93303  0.45448  0.43022  1.0000
  H   H17       1.0  0.64168  0.86351  0.44167  1.0000
  H   H18       1.0  0.33604999999999996  0.80129  0.57262  1.0000
  H   H19       1.0  0.14168  0.36351  0.44167999999999996  1.0000
  H   H20       1.0  0.83605  0.30128  0.57263  1.0000
  H   H21       1.0  0.6471  0.8461899999999999  0.57236  1.0000
  H   H22       1.0  0.33188  0.78275  0.44191  1.0000
  H   H23       1.0  0.14709999999999998  0.34617999999999993  0.57236  1.0000
  H   H24       1.0  0.83188  0.28272  0.44191  1.0000
  H   H25       1.0  0.89824  0.91225  0.5596  1.0000
  H   H26       1.0  0.09104  0.04878  0.4353699999999999  1.0000
  H   H27       1.0  0.39824  0.41231999999999996  0.55962  1.0000
  H   H28       1.0  0.59105  0.5488  0.4353699999999999  1.0000
  H   H29       1.0  0.9016499999999998  0.08252  0.56727  1.0000
  H   H30       1.0  0.17836  0.12824  0.42965999999999993  1.0000
  H   H31       1.0  0.4016199999999999  0.5826  0.56729  1.0000
  H   H32       1.0  0.67837  0.62826  0.42965999999999993  1.0000
  H   H33       1.0  0.8946499999999998  0.09712  0.44045  1.0000
  H   H34       1.0  0.18075  0.14703  0.5556  1.0000
  H   H35       1.0  0.39463  0.59718  0.44045999999999996  1.0000
  H   H36       1.0  0.68076  0.6470399999999998  0.5556  1.0000
  H   H37       1.0  0.89143  0.92682  0.4337599999999999  1.0000
  H   H38       1.0  0.09321  0.06832  0.56216  1.0000
  H   H39       1.0  0.39143  0.4268799999999999  0.43377999999999994  1.0000
  H   H40       1.0  0.59322  0.56834  0.56216  1.0000
  H   H41       1.0  0.06364  0.06298  0.9379399999999999  1.0000
  H   H42       1.0  0.01732  0.0916  0.056440000000000004  1.0000
  H   H43       1.0  0.55049  0.5715499999999999  0.9419299999999999  1.0000
  H   H44       1.0  0.50116  0.59099  0.05998  1.0000
  H   H45       1.0  0.85643  0.97281  0.06923  1.0000
  H   H46       1.0  0.19662  0.13982  0.9586499999999999  1.0000
  H   H47       1.0  0.34895  0.49921  0.06565  1.0000
  H   H48       1.0  0.707  0.64985  0.96152  1.0000
  H   H49       1.0  0.86849  0.95143  0.94554  1.0000
  H   H50       1.0  0.18029  0.08568  0.08357  1.0000
  H   H51       1.0  0.36473999999999995  0.45604  0.94552  1.0000
  H   H52       1.0  0.68956  0.59254  0.08684  1.0000
  H   H53       1.0  0.12889  0.2751  0.92057  1.0000
  H   H54       1.0  0.77121  0.19065  0.03359  1.0000
  H   H55       1.0  0.62778  0.76721  0.92158  1.0000
  H   H56       1.0  0.28151  0.70456  0.03747  1.0000
  H   H57       1.0  0.58179  0.91509  0.9239099999999999  1.0000
  H   H58       1.0  0.37795999999999996  0.73195  0.055099999999999996  1.0000
  H   H59       1.0  0.07765  0.41715  0.91656  1.0000
  H   H60       1.0  0.8681799999999998  0.21142  0.05  1.0000
  H   H61       1.0  0.57475  0.90195  0.05198  1.0000
  H   H62       1.0  0.39402999999999994  0.78561  0.9322999999999999  1.0000
  H   H63       1.0  0.06832  0.4142  0.04439  1.0000
  H   H64       1.0  0.8845499999999998  0.26727  0.9278  1.0000
  H   H65       1.0  0.62849  0.76125  0.05192  1.0000
  H   H66       1.0  0.2994  0.7495299999999999  0.91448  1.0000
  H   H67       1.0  0.13092  0.2854999999999999  0.050699999999999995  1.0000
  H   H68       1.0  0.78874  0.24080999999999997  0.91051  1.0000
  O   O1        1.0  0.78752  0.04281  0.17044  1.0000
  O   O2        1.0  0.21248  0.04281  0.82956  1.0000
  O   O3        1.0  0.28752  0.54281  0.17044  1.0000
  O   O4        1.0  0.7124799999999999  0.54281  0.82956  1.0000
  O   O5        1.0  0.55661  0.25288  0.32397999999999993  1.0000
  O   O6        1.0  0.44339  0.25288  0.67602  1.0000
  O   O7        1.0  0.056609999999999994  0.75288  0.32397999999999993  1.0000
  O   O8        1.0  0.94339  0.75288  0.67602  1.0000
  O   O9        1.0  0.54595  0.05120999999999999  0.33086  1.0000
  O   O10       1.0  0.45405  0.05120999999999999  0.66914  1.0000
  O   O11       1.0  0.04594999999999999  0.55121  0.33086  1.0000
  O   O12       1.0  0.95405  0.55121  0.66914  1.0000
  O   O13       1.0  0.68139  0.95948  0.32551  1.0000
  O   O14       1.0  0.31861  0.95948  0.67449  1.0000
  O   O15       1.0  0.18139  0.45948  0.32551  1.0000
  O   O16       1.0  0.81861  0.45948  0.67449  1.0000
  O   O17       1.0  0.6679  0.16789999999999997  0.25006  1.0000
  O   O18       1.0  0.3321  0.16789999999999997  0.74994  1.0000
  O   O19       1.0  0.16789999999999997  0.6679  0.25006  1.0000
  O   O20       1.0  0.8320999999999998  0.6679  0.74994  1.0000
  O   O21       1.0  0.76564  0.2921  0.17502  1.0000
  O   O22       1.0  0.23435999999999998  0.2921  0.82498  1.0000
  O   O23       1.0  0.26564  0.7921  0.17502  1.0000
  O   O24       1.0  0.73436  0.7921  0.82498  1.0000
  O   O25       1.0  0.67019  0.40884  0.16854  1.0000
  O   O26       1.0  0.32980999999999994  0.40884  0.83146  1.0000
  O   O27       1.0  0.17019  0.9088399999999999  0.16854  1.0000
  O   O28       1.0  0.82981  0.9088399999999999  0.83146  1.0000
  O   O29       1.0  0.55662  0.25141  0.17516  1.0000
  O   O30       1.0  0.44338  0.25141  0.82484  1.0000
  O   O31       1.0  0.05662  0.7514099999999999  0.17516  1.0000
  O   O32       1.0  0.94338  0.7514099999999999  0.82484  1.0000
  O   O33       1.0  0.54596  0.04962  0.17032  1.0000
  O   O34       1.0  0.45404  0.04962  0.82968  1.0000
  O   O35       1.0  0.04596  0.54962  0.17032  1.0000
  O   O36       1.0  0.9540400000000001  0.54962  0.82968  1.0000
  O   O37       1.0  0.68139  0.95801  0.17669  1.0000
  O   O38       1.0  0.31861  0.95801  0.8233099999999999  1.0000
  O   O39       1.0  0.18139  0.4580099999999999  0.17669  1.0000
  O   O40       1.0  0.81861  0.4580099999999999  0.8233099999999999  1.0000
  O   O41       1.0  0.78751  0.04438999999999999  0.33097  1.0000
  O   O42       1.0  0.21249  0.04439  0.66903  1.0000
  O   O43       1.0  0.28751  0.54439  0.33097  1.0000
  O   O44       1.0  0.7124899999999998  0.54439  0.66903  1.0000
  O   O45       1.0  0.76563  0.29357  0.32384  1.0000
  O   O46       1.0  0.23437  0.29357  0.67616  1.0000
  O   O47       1.0  0.26563  0.79357  0.32384  1.0000
  O   O48       1.0  0.73437  0.79357  0.67616  1.0000
  O   O49       1.0  0.67019  0.41041999999999995  0.32908  1.0000
  O   O50       1.0  0.32980999999999994  0.41041999999999995  0.67092  1.0000
  O   O51       1.0  0.17019  0.91042  0.32908  1.0000
  O   O52       1.0  0.82981  0.91042  0.67092  1.0000
  C   C125      1.0  0.57889  0.36752  0.86758  1.0000
  C   C126      1.0  0.64153  0.28439  0.88218  1.0000
  H   H69       1.0  0.66797  0.31149  0.9326  1.0000
  H   H70       1.0  0.62438  0.188  0.88665  1.0000
  H   H71       1.0  0.67967  0.29116  0.83757  1.0000
  H   H72       1.0  0.55195  0.33703999999999995  0.81881  1.0000
  H   H73       1.0  0.59907  0.45878  0.8531999999999998  1.0000
  C   C127      1.0  0.45333999999999997  0.4223799999999999  0.15023  1.0000
  C   C128      1.0  0.39585  0.33326  0.17505  1.0000
  H   H74       1.0  0.36036  0.30738  0.1305  1.0000
  H   H75       1.0  0.4182  0.25007  0.19909  1.0000
  H   H76       1.0  0.36439  0.376  0.21797  1.0000
  H   H77       1.0  0.49525  0.43084999999999996  0.19104  1.0000
  H   H78       1.0  0.4294  0.5145  0.15071  1.0000
  C   C129      1.0  0.0842  0.85364  0.86629  1.0000
  C   C130      1.0  0.14689  0.77258  0.88423  1.0000
  H   H79       1.0  0.17373  0.80584  0.93315  1.0000
  H   H80       1.0  0.12932  0.6773  0.8931  1.0000
  H   H81       1.0  0.18485  0.77346  0.8393  1.0000
  H   H82       1.0  0.05731  0.81675  0.81907  1.0000
  H   H83       1.0  0.10389  0.9428399999999998  0.8477699999999999  1.0000
  C   C131      1.0  0.96518  0.93435  0.14958  1.0000
  C   C132      1.0  0.91046  0.8478799999999999  0.18312999999999996  1.0000
  H   H84       1.0  0.8764999999999998  0.80419  0.14230999999999996  1.0000
  H   H85       1.0  0.93515  0.77662  0.21633  1.0000
  H   H86       1.0  0.8768599999999999  0.89957  0.22059999999999996  1.0000
  H   H87       1.0  0.0097  0.9496899999999999  0.18688  1.0000
  H   H88       1.0  0.9398099999999999  0.02535  0.14679  1.0000
