data_image0
_chemical_formula_structural       O2CO2CO2CO2CO2CO2CCr3OCH2CH3C6H2CHC3HCHC2HCHC2HCHC2HCHC2HCHC2HCHC3HC2HCHC2HCHCO2CO2CO2CO2CO2CO2CCr3OC3H7C3H7F3C3H7F
_chemical_formula_sum              "O26 C59 Cr6 H46 F4"
_cell_length_a       10.9803
_cell_length_b       11.05935
_cell_length_c       18.79355
_cell_angle_alpha    91.00674
_cell_angle_beta     89.65938
_cell_angle_gamma    59.91546

_symmetry_space_group_name_H-M    'P 1'
_symmetry_Int_Tables_number       1

loop_
  _symmetry_equiv_pos_as_xyz
  'x,y,z'

loop_
  _atom_site_type_symbol
  _atom_site_label
  _atom_site_symmetry_multiplicity
  _atom_site_fract_x
  _atom_site_fract_y
  _atom_site_fract_z
  _atom_site_occupancy
  O   O1        1.0  0.50743  0.2555700000000001  0.58142  1.0000
  O   O2        1.0  0.28019  0.52739  0.5789100000000001  1.0000
  C   C1        1.0  0.24620999999999996  0.64286  0.61161  1.0000
  O   O3        1.0  0.26031  0.73974  0.58458  1.0000
  O   O4        1.0  0.53225  0.69515  0.57383  1.0000
  C   C2        1.0  0.6529400000000001  0.6255  0.59981  1.0000
  O   O5        1.0  0.7449299999999998  0.50343  0.57638  1.0000
  O   O6        1.0  0.6992499999999999  0.27639  0.57195  1.0000
  C   C3        1.0  0.62829  0.22956  0.60292  1.0000
  O   O7        1.0  0.4990200000000001  0.25639999999999996  0.41985  1.0000
  O   O8        1.0  0.2723999999999999  0.52816  0.4291400000000001  1.0000
  C   C4        1.0  0.22096000000000005  0.64861  0.40219000000000005  1.0000
  O   O9        1.0  0.25191  0.74057  0.42302000000000006  1.0000
  O   O10       1.0  0.52446  0.69592  0.42406  1.0000
  C   C5        1.0  0.6406000000000001  0.61906  0.39073  1.0000
  O   O11       1.0  0.73653  0.50426  0.41481  1.0000
  O   O12       1.0  0.69146  0.27716  0.42218  1.0000
  C   C6        1.0  0.61875  0.22703  0.39551  1.0000
  Cr  Cr1       1.0  0.39293  0.3979  0.50223  1.0000
  Cr  Cr2       1.0  0.39824  0.7086  0.50126  1.0000
  Cr  Cr3       1.0  0.7088  0.39347  0.49646000000000007  1.0000
  O   O13       1.0  0.49998999999999993  0.49999  0.49998  1.0000
  C   C7        1.0  0.60206  0.8276  0.77763  1.0000
  H   H1        1.0  0.64393  0.90043  0.7748500000000003  1.0000
  H   H2        1.0  0.5072599999999999  0.88058  0.8128600000000001  1.0000
  C   C8        1.0  0.55606  0.80938  0.70219  1.0000
  H   H3        1.0  0.54998  0.8921900000000001  0.66706  1.0000
  H   H4        1.0  0.9076  0.69746  0.77005  1.0000
  H   H5        1.0  0.7955200000000001  0.76487  0.66368  1.0000
  C   C9        1.0  0.8589100000000001  0.63279  0.75636  1.0000
  C   C10       1.0  0.6699000000000002  0.57463  0.8017400000000002  1.0000
  C   C11       1.0  0.7222599999999999  0.6828500000000001  0.80714  1.0000
  C   C12       1.0  0.6678700000000001  0.66256  0.67351  1.0000
  C   C13       1.0  0.8088000000000001  0.66197  0.67885  1.0000
  C   C14       1.0  0.65534  0.55255  0.72079  1.0000
  H   H6        1.0  0.73892  0.446  0.70421  1.0000
  H   H7        1.0  0.8878899999999998  0.58907  0.6386300000000001  1.0000
  C   C15       1.0  0.78719  0.16984  0.70744  1.0000
  H   H8        1.0  0.86519  0.17516000000000004  0.67402  1.0000
  C   C16       1.0  0.80698  0.15731  0.78187  1.0000
  C   C17       1.0  0.6950699999999999  0.15846999999999997  0.82406  1.0000
  C   C18       1.0  0.57159  0.18303  0.78975  1.0000
  H   H9        1.0  0.4824399999999999  0.19182  0.81858  1.0000
  C   C19       1.0  0.56319  0.18084  0.71751  1.0000
  H   H10       1.0  0.46979  0.18775999999999998  0.6947000000000001  1.0000
  C   C20       1.0  0.6667  0.18081  0.67549  1.0000
  C   C21       1.0  0.26592000000000005  0.5322899999999999  0.72778  1.0000
  H   H11       1.0  0.31597  0.43146  0.7012  1.0000
  C   C22       1.0  0.25192000000000003  0.5418599999999999  0.80202  1.0000
  H   H12       1.0  0.29026999999999986  0.44908  0.83317  1.0000
  C   C23       1.0  0.18989000000000003  0.67284  0.8355600000000002  1.0000
  C   C24       1.0  0.17508000000000004  0.78529  0.79634  1.0000
  H   H13       1.0  0.15909000000000004  0.87811  0.8227900000000001  1.0000
  C   C25       1.0  0.17805000000000004  0.77983  0.72319  1.0000
  H   H14       1.0  0.15589999999999996  0.8726600000000001  0.69459  1.0000
  C   C26       1.0  0.21784999999999993  0.65356  0.6878  1.0000
  C   C27       1.0  0.7290999999999999  0.52704  0.27045  1.0000
  H   H15       1.0  0.79383  0.42402  0.29155  1.0000
  C   C28       1.0  0.7264099999999999  0.54072  0.19763000000000003  1.0000
  H   H16       1.0  0.79328  0.44889  0.16495  1.0000
  C   C29       1.0  0.6499500000000001  0.67285  0.16778  1.0000
  C   C30       1.0  0.56341  0.78949  0.2118  1.0000
  H   H17       1.0  0.50381  0.8926899999999999  0.18992  1.0000
  C   C31       1.0  0.5617200000000001  0.7746  0.28545  1.0000
  H   H18       1.0  0.49522999999999995  0.86512  0.31903  1.0000
  C   C32       1.0  0.6489  0.64367  0.31524  1.0000
  C   C33       1.0  0.55005  0.1506  0.2887  1.0000
  H   H19       1.0  0.46828  0.14331  0.31753000000000003  1.0000
  C   C34       1.0  0.54753  0.14824  0.21583  1.0000
  H   H20       1.0  0.4683999999999999  0.13184  0.19057  1.0000
  C   C35       1.0  0.65067  0.15821  0.17658  1.0000
  C   C36       1.0  0.75299  0.17737  0.21139  1.0000
  C   C37       1.0  0.7541799999999997  0.18127  0.28476000000000007  1.0000
  H   H21       1.0  0.83253  0.19747  0.3110200000000001  1.0000
  C   C38       1.0  0.64989  0.17269  0.32353  1.0000
  C   C39       1.0  0.08767999999999997  0.80079  0.30599  1.0000
  H   H22       1.0  0.06188999999999996  0.89294  0.33835  1.0000
  C   C40       1.0  0.06748999999999998  0.81405  0.23392  1.0000
  H   H23       1.0  0.020919999999999998  0.91784  0.21251  1.0000
  C   C41       1.0  0.10934999999999996  0.69507  0.19001  1.0000
  C   C42       1.0  0.16027000000000002  0.5638  0.21948000000000004  1.0000
  H   H24       1.0  0.18769999999999992  0.47225000000000006  0.18632  1.0000
  C   C43       1.0  0.18245999999999998  0.55002  0.29209  1.0000
  H   H25       1.0  0.23260999999999996  0.44606  0.31367  1.0000
  C   C44       1.0  0.15304000000000004  0.66799  0.33464  1.0000
  O   O14       1.0  0.08949000000000003  0.82561  0.93061  1.0000
  O   O15       1.0  0.81837  0.05454  0.9298800000000002  1.0000
  C   C45       1.0  0.7041399999999999  0.10221  0.89604  1.0000
  O   O16       1.0  0.60587  0.07731  0.91553  1.0000
  O   O17       1.0  0.64644  0.8067  0.91757  1.0000
  C   C46       1.0  0.75229  0.70543  0.8822600000000002  1.0000
  O   O18       1.0  0.8372000000000002  0.59329  0.91525  1.0000
  O   O19       1.0  0.06533000000000004  0.63537  0.9315900000000001  1.0000
  C   C47       1.0  0.12067000000000004  0.70571  0.9061400000000001  1.0000
  O   O20       1.0  0.06830000000000003  0.82879  0.09186  1.0000
  O   O21       1.0  0.79873  0.05748  0.07937  1.0000
  C   C48       1.0  0.67401  0.10814  0.1038  1.0000
  O   O22       1.0  0.58468  0.08048  0.07679  1.0000
  O   O23       1.0  0.62679  0.80964  0.06705  1.0000
  C   C49       1.0  0.69374  0.6908  0.09708  1.0000
  O   O24       1.0  0.81601  0.59646  0.07650000000000001  1.0000
  O   O25       1.0  0.045680000000000026  0.63831  0.08107000000000002  1.0000
  C   C50       1.0  0.08245000000000004  0.71592  0.11509000000000001  1.0000
  Cr  Cr4       1.0  0.9376199999999999  0.93854  0.007640000000000001  1.0000
  Cr  Cr5       1.0  0.62515  0.93745  0.9945200000000001  1.0000
  Cr  Cr6       1.0  0.9379899999999999  0.62508  0.00119  1.0000
  O   O26       1.0  0.8335899999999999  0.83369  0.00112  1.0000
  C   C51       1.0  0.98024  0.47731999999999997  0.75101  1.0000
  C   C52       1.0  0.06076  0.40476  0.81648  1.0000
  C   C53       1.0  0.19819000000000003  0.27221  0.79429  1.0000
  H   H26       1.0  0.17688000000000004  0.19297  0.76986  1.0000
  H   H27       1.0  0.25726999999999994  0.2932  0.75385  1.0000
  H   H28       1.0  0.26692  0.22956  0.84083  1.0000
  H   H29       1.0  0.08159999999999999  0.4745500000000001  0.8484100000000001  1.0000
  H   H30       1.0  0.99796  0.37766  0.85077  1.0000
  H   H31       1.0  0.94683  0.40967  0.72401  1.0000
  H   H32       1.0  0.059010000000000014  0.47663999999999995  0.71336  1.0000
  C   C54       1.0  0.9454199999999999  0.15207  0.8045600000000002  1.0000
  C   C55       1.0  0.98557  0.14094  0.8835799999999999  1.0000
  C   C56       1.0  0.12923  0.11799  0.9060300000000001  1.0000
  H   H33       1.0  0.21171  0.056840000000000016  0.8651000000000001  1.0000
  H   H34       1.0  0.12412999999999998  0.21657  0.9228000000000001  1.0000
  H   H35       1.0  0.16304999999999994  0.0548  0.9550300000000002  1.0000
  H   H36       1.0  0.90002  0.22414000000000003  0.9172199999999999  1.0000
  H   H37       1.0  0.006129999999999999  0.03908  0.89455  1.0000
  H   H38       1.0  0.03247  0.06771  0.77325  1.0000
  H   H39       1.0  0.94417  0.24341999999999997  0.78318  1.0000
  F   F1        1.0  0.8540999999999999  0.18799  0.17476  1.0000
  F   F2        1.0  0.42309999999999987  0.82452  0.70546  1.0000
  F   F3        1.0  0.7719199999999999  0.4488  0.82606  1.0000
  C   C57       1.0  0.53565  0.61008  0.8479600000000002  1.0000
  C   C58       1.0  0.5676200000000001  0.56085  0.9260100000000001  1.0000
  C   C59       1.0  0.43678999999999996  0.58686  0.96727  1.0000
  H   H40       1.0  0.3569800000000001  0.69984  0.96765  1.0000
  H   H41       1.0  0.39383  0.52376  0.94351  1.0000
  H   H42       1.0  0.46474999999999994  0.55459  0.02321  1.0000
  H   H43       1.0  0.6440500000000001  0.44681999999999994  0.92716  1.0000
  H   H44       1.0  0.6123  0.6156  0.95588  1.0000
  H   H45       1.0  0.45547  0.72248  0.8471  1.0000
  H   H46       1.0  0.4869000000000001  0.552  0.8251  1.0000
  F   F4        1.0  0.53075  0.55434  0.7063700000000002  1.0000
