data_image0
_chemical_formula_structural       O3CO2CO2VOCOCVOC18H3C4HC18H7C2HC2HO3CO2CO2VOCOCVONH2NH4NH5NH2NH2NH2NH2NH2NH3
_chemical_formula_sum              "O20 C52 V4 H37 N9"
_cell_length_a       6.92777
_cell_length_b       14.17534
_cell_length_c       17.74643
_cell_angle_alpha    113.35636000000001
_cell_angle_beta     96.34686
_cell_angle_gamma    90.20403

_symmetry_space_group_name_H-M    'P 1'
_symmetry_Int_Tables_number       1

loop_
  _symmetry_equiv_pos_as_xyz
  'x,y,z'

loop_
  _atom_site_type_symbol
  _atom_site_label
  _atom_site_symmetry_multiplicity
  _atom_site_fract_x
  _atom_site_fract_y
  _atom_site_fract_z
  _atom_site_occupancy
  O   O1        1.0  0.4845599999999999  0.54453  0.41433  1.0000
  O   O2        1.0  0.19704  0.6388099999999998  0.58508  1.0000
  O   O3        1.0  0.026799999999999973  0.4554699999999999  0.58567  1.0000
  C   C1        1.0  0.3756999999999999  0.6793099999999997  0.61118  1.0000
  O   O4        1.0  0.15499999999999997  0.55615  0.41494  1.0000
  O   O5        1.0  0.98445  0.37222  0.41432  1.0000
  C   C2        1.0  0.31798  0.56464  0.3861999999999999  1.0000
  O   O6        1.0  0.5269  0.6277799999999998  0.58568  1.0000
  O   O7        1.0  0.33916999999999997  0.43975  0.49999000000000005  1.0000
  V   V1        1.0  0.06435  0.51118  0.5  1.0000
  O   O8        1.0  0.65488  0.36119  0.41492  1.0000
  C   C3        1.0  0.81792  0.32336  0.3877  1.0000
  O   O9        1.0  0.69693  0.44385  0.58506  1.0000
  C   C4        1.0  0.87469  0.43321999999999977  0.61353  1.0000
  V   V2        1.0  0.56434  0.48882  0.5  1.0000
  O   O10       1.0  0.8393899999999997  0.56025  0.50001  1.0000
  C   C5        1.0  0.03803000000000002  0.8705499999999998  0.823  1.0000
  C   C6        1.0  0.9109099999999999  0.3968399999999999  0.68354  1.0000
  C   C7        1.0  0.9300899999999999  0.8358999999999996  0.6770599999999998  1.0000
  C   C8        1.0  0.97839  0.80236  0.74096  1.0000
  C   C9        1.0  0.046830000000000004  0.97651  0.83913  1.0000
  C   C10       1.0  0.0061299999999999836  0.013369999999999957  0.77415  1.0000
  C   C11       1.0  0.9556100000000001  0.9401600000000001  0.69137  1.0000
  C   C12       1.0  0.012739999999999987  0.12041  0.78821  1.0000
  C   C13       1.0  0.9700099999999999  0.15117  0.72035  1.0000
  C   C14       1.0  0.94065  0.07578000000000003  0.64044  1.0000
  C   C15       1.0  0.9341  0.97284  0.6249  1.0000
  C   C16       1.0  0.062  0.19781999999999994  0.86759  1.0000
  C   C17       1.0  0.06910999999999992  0.30127999999999977  0.8807699999999998  1.0000
  C   C18       1.0  0.020219999999999985  0.3307499999999999  0.8144  1.0000
  C   C19       1.0  0.96542  0.2568299999999999  0.73333  1.0000
  C   C20       1.0  0.023339999999999937  0.4341799999999999  0.8287099999999997  1.0000
  C   C21       1.0  0.96915  0.4665799999999998  0.76522  1.0000
  C   C22       1.0  0.9073099999999998  0.29178999999999994  0.66856  1.0000
  H   H1        1.0  0.08594000000000002  0.027699999999999975  0.9028  1.0000
  H   H2        1.0  0.09880000000000001  0.18103  0.92132  1.0000
  H   H3        1.0  0.06507000000000002  0.4917299999999999  0.89056  1.0000
  C   C23       1.0  0.14009  0.03372  0.18693  1.0000
  C   C24       1.0  0.97814  0.07521  0.22044  1.0000
  C   C25       1.0  0.8178899999999998  0.21978999999999999  0.31956  1.0000
  C   C26       1.0  0.98517  0.17261  0.29544  1.0000
  H   H4        1.0  0.28246  0.07189999999999998  0.21296  1.0000
  C   C27       1.0  0.41614  0.7855999999999997  0.68054  1.0000
  C   C28       1.0  0.53723  0.4648  0.83249  1.0000
  C   C29       1.0  0.53669  0.8890599999999997  0.82498  1.0000
  C   C30       1.0  0.48601  0.7932199999999998  0.75995  1.0000
  C   C31       1.0  0.40854  0.8784699999999998  0.66742  1.0000
  C   C32       1.0  0.46683  0.9782  0.73325  1.0000
  C   C33       1.0  0.52545  0.98115  0.81283  1.0000
  C   C34       1.0  0.46868999999999983  0.07492999999999994  0.7234399999999997  1.0000
  C   C35       1.0  0.51483  0.17288  0.79287  1.0000
  C   C36       1.0  0.56594  0.16951999999999995  0.87071  1.0000
  C   C37       1.0  0.57362  0.0759  0.88003  1.0000
  C   C38       1.0  0.43207  0.07531999999999994  0.64513  1.0000
  C   C39       1.0  0.42404  0.16537999999999994  0.63218  1.0000
  C   C40       1.0  0.45213999999999993  0.26382  0.69987  1.0000
  C   C41       1.0  0.50789  0.26976  0.78158  1.0000
  C   C42       1.0  0.42519999999999997  0.35667  0.68796  1.0000
  C   C43       1.0  0.46673  0.45331999999999983  0.7527099999999998  1.0000
  C   C44       1.0  0.55327  0.37208  0.84732  1.0000
  H   H5        1.0  0.6173499999999997  0.07774999999999997  0.94117  1.0000
  H   H6        1.0  0.60022  0.38144  0.90998  1.0000
  H   H7        1.0  0.44359  0.5214499999999999  0.7399399999999998  1.0000
  H   H8        1.0  0.5004899999999999  0.7242499999999997  0.77202  1.0000
  H   H9        1.0  0.35599  0.8700399999999998  0.60555  1.0000
  H   H10       1.0  0.41203  0.004800000000000053  0.59049  1.0000
  H   H11       1.0  0.3377299999999999  0.6668499999999999  0.19493  1.0000
  C   C45       1.0  0.3195  0.6014699999999997  0.31824  1.0000
  C   C46       1.0  0.4842099999999999  0.6084099999999998  0.2842999999999999  1.0000
  H   H12       1.0  0.77908  0.63589  0.20355  1.0000
  C   C47       1.0  0.6380999999999999  0.65558  0.18243  1.0000
  C   C48       1.0  0.47744999999999993  0.6461699999999998  0.2167  1.0000
  H   H13       1.0  0.1824  0.62322  0.29516  1.0000
  O   O11       1.0  0.4215999999999999  0.63043  0.91701  1.0000
  O   O12       1.0  0.79384  0.70219  0.08763  1.0000
  O   O13       1.0  0.96401  0.88617  0.08819  1.0000
  C   C49       1.0  0.63193  0.6933599999999998  0.11584  1.0000
  O   O14       1.0  0.7514599999999999  0.6195099999999998  0.9175  1.0000
  O   O15       1.0  0.92133  0.8028999999999997  0.91684  1.0000
  C   C50       1.0  0.5742399999999998  0.5754299999999999  0.89818  1.0000
  O   O16       1.0  0.4642899999999999  0.7136999999999998  0.08835  1.0000
  O   O17       1.0  0.6091999999999997  0.81852  0.00263  1.0000
  V   V3        1.0  0.88414  0.7471899999999998  0.00253  1.0000
  O   O18       1.0  0.25115  0.8146299999999997  0.91734  1.0000
  C   C51       1.0  0.07353000000000001  0.8302099999999998  0.89158  1.0000
  O   O19       1.0  0.29353  0.89731  0.08747  1.0000
  C   C52       1.0  0.13224  0.93331  0.11633  1.0000
  V   V4        1.0  0.38407  0.76971  0.00237  1.0000
  O   O20       1.0  0.10918  0.6981899999999998  0.00246  1.0000
  N   N1        1.0  0.9142199999999999  0.90277  0.53961  1.0000
  H   H14       1.0  0.030919999999999965  0.9172099999999996  0.5123  1.0000
  H   H15       1.0  0.78528  0.91643  0.50973  1.0000
  N   N2        1.0  0.1703  0.21502999999999992  0.34313  1.0000
  H   H16       1.0  0.25671  0.23579000000000003  0.30689  1.0000
  H   H17       1.0  0.23825999999999994  0.15888  0.35939  1.0000
  H   H18       1.0  0.8364299999999998  0.03671  0.19248  1.0000
  H   H19       1.0  0.6784999999999998  0.18358999999999995  0.2856299999999999  1.0000
  N   N3        1.0  0.39213  0.15326999999999993  0.54755  1.0000
  H   H20       1.0  0.26031  0.11114999999999998  0.52015  1.0000
  H   H21       1.0  0.50412  0.11146999999999994  0.51658  1.0000
  H   H22       1.0  0.58652  0.8913  0.88562  1.0000
  H   H23       1.0  0.85659  0.24026  0.60602  1.0000
  H   H24       1.0  0.60311  0.23867  0.92565  1.0000
  N   N4        1.0  0.3471799999999999  0.35619999999999996  0.61022  1.0000
  H   H25       1.0  0.21698  0.31150000000000005  0.58982  1.0000
  H   H26       1.0  0.44545  0.3239  0.56777  1.0000
  N   N5        1.0  0.66734  0.57892  0.31298  1.0000
  H   H27       1.0  0.7194  0.52002  0.26332  1.0000
  H   H28       1.0  0.76641  0.6425499999999997  0.33593  1.0000
  N   N6        1.0  0.9641399999999998  0.5727599999999998  0.78563  1.0000
  H   H29       1.0  0.81838  0.5911099999999998  0.78238  1.0000
  H   H30       1.0  0.036980000000000006  0.61601  0.84418  1.0000
  N   N7        1.0  0.12502  0.37706  0.9629  1.0000
  H   H31       1.0  0.02856  0.3687299999999999  0.00146  1.0000
  H   H32       1.0  0.2641  0.36189999999999994  0.98346  1.0000
  N   N8        1.0  0.84981  0.7612599999999998  0.59784  1.0000
  H   H33       1.0  0.9506599999999997  0.74801  0.55569  1.0000
  H   H34       1.0  0.7195199999999998  0.7855799999999997  0.5776  1.0000
  N   N9        1.0  0.97991  0.69581  0.72127  1.0000
  H   H35       1.0  0.1244  0.67533  0.72254  1.0000
  H   H36       1.0  0.90102  0.64997  0.66486  1.0000
  H   H37       1.0  0.9289  0.09379999999999994  0.58671  1.0000
