data_image0
_chemical_formula_structural       C68Cr6H58O26
_chemical_formula_sum              "C68 Cr6 H58 O26"
_cell_length_a       11.06621
_cell_length_b       10.979579999999999
_cell_length_c       18.72329
_cell_angle_alpha    90.18673000000001
_cell_angle_beta     89.90074
_cell_angle_gamma    60.47491999999999

_symmetry_space_group_name_H-M    'P 1'
_symmetry_Int_Tables_number       1

loop_
  _symmetry_equiv_pos_as_xyz
  'x,y,z'

loop_
  _atom_site_type_symbol
  _atom_site_label
  _atom_site_symmetry_multiplicity
  _atom_site_fract_x
  _atom_site_fract_y
  _atom_site_fract_z
  _atom_site_occupancy
  C   C1        1.0  0.29045  0.62264  0.61598  1.0000
  C   C2        1.0  0.5523699999999999  0.19943999999999998  0.71968  1.0000
  C   C3        1.0  0.55634  0.19836  0.7929  1.0000
  C   C4        1.0  0.6502999999999998  0.62  0.60179  1.0000
  C   C5        1.0  0.9266999999999999  0.13858  0.78974  1.0000
  C   C6        1.0  0.91935  0.14186  0.70778  1.0000
  C   C7        1.0  0.65967  0.19393999999999997  0.67867  1.0000
  C   C8        1.0  0.21293  0.6556499999999998  0.84336  1.0000
  C   C9        1.0  0.25340000000000007  0.5279199999999998  0.80808  1.0000
  C   C10       1.0  0.2745999999999999  0.5168  0.73394  1.0000
  C   C11       1.0  0.24235  0.7493699999999998  0.73177  1.0000
  C   C12       1.0  0.6964799999999999  0.5380999999999999  0.79974  1.0000
  C   C13       1.0  0.22894000000000012  0.7572599999999999  0.80572  1.0000
  C   C14       1.0  0.18922999999999998  0.43683999999999995  0.8085  1.0000
  C   C15       1.0  0.19661999999999993  0.43743  0.72758  1.0000
  C   C16       1.0  0.62716  0.23163999999999998  0.60376  1.0000
  C   C17       1.0  0.2624399999999999  0.63052  0.69372  1.0000
  C   C18       1.0  0.6489499999999998  0.6732899999999998  0.16694  1.0000
  C   C19       1.0  0.7072399999999999  0.54172  0.1987  1.0000
  C   C20       1.0  0.70868  0.53016  0.27153  1.0000
  C   C21       1.0  0.5744099999999998  0.77905  0.28541  1.0000
  C   C22       1.0  0.57241  0.7925999999999999  0.21082  1.0000
  C   C23       1.0  0.6927899999999998  0.67775  0.8128  1.0000
  C   C24       1.0  0.8444199999999998  0.41005  0.19118  1.0000
  C   C25       1.0  0.8478999999999999  0.4021699999999999  0.27204  1.0000
  C   C26       1.0  0.6504900000000001  0.6467499999999998  0.31654  1.0000
  C   C27       1.0  0.66159  0.14027999999999996  0.17873  1.0000
  C   C28       1.0  0.21877  0.65138  0.40248  1.0000
  C   C29       1.0  0.54089  0.16436  0.21312  1.0000
  C   C30       1.0  0.5304099999999999  0.17975  0.28566  1.0000
  C   C31       1.0  0.77093  0.11861  0.29384  1.0000
  C   C32       1.0  0.77937  0.11085  0.21983  1.0000
  C   C33       1.0  0.3940899999999999  0.27617  0.20089  1.0000
  C   C34       1.0  0.6622299999999999  0.6503199999999998  0.67676  1.0000
  C   C35       1.0  0.3829999999999999  0.29716999999999993  0.28146  1.0000
  C   C36       1.0  0.64276  0.16635  0.32635  1.0000
  C   C37       1.0  0.05100000000000011  0.7298399999999998  0.19588  1.0000
  C   C38       1.0  0.07419999999999993  0.82712  0.23258  1.0000
  C   C39       1.0  0.10777000000000003  0.8117299999999998  0.30323  1.0000
  C   C40       1.0  0.6419699999999998  0.62216  0.39203  1.0000
  C   C41       1.0  0.08663000000000005  0.6034599999999998  0.3076  1.0000
  C   C42       1.0  0.04466000000000009  0.6244299999999998  0.23562999999999998  1.0000
  C   C43       1.0  0.16615  0.8881599999999998  0.21566999999999997  1.0000
  C   C44       1.0  0.19904  0.87691  0.29477  1.0000
  C   C45       1.0  0.7903199999999999  0.6642399999999998  0.68622  1.0000
  C   C46       1.0  0.13085000000000002  0.69096  0.33958  1.0000
  C   C47       1.0  0.7004899999999997  0.10583  0.8976499999999998  1.0000
  C   C48       1.0  0.72149  0.6877599999999999  0.88904  1.0000
  C   C49       1.0  0.12364000000000003  0.70356  0.9076799999999999  1.0000
  C   C50       1.0  0.67737  0.10286  0.10473  1.0000
  C   C51       1.0  0.6957100000000002  0.6903599999999999  0.09717999999999999  1.0000
  C   C52       1.0  0.61561  0.22885999999999998  0.39583  1.0000
  C   C53       1.0  0.02844  0.74646  0.11909  1.0000
  C   C54       1.0  0.5473599999999997  0.79637  0.78799  1.0000
  C   C55       1.0  0.53302  0.78519  0.70608  1.0000
  C   C56       1.0  0.6779699999999997  0.52281  0.72006  1.0000
  C   C57       1.0  0.8081  0.68388  0.76636  1.0000
  C   C58       1.0  0.37566999999999995  0.4002299999999999  0.15423  1.0000
  C   C59       1.0  0.4374099999999999  0.4877  0.18394  1.0000
  C   C60       1.0  0.50286  0.9213699999999999  0.66656  1.0000
  C   C61       1.0  0.34885000000000005  0.03143  0.6693999999999999  1.0000
  C   C62       1.0  0.13872  0.01851  0.33458  1.0000
  C   C63       1.0  0.24923999999999996  0.05842  0.3502799999999999  1.0000
  C   C64       1.0  0.8229699999999999  0.8141199999999998  0.7818399999999999  1.0000
  C   C65       1.0  0.9148799999999999  0.8334099999999998  0.72794  1.0000
  C   C66       1.0  0.6757399999999998  0.17792999999999995  0.8293499999999999  1.0000
  C   C67       1.0  0.77333  0.19593999999999995  0.78973  1.0000
  C   C68       1.0  0.7656099999999999  0.20256  0.71596  1.0000
  Cr  Cr1       1.0  0.39296000000000003  0.3979199999999999  0.5022399999999999  1.0000
  Cr  Cr2       1.0  0.39833999999999997  0.7084799999999999  0.50125  1.0000
  Cr  Cr3       1.0  0.70867  0.39357  0.49645999999999996  1.0000
  Cr  Cr4       1.0  0.9376500000000001  0.9385399999999999  0.00761  1.0000
  Cr  Cr5       1.0  0.6253299999999999  0.93737  0.99452  1.0000
  Cr  Cr6       1.0  0.93794  0.6252299999999998  0.00119  1.0000
  H   H1        1.0  0.5293599999999999  0.9018499999999999  0.80317  1.0000
  H   H2        1.0  0.9710599999999998  0.03776  0.68158  1.0000
  H   H3        1.0  0.2273600000000001  0.8418799999999999  0.70419  1.0000
  H   H4        1.0  0.4648599999999997  0.78524  0.81608  1.0000
  H   H5        1.0  0.20916000000000004  0.85414  0.831  1.0000
  H   H6        1.0  0.08626  0.48490999999999995  0.83304  1.0000
  H   H7        1.0  0.2575299999999999  0.33333  0.83222  1.0000
  H   H8        1.0  0.2542599999999999  0.33223  0.7043199999999998  1.0000
  H   H9        1.0  0.09517000000000003  0.49982999999999994  0.7017399999999999  1.0000
  H   H10       1.0  0.5246399999999999  0.87132  0.31863  1.0000
  H   H11       1.0  0.5235699999999999  0.8970099999999999  0.18858  1.0000
  H   H12       1.0  0.7719899999999997  0.42898  0.70093  1.0000
  H   H13       1.0  0.9297299999999997  0.42349  0.1689  1.0000
  H   H14       1.0  0.83305  0.32500999999999997  0.16543  1.0000
  H   H15       1.0  0.8429099999999998  0.31157  0.29348  1.0000
  H   H16       1.0  0.4453699999999999  0.76816  0.69666  1.0000
  H   H17       1.0  0.92907  0.42081999999999997  0.29624  1.0000
  H   H18       1.0  0.8598099999999999  0.09986999999999999  0.32524  1.0000
  H   H19       1.0  0.87686  0.08442  0.19471  1.0000
  H   H20       1.0  0.33079999999999987  0.22986999999999996  0.18099  1.0000
  H   H21       1.0  0.3722199999999999  0.39724999999999994  0.30108  1.0000
  H   H22       1.0  0.30849  0.27015  0.30626  1.0000
  H   H23       1.0  0.90572  0.59237  0.78068  1.0000
  H   H24       1.0  0.09649000000000002  0.51286  0.33553  1.0000
  H   H25       1.0  0.020200000000000003  0.55154  0.2098  1.0000
  H   H26       1.0  0.10928000000000009  0.9964799999999999  0.19468  1.0000
  H   H27       1.0  0.25801  0.81628  0.18288  1.0000
  H   H28       1.0  0.31027  0.8023699999999999  0.30587999999999993  1.0000
  H   H29       1.0  0.7797599999999999  0.75157  0.65237  1.0000
  H   H30       1.0  0.79722  0.44993  0.8177  1.0000
  H   H31       1.0  0.6128499999999999  0.53329  0.83063  1.0000
  H   H32       1.0  0.5867900000000001  0.5073599999999999  0.71154  1.0000
  H   H33       1.0  0.3714299999999999  0.55805  0.22738  1.0000
  H   H34       1.0  0.8825199999999997  0.5684  0.66567  1.0000
  H   H35       1.0  0.5436199999999998  0.41962  0.2044  1.0000
  H   H36       1.0  0.44225999999999976  0.5543899999999999  0.14084  1.0000
  H   H37       1.0  0.4215599999999999  0.35966  0.10073  1.0000
  H   H38       1.0  0.26364  0.46962  0.14556  1.0000
  H   H39       1.0  0.2852799999999999  0.98978  0.64501  1.0000
  H   H40       1.0  0.31478  0.06411  0.72541  1.0000
  H   H41       1.0  0.33059999999999995  0.12384999999999999  0.63754  1.0000
  H   H42       1.0  0.5665300000000001  0.9629799999999997  0.68975  1.0000
  H   H43       1.0  0.5336099999999999  0.90229  0.60952  1.0000
  H   H44       1.0  0.32648999999999995  0.98281  0.38825  1.0000
  H   H45       1.0  0.4658899999999999  0.19921  0.6949  1.0000
  H   H46       1.0  0.30084  0.06055  0.29979  1.0000
  H   H47       1.0  0.19997  0.16394  0.37535  1.0000
  H   H48       1.0  0.05650999999999999  0.10388999999999998  0.30278  1.0000
  H   H49       1.0  0.09206  0.013039999999999998  0.38628999999999997  1.0000
  H   H50       1.0  0.9914499999999997  0.7336  0.70334  1.0000
  H   H51       1.0  0.85145  0.9057399999999999  0.68491  1.0000
  H   H52       1.0  0.97167  0.8767099999999999  0.75561  1.0000
  H   H53       1.0  0.7211000000000001  0.9103799999999999  0.78248  1.0000
  H   H54       1.0  0.8682299999999997  0.80393  0.83578  1.0000
  H   H55       1.0  0.47408999999999996  0.19029999999999994  0.81922  1.0000
  H   H56       1.0  0.98402  0.034449999999999995  0.8145099999999998  1.0000
  H   H57       1.0  0.9561  0.2143  0.81173  1.0000
  H   H58       1.0  0.9494299999999999  0.21558  0.68403  1.0000
  O   O1        1.0  0.5073799999999999  0.2556999999999999  0.58144  1.0000
  O   O2        1.0  0.83717  0.59341  0.9152499999999999  1.0000
  O   O3        1.0  0.0652  0.63553  0.93157  1.0000
  O   O4        1.0  0.28032000000000007  0.52735  0.57893  1.0000
  O   O5        1.0  0.06826000000000013  0.8288899999999998  0.09184  1.0000
  O   O6        1.0  0.7988699999999999  0.05741  0.07934  1.0000
  O   O7        1.0  0.58493  0.08034999999999999  0.07678  1.0000
  O   O8        1.0  0.6269600000000001  0.8096499999999998  0.06706  1.0000
  O   O9        1.0  0.81604  0.59661  0.07651  1.0000
  O   O10       1.0  0.04561000000000006  0.6384999999999998  0.08106  1.0000
  O   O11       1.0  0.8336399999999999  0.83371  0.0011  1.0000
  O   O12       1.0  0.5244800000000001  0.69581  0.42404  1.0000
  O   O13       1.0  0.2605099999999999  0.73959  0.58459  1.0000
  O   O14       1.0  0.5322999999999999  0.69508  0.57382  1.0000
  O   O15       1.0  0.7448399999999997  0.5035  0.57637  1.0000
  O   O16       1.0  0.69912  0.27656  0.57196  1.0000
  O   O17       1.0  0.49894000000000005  0.25649999999999995  0.41986  1.0000
  O   O18       1.0  0.27250000000000013  0.5280799999999998  0.42915  1.0000
  O   O19       1.0  0.25206  0.74038  0.42301  1.0000
  O   O20       1.0  0.73639  0.50429  0.41478999999999994  1.0000
  O   O21       1.0  0.6912999999999999  0.27729  0.42216999999999993  1.0000
  O   O22       1.0  0.49999  0.49999  0.49998  1.0000
  O   O23       1.0  0.08940000000000002  0.82569  0.93057  1.0000
  O   O24       1.0  0.81846  0.05444  0.92985  1.0000
  O   O25       1.0  0.6060599999999999  0.07714999999999997  0.91551  1.0000
  O   O26       1.0  0.6465499999999998  0.80668  0.9175700000000001  1.0000
