data_image0
_chemical_formula_structural       C120Cr12H64O52Cl4OCH3OCH3OCH3OCH3
_chemical_formula_sum              "C124 Cr12 H76 O56 Cl4"
_cell_length_a       18.89994
_cell_length_b       11.0362
_cell_length_c       18.73632
_cell_angle_alpha    89.98067999999999
_cell_angle_beta     90.79631000000002
_cell_angle_gamma    90.13458000000001

_space_group_name_H-M_alt    "P 1"
_space_group_IT_number       1

loop_
  _space_group_symop_operation_xyz
  'x, y, z'

loop_
  _atom_site_type_symbol
  _atom_site_label
  _atom_site_symmetry_multiplicity
  _atom_site_fract_x
  _atom_site_fract_y
  _atom_site_fract_z
  _atom_site_occupancy
  C   C1        1.0  0.28783  0.00337  0.86165  1.0000
  C   C2        1.0  0.71217  0.0033100000000000004  0.13838  1.0000
  C   C3        1.0  0.78782  0.50339  0.86165  1.0000
  C   C4        1.0  0.21217  0.50331  0.13838  1.0000
  C   C5        1.0  0.52955  0.7272900000000002  0.97108  1.0000
  C   C6        1.0  0.47147000000000006  0.72597  0.02838  1.0000
  C   C7        1.0  0.02956  0.22729000000000005  0.97108  1.0000
  C   C8        1.0  0.97147  0.22596000000000005  0.02838  1.0000
  C   C9        1.0  0.22607000000000002  0.53157  0.06335  1.0000
  C   C10       1.0  0.7738100000000002  0.5324200000000001  0.9364500000000001  1.0000
  C   C11       1.0  0.72607  0.03156  0.06335  1.0000
  C   C12       1.0  0.27382  0.0324  0.9364600000000001  1.0000
  C   C13       1.0  0.28792000000000006  0.49431000000000014  0.0288  1.0000
  C   C14       1.0  0.7113300000000001  0.49677000000000004  0.9703  1.0000
  C   C15       1.0  0.7879100000000002  0.9942800000000002  0.0288  1.0000
  C   C16       1.0  0.21134000000000003  0.99675  0.9703  1.0000
  C   C17       1.0  0.29541  0.51173  0.9547000000000001  1.0000
  C   C18       1.0  0.70294  0.51399  0.04421  1.0000
  C   C19       1.0  0.7954000000000001  0.011709999999999998  0.9547000000000001  1.0000
  C   C20       1.0  0.20295  0.014  0.0442  1.0000
  C   C21       1.0  0.17786  0.59446  0.94873  1.0000
  C   C22       1.0  0.8218100000000003  0.59287  0.0516  1.0000
  C   C23       1.0  0.67785  0.09447000000000003  0.94873  1.0000
  C   C24       1.0  0.3218200000000001  0.09289000000000001  0.05159  1.0000
  C   C25       1.0  0.17068  0.57958  0.02183  1.0000
  C   C26       1.0  0.82936  0.57886  0.9784600000000001  1.0000
  C   C27       1.0  0.6706800000000002  0.07958  0.02183  1.0000
  C   C28       1.0  0.32937  0.07887  0.9784600000000001  1.0000
  C   C29       1.0  0.3117600000000001  0.36648  0.02558  1.0000
  C   C30       1.0  0.6860000000000002  0.36988  0.97241  1.0000
  C   C31       1.0  0.8117400000000001  0.86645  0.02558  1.0000
  C   C32       1.0  0.18602  0.8698600000000001  0.97244  1.0000
  C   C33       1.0  0.31382  0.3808000000000001  0.9451900000000001  1.0000
  C   C34       1.0  0.68118  0.38287  0.05219  1.0000
  C   C35       1.0  0.81379  0.8807600000000001  0.9451800000000001  1.0000
  C   C36       1.0  0.18119  0.88289  0.05221  1.0000
  C   C37       1.0  0.24213000000000004  0.5689300000000002  0.9155800000000001  1.0000
  C   C38       1.0  0.7570600000000002  0.56827  0.08428  1.0000
  C   C39       1.0  0.74213  0.06893  0.9155800000000001  1.0000
  C   C40       1.0  0.25707  0.06829  0.08428  1.0000
  C   C41       1.0  0.49563000000000007  0.8272  0.42121  1.0000
  C   C42       1.0  0.4798  0.8305200000000001  0.56933  1.0000
  C   C43       1.0  0.9956300000000001  0.3272000000000001  0.42121  1.0000
  C   C44       1.0  0.9798000000000001  0.33052000000000004  0.56933  1.0000
  C   C45       1.0  0.46965  0.8213000000000003  0.8557200000000001  1.0000
  C   C46       1.0  0.53049  0.8211200000000002  0.14419  1.0000
  C   C47       1.0  0.9696500000000001  0.3213  0.8557200000000001  1.0000
  C   C48       1.0  0.03049  0.32112  0.14419  1.0000
  C   C49       1.0  0.49093000000000003  0.71918  0.46024  1.0000
  C   C50       1.0  0.48283000000000004  0.7216200000000002  0.53253  1.0000
  C   C51       1.0  0.99093  0.21918  0.46024  1.0000
  C   C52       1.0  0.9828300000000001  0.22162000000000004  0.53253  1.0000
  C   C53       1.0  0.47399  0.9389600000000001  0.53014  1.0000
  C   C54       1.0  0.4810400000000001  0.9371900000000001  0.45572000000000007  1.0000
  C   C55       1.0  0.97399  0.43896  0.53014  1.0000
  C   C56       1.0  0.98104  0.4371900000000001  0.45572000000000007  1.0000
  C   C57       1.0  0.54136  0.61416  0.46624  1.0000
  C   C58       1.0  0.53033  0.6163600000000001  0.5461  1.0000
  C   C59       1.0  0.04136  0.11416000000000001  0.46624  1.0000
  C   C60       1.0  0.03033  0.11636  0.5461  1.0000
  C   C61       1.0  0.25032000000000004  0.60098  0.41965  1.0000
  C   C62       1.0  0.7685  0.5452800000000001  0.5658300000000002  1.0000
  C   C63       1.0  0.7503200000000001  0.10098000000000001  0.41965  1.0000
  C   C64       1.0  0.2685  0.045280000000000015  0.5658300000000002  1.0000
  C   C65       1.0  0.20030000000000006  0.66861  0.4569  1.0000
  C   C66       1.0  0.82334  0.60057  0.52976  1.0000
  C   C67       1.0  0.7003  0.16861  0.4569  1.0000
  C   C68       1.0  0.32334  0.10057  0.52976  1.0000
  C   C69       1.0  0.20344000000000007  0.6729000000000002  0.5293  1.0000
  C   C70       1.0  0.8204400000000002  0.61286  0.45757000000000003  1.0000
  C   C71       1.0  0.7034400000000002  0.17290000000000003  0.5293  1.0000
  C   C72       1.0  0.3204400000000001  0.11286000000000002  0.45757000000000003  1.0000
  C   C73       1.0  0.31462  0.56698  0.53009  1.0000
  C   C74       1.0  0.71342  0.49251  0.45247000000000004  1.0000
  C   C75       1.0  0.8146200000000002  0.06698  0.53009  1.0000
  C   C76       1.0  0.21342  0.9925  0.45247000000000004  1.0000
  C   C77       1.0  0.31157  0.5611  0.45568  1.0000
  C   C78       1.0  0.7175900000000002  0.47886  0.52646  1.0000
  C   C79       1.0  0.8115700000000002  0.0611  0.45568  1.0000
  C   C80       1.0  0.21759  0.9788600000000002  0.52646  1.0000
  C   C81       1.0  0.12067000000000001  0.6619500000000001  0.45825000000000005  1.0000
  C   C82       1.0  0.85725  0.72077  0.54256  1.0000
  C   C83       1.0  0.6206700000000003  0.16195000000000004  0.45825000000000005  1.0000
  C   C84       1.0  0.35725000000000007  0.22077000000000002  0.54256  1.0000
  C   C85       1.0  0.1254  0.6674200000000001  0.53854  1.0000
  C   C86       1.0  0.8544900000000001  0.7363400000000001  0.4627  1.0000
  C   C87       1.0  0.6254000000000001  0.16742000000000004  0.53854  1.0000
  C   C88       1.0  0.35449  0.23634000000000002  0.4627  1.0000
  C   C89       1.0  0.2590100000000001  0.6321100000000001  0.8495100000000001  1.0000
  C   C90       1.0  0.7408100000000001  0.63193  0.15041  1.0000
  C   C91       1.0  0.7590100000000002  0.13211  0.8495100000000001  1.0000
  C   C92       1.0  0.24081  0.13194000000000003  0.15041  1.0000
  C   C93       1.0  0.25664999999999993  0.6141100000000002  0.56741  1.0000
  C   C94       1.0  0.7606699999999998  0.57181  0.41926  1.0000
  C   C95       1.0  0.7566500000000003  0.11411  0.56741  1.0000
  C   C96       1.0  0.26067  0.07181000000000001  0.41926  1.0000
  C   C97       1.0  0.2757  0.03442  0.64175  1.0000
  C   C98       1.0  0.72912  0.047790000000000006  0.35283  1.0000
  C   C99       1.0  0.7757  0.53442  0.64175  1.0000
  C   C100      1.0  0.22912000000000002  0.5477900000000001  0.35283  1.0000
  C   C101      1.0  0.46548000000000006  0.8234400000000002  0.64474  1.0000
  C   C102      1.0  0.52936  0.8228900000000002  0.35233  1.0000
  C   C103      1.0  0.9654900000000002  0.32344  0.64474  1.0000
  C   C104      1.0  0.029360000000000004  0.32289000000000007  0.35233  1.0000
  C   C105      1.0  0.26109000000000004  0.64053  0.64216  1.0000
  C   C106      1.0  0.74172  0.63361  0.3543  1.0000
  C   C107      1.0  0.7610900000000002  0.14053  0.64216  1.0000
  C   C108      1.0  0.24172000000000002  0.13361000000000003  0.3543  1.0000
  C   C109      1.0  0.47097000000000006  0.92528  0.029009999999999998  1.0000
  C   C110      1.0  0.52849  0.9265600000000002  0.9712  1.0000
  C   C111      1.0  0.9709600000000002  0.4252700000000001  0.029009999999999998  1.0000
  C   C112      1.0  0.028490000000000005  0.4265600000000001  0.9712  1.0000
  C   C113      1.0  0.43020000000000014  0.82531  0.98767  1.0000
  C   C114      1.0  0.57002  0.8273900000000002  0.01219  1.0000
  C   C115      1.0  0.9302000000000002  0.32530000000000003  0.98767  1.0000
  C   C116      1.0  0.07002  0.32739  0.01219  1.0000
  C   C117      1.0  0.48873000000000005  0.82664  0.93129  1.0000
  C   C118      1.0  0.5115  0.8261900000000002  0.06857  1.0000
  C   C119      1.0  0.98873  0.32664  0.93129  1.0000
  C   C120      1.0  0.011500000000000003  0.32618  0.06857  1.0000
  Cr  Cr1       1.0  0.22964  0.8358800000000001  0.74737  1.0000
  Cr  Cr2       1.0  0.77036  0.8358800000000001  0.25263  1.0000
  Cr  Cr3       1.0  0.72964  0.33588000000000007  0.74737  1.0000
  Cr  Cr4       1.0  0.27036000000000004  0.33588000000000007  0.25263  1.0000
  Cr  Cr5       1.0  0.3873900000000001  0.9897200000000002  0.75085  1.0000
  Cr  Cr6       1.0  0.61261  0.9897200000000002  0.24915  1.0000
  Cr  Cr7       1.0  0.8873900000000001  0.48972  0.75085  1.0000
  Cr  Cr8       1.0  0.11261  0.48972  0.24915  1.0000
  Cr  Cr9       1.0  0.38577000000000006  0.6772200000000002  0.74934  1.0000
  Cr  Cr10      1.0  0.61423  0.6772200000000002  0.25066  1.0000
  Cr  Cr11      1.0  0.88577  0.17722000000000002  0.74934  1.0000
  Cr  Cr12      1.0  0.11423  0.17722000000000002  0.25066  1.0000
  H   H1        1.0  0.3725  0.82338  0.97579  1.0000
  H   H2        1.0  0.6277200000000001  0.82669  0.02408  1.0000
  H   H3        1.0  0.8725000000000002  0.32337000000000005  0.9757799999999999  1.0000
  H   H4        1.0  0.12772000000000003  0.3267  0.02408  1.0000
  H   H5        1.0  0.46673000000000003  0.024460000000000003  0.55703  1.0000
  H   H6        1.0  0.4806100000000001  0.02176  0.42644  1.0000
  H   H7        1.0  0.9667300000000001  0.52446  0.55703  1.0000
  H   H8        1.0  0.9806100000000002  0.52176  0.42644  1.0000
  H   H9        1.0  0.09587  0.1382  0.44997000000000004  1.0000
  H   H10       1.0  0.0016399999999999995  0.03661  0.56769  1.0000
  H   H11       1.0  0.59587  0.6382  0.44997000000000004  1.0000
  H   H12       1.0  0.50164  0.5366100000000001  0.56769  1.0000
  H   H13       1.0  0.36069  0.53167  0.55801  1.0000
  H   H14       1.0  0.66928  0.453  0.42323  1.0000
  H   H15       1.0  0.8606900000000002  0.03167  0.55801  1.0000
  H   H16       1.0  0.16928  0.9530000000000001  0.42323  1.0000
  H   H17       1.0  0.3532  0.51517  0.42746000000000006  1.0000
  H   H18       1.0  0.67805  0.42501000000000005  0.55302  1.0000
  H   H19       1.0  0.8532  0.015170000000000003  0.42746000000000006  1.0000
  H   H20       1.0  0.17805  0.9250100000000002  0.55302  1.0000
  H   H21       1.0  0.09969  0.57365  0.43938  1.0000
  H   H22       1.0  0.91201  0.7137800000000001  0.56439  1.0000
  H   H23       1.0  0.59969  0.07365  0.43938  1.0000
  H   H24       1.0  0.41201000000000004  0.21377000000000002  0.56439  1.0000
  H   H25       1.0  0.09527  0.7430800000000001  0.43395  1.0000
  H   H26       1.0  0.8223000000000003  0.78475  0.57133  1.0000
  H   H27       1.0  0.5952700000000002  0.24308000000000002  0.43395  1.0000
  H   H28       1.0  0.3223  0.28474000000000005  0.57133  1.0000
  H   H29       1.0  0.1033  0.75226  0.56091  1.0000
  H   H30       1.0  0.81842  0.8108500000000001  0.44652  1.0000
  H   H31       1.0  0.60331  0.25227  0.56091  1.0000
  H   H32       1.0  0.31842  0.31085  0.44652  1.0000
  H   H33       1.0  0.10793  0.58253  0.5651  1.0000
  H   H34       1.0  0.9077000000000001  0.7387000000000001  0.43815000000000004  1.0000
  H   H35       1.0  0.60793  0.08253  0.5651  1.0000
  H   H36       1.0  0.40770000000000006  0.23870000000000002  0.43815000000000004  1.0000
  H   H37       1.0  0.45213000000000003  0.006410000000000002  0.05712  1.0000
  H   H38       1.0  0.54678  0.008780000000000001  0.9435700000000001  1.0000
  H   H39       1.0  0.9521200000000001  0.5064  0.05712  1.0000
  H   H40       1.0  0.046780000000000016  0.5087900000000001  0.9435700000000001  1.0000
  H   H41       1.0  0.55422  0.6486700000000001  0.9443299999999999  1.0000
  H   H42       1.0  0.44755000000000006  0.64567  0.05438  1.0000
  H   H43       1.0  0.05423  0.14868  0.9443299999999999  1.0000
  H   H44       1.0  0.9475500000000001  0.14565000000000003  0.05437000000000001  1.0000
  H   H45       1.0  0.13521000000000002  0.6378300000000001  0.91936  1.0000
  H   H46       1.0  0.86465  0.63511  0.08142  1.0000
  H   H47       1.0  0.63521  0.13785000000000003  0.91936  1.0000
  H   H48       1.0  0.3646500000000001  0.13514000000000004  0.08142  1.0000
  H   H49       1.0  0.12087000000000005  0.6043700000000001  0.04566  1.0000
  H   H50       1.0  0.8795200000000001  0.60307  0.95498  1.0000
  H   H51       1.0  0.62087  0.10438000000000003  0.04567000000000001  1.0000
  H   H52       1.0  0.37952  0.10308000000000002  0.95498  1.0000
  H   H53       1.0  0.76834  0.8058400000000002  0.04244  1.0000
  H   H54       1.0  0.22898  0.80799  0.95653  1.0000
  H   H55       1.0  0.26837  0.3058600000000001  0.04244  1.0000
  H   H56       1.0  0.7289600000000003  0.30801  0.95649  1.0000
  H   H57       1.0  0.3628400000000001  0.3536  0.05433999999999999  1.0000
  H   H58       1.0  0.6345000000000002  0.35828  0.94387  1.0000
  H   H59       1.0  0.86282  0.8535500000000003  0.05432000000000001  1.0000
  H   H60       1.0  0.13452  0.8582300000000002  0.9438900000000001  1.0000
  H   H61       1.0  0.26965  0.33026  0.91866  1.0000
  H   H62       1.0  0.7225900000000002  0.32902  0.08065  1.0000
  H   H63       1.0  0.76961  0.83025  0.91866  1.0000
  H   H64       1.0  0.22258000000000006  0.8290500000000001  0.08069  1.0000
  O   O1        1.0  0.21430000000000002  0.7090800000000002  0.8275000000000001  1.0000
  O   O2        1.0  0.7857  0.7090800000000002  0.1725  1.0000
  O   O3        1.0  0.7143000000000002  0.20908000000000004  0.8275000000000001  1.0000
  O   O4        1.0  0.2857  0.20908000000000004  0.1725  1.0000
  O   O5        1.0  0.4459000000000001  0.91937  0.6765  1.0000
  O   O6        1.0  0.5541  0.91937  0.3235  1.0000
  O   O7        1.0  0.9459000000000001  0.41937000000000013  0.6765  1.0000
  O   O8        1.0  0.0541  0.41937000000000013  0.3235  1.0000
  O   O9        1.0  0.45666  0.71771  0.66982  1.0000
  O   O10       1.0  0.54334  0.71771  0.33018  1.0000
  O   O11       1.0  0.95666  0.21771000000000001  0.66982  1.0000
  O   O12       1.0  0.04334000000000001  0.21771000000000001  0.33018  1.0000
  O   O13       1.0  0.32059000000000004  0.6257700000000002  0.67293  1.0000
  O   O14       1.0  0.67941  0.6257700000000002  0.32707  1.0000
  O   O15       1.0  0.8205900000000003  0.12577000000000002  0.67293  1.0000
  O   O16       1.0  0.17941000000000001  0.12577000000000002  0.32707  1.0000
  O   O17       1.0  0.33427  0.83428  0.74919  1.0000
  O   O18       1.0  0.66573  0.83428  0.25081000000000003  1.0000
  O   O19       1.0  0.83427  0.3342800000000001  0.74919  1.0000
  O   O20       1.0  0.16573000000000002  0.3342800000000001  0.25081000000000003  1.0000
  O   O21       1.0  0.23619000000000004  0.95839  0.82315  1.0000
  O   O22       1.0  0.7638100000000002  0.95839  0.17685  1.0000
  O   O23       1.0  0.73619  0.45839  0.82315  1.0000
  O   O24       1.0  0.26381  0.45839  0.17685  1.0000
  O   O25       1.0  0.33209000000000005  0.07528  0.8312900000000001  1.0000
  O   O26       1.0  0.6679100000000002  0.07528  0.16871000000000003  1.0000
  O   O27       1.0  0.83209  0.5752800000000001  0.8312900000000001  1.0000
  O   O28       1.0  0.16791  0.5752800000000001  0.16871000000000003  1.0000
  O   O29       1.0  0.44628000000000007  0.9180400000000001  0.8266200000000001  1.0000
  O   O30       1.0  0.55372  0.9180400000000001  0.17338  1.0000
  O   O31       1.0  0.94628  0.41804000000000013  0.8266200000000001  1.0000
  O   O32       1.0  0.053720000000000004  0.41804000000000013  0.17338  1.0000
  O   O33       1.0  0.45708000000000004  0.7162700000000001  0.83176  1.0000
  O   O34       1.0  0.5429200000000001  0.7162700000000001  0.16824  1.0000
  O   O35       1.0  0.9570800000000002  0.21627  0.83176  1.0000
  O   O36       1.0  0.04292  0.21627  0.16824  1.0000
  O   O37       1.0  0.32098  0.62444  0.82304  1.0000
  O   O38       1.0  0.6790200000000001  0.62444  0.17696000000000003  1.0000
  O   O39       1.0  0.82098  0.12444000000000001  0.82304  1.0000
  O   O40       1.0  0.17902000000000007  0.12444000000000001  0.17696000000000003  1.0000
  O   O41       1.0  0.21388  0.7105100000000001  0.66556  1.0000
  O   O42       1.0  0.7861200000000003  0.7105100000000001  0.33444  1.0000
  O   O43       1.0  0.71388  0.21051000000000006  0.66556  1.0000
  O   O44       1.0  0.28612  0.21051000000000006  0.33444  1.0000
  O   O45       1.0  0.2358  0.9597200000000002  0.67304  1.0000
  O   O46       1.0  0.7642  0.9597200000000002  0.32696  1.0000
  O   O47       1.0  0.7358000000000002  0.45972000000000013  0.67304  1.0000
  O   O48       1.0  0.26420000000000005  0.45972000000000013  0.32696  1.0000
  O   O49       1.0  0.33167  0.07672  0.66935  1.0000
  O   O50       1.0  0.66833  0.07672  0.33065  1.0000
  O   O51       1.0  0.83167  0.5767200000000001  0.66935  1.0000
  O   O52       1.0  0.16833000000000004  0.5767200000000001  0.33065  1.0000
  Cl  Cl1       1.0  0.50662  0.4804600000000001  0.42504000000000003  1.0000
  Cl  Cl2       1.0  0.60757  0.65891  0.59641  1.0000
  Cl  Cl3       1.0  0.00662  0.9804600000000002  0.42504000000000003  1.0000
  Cl  Cl4       1.0  0.10757000000000001  0.15891000000000002  0.59641  1.0000
  O   O53       1.0  0.3779200000000001  0.3588000000000001  0.9082600000000001  1.0000
  C   C121      1.0  0.4394300000000001  0.4017600000000001  0.9432600000000001  1.0000
  H   H65       1.0  0.43196  0.49127000000000004  0.96881  1.0000
  H   H66       1.0  0.4815  0.41295  0.90308  1.0000
  H   H67       1.0  0.45836000000000005  0.33316  0.9823300000000001  1.0000
  O   O54       1.0  0.61302  0.35452  0.07934  1.0000
  C   C122      1.0  0.5638900000000001  0.44974000000000003  0.07294  1.0000
  H   H68       1.0  0.5788900000000001  0.5257600000000001  0.10831000000000002  1.0000
  H   H69       1.0  0.5114900000000001  0.41661000000000004  0.09044  1.0000
  H   H70       1.0  0.55871  0.48077000000000003  0.01699  1.0000
  O   O55       1.0  0.8778800000000002  0.8587300000000001  0.9082500000000001  1.0000
  C   C123      1.0  0.9393900000000002  0.90171  0.9432199999999998  1.0000
  H   H71       1.0  0.9319400000000001  0.9912400000000002  0.96875  1.0000
  H   H72       1.0  0.9814600000000002  0.9128500000000002  0.90303  1.0000
  H   H73       1.0  0.95833  0.83313  0.9823  1.0000
  O   O56       1.0  0.11302000000000001  0.8546  0.07937000000000001  1.0000
  C   C124      1.0  0.06387000000000002  0.9497800000000001  0.07285  1.0000
  H   H74       1.0  0.07888000000000002  0.02596  0.10810000000000002  1.0000
  H   H75       1.0  0.011480000000000002  0.9167  0.0904  1.0000
  H   H76       1.0  0.05868000000000001  0.9805800000000001  0.01685  1.0000
