data_image0
_chemical_formula_structural       C16ClH9N2O8Zn2
_chemical_formula_sum              "C16 Cl1 H9 N2 O8 Zn2"
_cell_length_a       7.78536
_cell_length_b       8.568880000000002
_cell_length_c       10.62022
_cell_angle_alpha    91.08453999999999
_cell_angle_beta     85.73957
_cell_angle_gamma    93.65774

_symmetry_space_group_name_H-M    'P 1'
_symmetry_Int_Tables_number       1

loop_
  _symmetry_equiv_pos_as_xyz
  'x,y,z'

loop_
  _atom_site_type_symbol
  _atom_site_label
  _atom_site_symmetry_multiplicity
  _atom_site_fract_x
  _atom_site_fract_y
  _atom_site_fract_z
  _atom_site_occupancy
  C   C1        1.0  0.54574  0.79467  0.4969900000000001  1.0000
  C   C2        1.0  0.45427999999999996  0.20533  0.5034000000000001  1.0000
  C   C3        1.0  0.49878  0.50323  0.2608  1.0000
  C   C4        1.0  0.40121  0.77952  0.87752  1.0000
  C   C5        1.0  0.34596  0.90871  0.94748  1.0000
  C   C6        1.0  0.34229  0.90846  0.07859  1.0000
  C   C7        1.0  0.39217  0.77829  0.14019000000000004  1.0000
  C   C8        1.0  0.4448500000000001  0.64475  0.07067  1.0000
  C   C9        1.0  0.4500500000000002  0.64531  0.93859  1.0000
  C   C10       1.0  0.50778  0.51209  0.87152  1.0000
  C   C11       1.0  0.56504  0.38333000000000006  0.93175  1.0000
  C   C12       1.0  0.55895  0.38373  0.06069000000000001  1.0000
  C   C13       1.0  0.49743  0.51121  0.12878  1.0000
  C   C14       1.0  0.5697700000000001  0.9582  0.49548000000000003  1.0000
  C   C15       1.0  0.43023999999999996  0.041790000000000015  0.50555  1.0000
  C   C16       1.0  0.5024300000000003  0.50317  0.73927  1.0000
  Cl  Cl1       1.0  0.63919  0.21673  0.84919  1.0000
  H   H1        1.0  0.98664  0.61794  0.5946400000000001  1.0000
  H   H2        1.0  0.40717  0.78711  0.7758  1.0000
  H   H3        1.0  0.30788  0.01008  0.8997  1.0000
  H   H4        1.0  0.30199  0.009840000000000002  0.13268000000000002  1.0000
  H   H5        1.0  0.39046999999999993  0.78431  0.24199  1.0000
  H   H6        1.0  0.60054  0.2833700000000002  0.10847000000000001  1.0000
  H   H7        1.0  0.70154  0.009260000000000004  0.4859100000000001  1.0000
  H   H8        1.0  0.29847  0.99072  0.5152  1.0000
  H   H9        1.0  0.013369999999999998  0.38206  0.40537  1.0000
  N   N1        1.0  0.95033  0.45795  0.46625000000000005  1.0000
  N   N2        1.0  0.049670000000000006  0.5420500000000003  0.5337500000000001  1.0000
  O   O1        1.0  0.38925000000000004  0.7385700000000002  0.50828  1.0000
  O   O2        1.0  0.67839  0.71163  0.48665000000000014  1.0000
  O   O3        1.0  0.3554000000000001  0.51347  0.69405  1.0000
  O   O4        1.0  0.64454  0.4865300000000001  0.6724200000000001  1.0000
  O   O5        1.0  0.32161  0.28837  0.51335  1.0000
  O   O6        1.0  0.6107499999999999  0.26143  0.4917200000000001  1.0000
  O   O7        1.0  0.35546  0.51347  0.32758000000000004  1.0000
  O   O8        1.0  0.6446  0.4865300000000001  0.30595  1.0000
  Zn  Zn1       1.0  0.30693  0.51799  0.51444  1.0000
  Zn  Zn2       1.0  0.69307  0.48201  0.4855600000000001  1.0000
