data_image0
_chemical_formula_structural       PO6HCH2P2O5CHCHCH2CH3BaCH2CH3CHCH2PO4PO4BaPCH2OCHCH2PO2HCH2CH3PCHO2HCH2C18H3C12H5C10H2Cl2NO2NO2ClNO2NO2NO2ClNO2NO2
_chemical_formula_sum              "P8 O38 H43 C56 Ba2 Cl4 N7"
_cell_length_a       8.32398
_cell_length_b       13.17238
_cell_length_c       18.90099
_cell_angle_alpha    100.71152
_cell_angle_beta     91.19796
_cell_angle_gamma    98.77204000000002

_symmetry_space_group_name_H-M    'P 1'
_symmetry_Int_Tables_number       1

loop_
  _symmetry_equiv_pos_as_xyz
  'x,y,z'

loop_
  _atom_site_type_symbol
  _atom_site_label
  _atom_site_symmetry_multiplicity
  _atom_site_fract_x
  _atom_site_fract_y
  _atom_site_fract_z
  _atom_site_occupancy
  P   P1        1.0  0.04104  0.39477  0.33633  1.0000
  O   O1        1.0  0.8730900000000003  0.42589  0.32514  1.0000
  O   O2        1.0  0.12242  0.43437000000000003  0.41438  1.0000
  O   O3        1.0  0.6595  0.6271000000000001  0.36881  1.0000
  O   O4        1.0  0.77456  0.53144  0.24716  1.0000
  O   O5        1.0  0.98601  0.2587499999999999  0.32357  1.0000
  O   O6        1.0  0.70906  0.71198  0.24324  1.0000
  H   H1        1.0  0.47976  0.74889  0.27529  1.0000
  C   C1        1.0  0.6815500000000002  0.85976  0.3335  1.0000
  H   H2        1.0  0.7191700000000003  0.8176700000000001  0.37491  1.0000
  H   H3        1.0  0.7891100000000002  0.90974  0.31896  1.0000
  P   P2        1.0  0.67288  0.75403  0.5561  1.0000
  P   P3        1.0  0.12222  0.81848  0.40666  1.0000
  O   O7        1.0  0.8482  0.76819  0.53453  1.0000
  O   O8        1.0  0.08115999999999998  0.68595  0.40481  1.0000
  O   O9        1.0  0.00979999999999998  0.86915  0.46147000000000005  1.0000
  O   O10       1.0  0.6774  0.8001699999999998  0.64966  1.0000
  O   O11       1.0  0.04017000000000002  0.8402900000000001  0.32533  1.0000
  C   C2        1.0  0.15198000000000003  0.8347100000000001  0.27059  1.0000
  H   H4        1.0  0.278  0.8579  0.29332  1.0000
  C   C3        1.0  0.11850999999999998  0.90971  0.22026  1.0000
  H   H5        1.0  0.14471  0.99159  0.25037  1.0000
  C   C4        1.0  0.22909  0.78116  0.61971  1.0000
  H   H6        1.0  0.35513  0.77044  0.60744  1.0000
  H   H7        1.0  0.14337  0.74344  0.57334  1.0000
  C   C5        1.0  0.21827  0.89717  0.63277  1.0000
  H   H8        1.0  0.25337  0.9329300000000003  0.68969  1.0000
  H   H9        1.0  0.29851  0.93711  0.59686  1.0000
  H   H10       1.0  0.09198000000000003  0.9085000000000001  0.62151  1.0000
  Ba  Ba1       1.0  0.85278  0.54834  0.46507  1.0000
  C   C6        1.0  0.9546000000000001  0.22815000000000002  0.38961  1.0000
  H   H11       1.0  0.85617  0.26644  0.41582  1.0000
  H   H12       1.0  0.06476  0.24807  0.4263  1.0000
  C   C7        1.0  0.9050900000000002  0.11028000000000002  0.37503  1.0000
  H   H13       1.0  0.7798400000000002  0.08840000000000002  0.3512  1.0000
  H   H14       1.0  0.9134100000000002  0.0788  0.42505  1.0000
  H   H15       1.0  0.9858  0.07348000000000003  0.33586  1.0000
  C   C8        1.0  0.77873  0.75507  0.6905  1.0000
  H   H16       1.0  0.86718  0.71379  0.65818  1.0000
  C   C9        1.0  0.86733  0.84354  0.74906  1.0000
  H   H17       1.0  0.9458800000000003  0.90143  0.72412  1.0000
  H   H18       1.0  0.77654  0.88477  0.77994  1.0000
  P   P4        1.0  0.14867000000000002  0.60532  0.66368  1.0000
  O   O12       1.0  0.31661  0.57414  0.6749  1.0000
  O   O13       1.0  0.06729  0.5657199999999999  0.58563  1.0000
  O   O14       1.0  0.53021  0.37299  0.6312  1.0000
  O   O15       1.0  0.19021  0.74241  0.68242  1.0000
  P   P5        1.0  0.058960000000000005  0.17924  0.59807  1.0000
  O   O16       1.0  0.61134  0.36629  0.46363  1.0000
  O   O17       1.0  0.10855000000000001  0.31414  0.5952  1.0000
  O   O18       1.0  0.18243000000000004  0.12419000000000001  0.55149  1.0000
  O   O19       1.0  0.11019000000000001  0.16204  0.68488  1.0000
  Ba  Ba2       1.0  0.33706  0.45175  0.53494  1.0000
  P   P6        1.0  0.64232  0.59662  0.27379  1.0000
  C   C10       1.0  0.6054100000000002  0.7844600000000002  0.26629  1.0000
  H   H19       1.0  0.59341  0.82832  0.22236  1.0000
  H   H20       1.0  0.59521  0.91042  0.35677  1.0000
  O   O20       1.0  0.57837  0.6338000000000001  0.53638  1.0000
  C   C11       1.0  0.52067  0.21446000000000004  0.30458  1.0000
  H   H21       1.0  0.60713  0.2888  0.31769  1.0000
  C   C12       1.0  0.56644  0.14757  0.23356  1.0000
  H   H22       1.0  0.54097  0.18461  0.18724  1.0000
  H   H23       1.0  0.69704  0.14147  0.23868999999999999  1.0000
  P   P7        1.0  0.52676  0.23  0.44902  1.0000
  O   O21       1.0  0.34151  0.23185000000000003  0.46551  1.0000
  O   O22       1.0  0.5311  0.15926  0.36013  1.0000
  H   H24       1.0  0.20105  0.90278  0.17522  1.0000
  C   C13       1.0  0.06804000000000003  0.24551  0.73508  1.0000
  H   H25       1.0  0.14325  0.32063  0.7296  1.0000
  H   H26       1.0  0.93732  0.25142  0.72808  1.0000
  C   C14       1.0  0.09988000000000001  0.22738000000000003  0.81093  1.0000
  H   H27       1.0  0.23102  0.22617000000000004  0.82066  1.0000
  H   H28       1.0  0.06185000000000001  0.29085  0.85116  1.0000
  H   H29       1.0  0.03167999999999998  0.15106999999999998  0.81795  1.0000
  P   P8        1.0  0.5516400000000001  0.3879000000000001  0.72286  1.0000
  C   C15       1.0  0.54529  0.18831  0.68973  1.0000
  H   H30       1.0  0.67447  0.21545  0.6802  1.0000
  O   O23       1.0  0.42149  0.45458000000000004  0.75199  1.0000
  O   O24       1.0  0.4783500000000001  0.26275  0.73838  1.0000
  H   H31       1.0  0.47232  0.17108  0.63786  1.0000
  C   C16       1.0  0.53502  0.08746000000000002  0.71901  1.0000
  H   H32       1.0  0.54238  0.020889999999999968  0.67429  1.0000
  H   H33       1.0  0.41882000000000014  0.07339999999999998  0.74587  1.0000
  C   C17       1.0  0.99851  0.45728  0.04742  1.0000
  C   C18       1.0  0.8980900000000003  0.40671000000000007  0.09327  1.0000
  C   C19       1.0  0.73245  0.37409  0.07308  1.0000
  C   C20       1.0  0.67017  0.38727  0.00844  1.0000
  C   C21       1.0  0.77239  0.42534000000000005  0.95802  1.0000
  C   C22       1.0  0.9359800000000004  0.46485  0.9783  1.0000
  C   C23       1.0  0.7121499999999998  0.41796999999999995  0.8872899999999999  1.0000
  C   C24       1.0  0.81361  0.4575  0.83489  1.0000
  C   C25       1.0  0.97653  0.50759  0.85764  1.0000
  C   C26       1.0  0.036650000000000044  0.50919  0.9295  1.0000
  C   C27       1.0  0.76176  0.4479600000000001  0.76108  1.0000
  C   C28       1.0  0.87025  0.48841  0.71289  1.0000
  C   C29       1.0  0.02591000000000004  0.5452  0.73485  1.0000
  C   C30       1.0  0.08098000000000002  0.55427  0.80895  1.0000
  C   C31       1.0  0.16188  0.49509000000000003  0.06923  1.0000
  C   C32       1.0  0.22283000000000003  0.4866199999999999  0.13909  1.0000
  C   C33       1.0  0.11857  0.43708  0.18653  1.0000
  C   C34       1.0  0.9638800000000001  0.38782  0.15774  1.0000
  H   H34       1.0  0.64534  0.3383  0.1058  1.0000
  H   H35       1.0  0.54044  0.36295000000000005  0.99792  1.0000
  H   H36       1.0  0.8286900000000003  0.48019  0.65719  1.0000
  C   C35       1.0  0.23769  0.60707  0.83631  1.0000
  C   C36       1.0  0.29822  0.60383  0.90633  1.0000
  C   C37       1.0  0.19853000000000004  0.55298  0.95268  1.0000
  C   C38       1.0  0.26156  0.545  0.02218  1.0000
  C   C39       1.0  0.46002  0.64688  0.92992  1.0000
  C   C40       1.0  0.5228100000000002  0.63707  0.9975599999999999  1.0000
  C   C41       1.0  0.42458  0.58608  0.04422  1.0000
  C   C42       1.0  0.38611999999999996  0.52974  0.16151  1.0000
  C   C43       1.0  0.4864800000000001  0.57641  0.11251999999999998  1.0000
  C   C44       1.0  0.44107  0.52765  0.23292  1.0000
  C   C45       1.0  0.33554  0.48188  0.27941  1.0000
  C   C46       1.0  0.1723  0.44004  0.2604  1.0000
  H   H37       1.0  0.31650000000000006  0.64856  0.80288  1.0000
  H   H38       1.0  0.53974  0.6858200000000001  0.8952100000000001  1.0000
  H   H39       1.0  0.6488100000000003  0.66944  0.01335  1.0000
  H   H40       1.0  0.61364  0.60548  0.12656  1.0000
  H   H41       1.0  0.38148000000000004  0.48268  0.33343  1.0000
  C   C47       1.0  0.74984  0.18042  0.53957  1.0000
  C   C48       1.0  0.4313000000000001  0.80907  0.46857999999999994  1.0000
  C   C49       1.0  0.39002  0.98056  0.45093  1.0000
  C   C50       1.0  0.33520000000000005  0.8740400000000003  0.44305  1.0000
  C   C51       1.0  0.5763300000000002  0.84962  0.51062  1.0000
  C   C52       1.0  0.63363  0.96188  0.52191  1.0000
  C   C53       1.0  0.53995  0.02882  0.49112  1.0000
  C   C54       1.0  0.6021  0.13976  0.5016  1.0000
  C   C55       1.0  0.84646  0.11679  0.56497  1.0000
  C   C56       1.0  0.7862400000000003  0.008720000000000026  0.55884  1.0000
  H   H42       1.0  0.8618400000000002  0.9615800000000001  0.58078  1.0000
  H   H43       1.0  0.79732  0.2628  0.54431  1.0000
  Cl  Cl1       1.0  0.6505100000000001  0.66718  0.73338  1.0000
  Cl  Cl2       1.0  0.9884900000000001  0.7983900000000002  0.81194  1.0000
  N   N1        1.0  0.35811000000000004  0.23828  0.298  1.0000
  O   O25       1.0  0.26226  0.20237  0.24058  1.0000
  O   O26       1.0  0.31343  0.30338  0.35052  1.0000
  N   N2        1.0  0.4781  0.04212000000000001  0.21683000000000002  1.0000
  O   O27       1.0  0.4587899999999999  0.9956600000000001  0.14946  1.0000
  O   O28       1.0  0.47536  0.98531  0.26569  1.0000
  Cl  Cl3       1.0  0.69748  0.09403000000000002  0.78297  1.0000
  N   N3        1.0  0.13808000000000006  0.7288300000000001  0.22897000000000003  1.0000
  O   O29       1.0  0.06084000000000008  0.6501500000000001  0.25316  1.0000
  O   O30       1.0  0.21655000000000005  0.71198  0.1703  1.0000
  N   N4        1.0  0.55282  0.35906  0.86989  1.0000
  O   O31       1.0  0.42837  0.40735  0.8817  1.0000
  O   O32       1.0  0.5326200000000001  0.25985  0.87251  1.0000
  N   N5        1.0  0.87882  0.30798  0.18867  1.0000
  O   O33       1.0  0.9129  0.21365999999999996  0.17126  1.0000
  O   O34       1.0  0.7402000000000002  0.32332  0.21416  1.0000
  Cl  Cl4       1.0  0.2628900000000001  0.038679999999999985  0.40047  1.0000
  N   N6        1.0  0.3867100000000001  0.69939  0.44454999999999995  1.0000
  O   O35       1.0  0.37112  0.66617  0.37555  1.0000
  O   O36       1.0  0.30367  0.64405  0.48545000000000005  1.0000
  N   N7        1.0  0.9518  0.88715  0.18934  1.0000
  O   O37       1.0  0.9045100000000003  0.80176  0.14214  1.0000
  O   O38       1.0  0.86319  0.96134  0.19662  1.0000
