data_image0
_chemical_formula_structural       O2CO2CO2CO2CO2CO2CCr3OC2H3C3H2C3H2CHCHC2HCHC2HCHC2HCHC2HCHC3HC3HC2HCHC3HC3HCO2CO2CO2CO2CO2CO2CCr3ONO2NO2F2NO2NO2F2NO2
_chemical_formula_sum              "O36 C50 Cr6 H23 N5 F4"
_cell_length_a       10.92519
_cell_length_b       10.90398
_cell_length_c       18.836670000000005
_cell_angle_alpha    90.07167
_cell_angle_beta     89.69206000000001
_cell_angle_gamma    60.18446999999999

_space_group_name_H-M_alt    "P 1"
_space_group_IT_number       1

loop_
  _space_group_symop_operation_xyz
  'x, y, z'

loop_
  _atom_site_type_symbol
  _atom_site_label
  _atom_site_symmetry_multiplicity
  _atom_site_fract_x
  _atom_site_fract_y
  _atom_site_fract_z
  _atom_site_occupancy
  O   O1        1.0  0.50743  0.25557  0.5814200000000002  1.0000
  O   O2        1.0  0.28019  0.52739  0.57891  1.0000
  C   C1        1.0  0.23334999999999997  0.6478500000000001  0.6088400000000002  1.0000
  O   O3        1.0  0.26031  0.73974  0.58458  1.0000
  O   O4        1.0  0.53225  0.69515  0.57383  1.0000
  C   C2        1.0  0.65062  0.6164  0.60367  1.0000
  O   O5        1.0  0.7449300000000001  0.50343  0.57638  1.0000
  O   O6        1.0  0.69925  0.27639  0.57195  1.0000
  C   C3        1.0  0.62619  0.23136  0.6040600000000002  1.0000
  O   O7        1.0  0.49902  0.2564  0.41985  1.0000
  O   O8        1.0  0.2724  0.52816  0.42914  1.0000
  C   C4        1.0  0.22024  0.64902  0.40207  1.0000
  O   O9        1.0  0.25191  0.74057  0.4230200000000001  1.0000
  O   O10       1.0  0.5244599999999999  0.6959200000000001  0.42406  1.0000
  C   C5        1.0  0.64168  0.62419  0.39259  1.0000
  O   O11       1.0  0.73653  0.50426  0.41481  1.0000
  O   O12       1.0  0.69146  0.27716  0.42218  1.0000
  C   C6        1.0  0.61936  0.22650000000000003  0.39572  1.0000
  Cr  Cr1       1.0  0.39293  0.3979  0.50223  1.0000
  Cr  Cr2       1.0  0.39823999999999987  0.7086  0.50126  1.0000
  Cr  Cr3       1.0  0.7088  0.3934700000000001  0.49646  1.0000
  O   O13       1.0  0.4999899999999999  0.49999  0.49998  1.0000
  C   C7        1.0  0.5321899999999998  0.73249  0.7982100000000002  1.0000
  C   C8        1.0  0.5191899999999999  0.70472  0.71827  1.0000
  H   H1        1.0  0.4441200000000001  0.80557  0.6918700000000001  1.0000
  H   H2        1.0  0.7264299999999999  0.8459700000000001  0.7875300000000002  1.0000
  H   H3        1.0  0.64952  0.84356  0.67452  1.0000
  C   C9        1.0  0.7619699999999999  0.73572  0.77018  1.0000
  C   C10       1.0  0.76629  0.50609  0.7973100000000001  1.0000
  C   C11       1.0  0.6927199999999999  0.66646  0.81594  1.0000
  H   H4        1.0  0.8778900000000001  0.44878000000000007  0.81511  1.0000
  H   H5        1.0  0.7136200000000001  0.4552300000000001  0.8257  1.0000
  C   C12       1.0  0.6668600000000002  0.63576  0.68028  1.0000
  C   C13       1.0  0.7285900000000001  0.73465  0.69112  1.0000
  C   C14       1.0  0.76076  0.48701  0.71701  1.0000
  H   H6        1.0  0.7082600000000002  0.42311  0.7085700000000003  1.0000
  H   H7        1.0  0.8781399999999999  0.67674  0.77782  1.0000
  C   C15       1.0  0.78957  0.13159000000000004  0.7077400000000001  1.0000
  H   H8        1.0  0.88141  0.0927  0.67358  1.0000
  C   C16       1.0  0.80628  0.11636000000000002  0.7813300000000001  1.0000
  H   H9        1.0  0.91112  0.06213  0.80311  1.0000
  C   C17       1.0  0.68764  0.16225  0.82578  1.0000
  C   C18       1.0  0.5527000000000001  0.23178  0.79665  1.0000
  H   H10       1.0  0.45939  0.26785  0.82969  1.0000
  C   C19       1.0  0.53666  0.2435  0.72417  1.0000
  H   H11       1.0  0.43134000000000006  0.29209  0.70346  1.0000
  C   C20       1.0  0.6539799999999999  0.19384  0.67888  1.0000
  C   C21       1.0  0.19091  0.55474  0.72064  1.0000
  H   H12       1.0  0.21064  0.4593  0.69366  1.0000
  C   C22       1.0  0.17849000000000007  0.56214  0.79433  1.0000
  H   H13       1.0  0.18039999999999998  0.47514000000000006  0.8229800000000002  1.0000
  C   C23       1.0  0.16065000000000004  0.68277  0.8301700000000002  1.0000
  C   C24       1.0  0.15479999999999997  0.79508  0.79127  1.0000
  H   H14       1.0  0.14184999999999995  0.88944  0.81716  1.0000
  C   C25       1.0  0.15923000000000004  0.79063  0.71811  1.0000
  H   H15       1.0  0.15415  0.87985  0.6902  1.0000
  C   C26       1.0  0.18244999999999995  0.6682600000000001  0.6820800000000001  1.0000
  C   C27       1.0  0.7838600000000002  0.61493  0.29005  1.0000
  H   H16       1.0  0.8788299999999999  0.5642900000000001  0.32173000000000007  1.0000
  C   C28       1.0  0.79485  0.62448  0.21777  1.0000
  H   H17       1.0  0.89962  0.5850500000000001  0.19568  1.0000
  C   C29       1.0  0.6740700000000002  0.68273  0.17439  1.0000
  C   C30       1.0  0.53888  0.7398900000000002  0.20511000000000004  1.0000
  C   C31       1.0  0.5292100000000001  0.73063  0.27873000000000003  1.0000
  H   H18       1.0  0.42644  0.76628  0.30262000000000006  1.0000
  C   C32       1.0  0.6517200000000001  0.66459  0.32062  1.0000
  C   C33       1.0  0.58746  0.10054  0.29453  1.0000
  C   C34       1.0  0.58503  0.0917  0.22128  1.0000
  H   H19       1.0  0.534  0.03802  0.19781  1.0000
  C   C35       1.0  0.65551  0.1428  0.17868  1.0000
  C   C36       1.0  0.7319  0.20001  0.20913  1.0000
  H   H20       1.0  0.79108  0.23461  0.1766  1.0000
  C   C37       1.0  0.73272  0.21218000000000004  0.28195  1.0000
  H   H21       1.0  0.78639  0.26425  0.30413  1.0000
  C   C38       1.0  0.6563600000000003  0.16775000000000004  0.32487  1.0000
  C   C39       1.0  0.07669999999999999  0.79798  0.30469  1.0000
  C   C40       1.0  0.05525000000000002  0.80998  0.23273000000000002  1.0000
  H   H22       1.0  0.99276  0.9152400000000002  0.21111000000000002  1.0000
  C   C41       1.0  0.11598  0.68891  0.18884  1.0000
  C   C42       1.0  0.18687  0.55303  0.21818000000000004  1.0000
  C   C43       1.0  0.20432000000000003  0.54198  0.29119  1.0000
  H   H23       1.0  0.26721999999999996  0.43748000000000004  0.31362000000000007  1.0000
  C   C44       1.0  0.15739000000000003  0.66423  0.33349  1.0000
  O   O14       1.0  0.08948999999999994  0.82561  0.9306100000000002  1.0000
  O   O15       1.0  0.81837  0.05454  0.9298800000000002  1.0000
  C   C45       1.0  0.70181  0.10366  0.89665  1.0000
  O   O16       1.0  0.60587  0.07731  0.91553  1.0000
  O   O17       1.0  0.6464399999999999  0.8067  0.9175700000000001  1.0000
  C   C46       1.0  0.71879  0.68417  0.89072  1.0000
  O   O18       1.0  0.8372000000000002  0.59329  0.91525  1.0000
  O   O19       1.0  0.06533  0.63537  0.9315900000000001  1.0000
  C   C47       1.0  0.11428000000000005  0.70891  0.90414  1.0000
  O   O20       1.0  0.06829999999999999  0.82879  0.09186  1.0000
  O   O21       1.0  0.79873  0.05748000000000001  0.07937000000000001  1.0000
  C   C48       1.0  0.67543  0.10418  0.10486  1.0000
  O   O22       1.0  0.58468  0.08048000000000001  0.07679000000000001  1.0000
  O   O23       1.0  0.62679  0.80964  0.06705  1.0000
  C   C49       1.0  0.69886  0.69229  0.09929000000000003  1.0000
  O   O24       1.0  0.81601  0.5964600000000001  0.0765  1.0000
  O   O25       1.0  0.04567999999999997  0.6383100000000002  0.08107  1.0000
  C   C50       1.0  0.08683000000000002  0.71266  0.11435000000000001  1.0000
  Cr  Cr4       1.0  0.93762  0.9385400000000002  0.007640000000000001  1.0000
  Cr  Cr5       1.0  0.62515  0.9374500000000001  0.99452  1.0000
  Cr  Cr6       1.0  0.9379900000000001  0.62508  0.00119  1.0000
  O   O26       1.0  0.8335900000000002  0.83369  0.00112  1.0000
  N   N1        1.0  0.45040000000000013  0.88516  0.81405  1.0000
  O   O27       1.0  0.4652099999999999  0.97663  0.77607  1.0000
  O   O28       1.0  0.35525000000000007  0.93143  0.86419  1.0000
  N   N2        1.0  0.90479  0.4057200000000001  0.68777  1.0000
  O   O29       1.0  0.9986500000000001  0.44209  0.7013700000000002  1.0000
  O   O30       1.0  0.94523  0.2854900000000001  0.6560200000000002  1.0000
  F   F1        1.0  0.84796  0.69454  0.64975  1.0000
  F   F2        1.0  0.4773399999999999  0.66476  0.83917  1.0000
  N   N3        1.0  0.41284000000000004  0.80001  0.16302  1.0000
  O   O31       1.0  0.41250999999999993  0.74672  0.10122  1.0000
  O   O32       1.0  0.29386000000000007  0.89781  0.18975  1.0000
  N   N4        1.0  0.51931  0.04236  0.33717  1.0000
  O   O33       1.0  0.40375000000000005  0.04801  0.31546  1.0000
  O   O34       1.0  0.5774099999999998  0.9752600000000001  0.39553  1.0000
  F   F3        1.0  0.02534999999999996  0.91653  0.34539  1.0000
  F   F4        1.0  0.4642800000000001  0.61486  0.71183  1.0000
  N   N5        1.0  0.24840000000000004  0.42716  0.1751  1.0000
  O   O35       1.0  0.31509  0.42097  0.11656  1.0000
  O   O36       1.0  0.25322000000000006  0.31271  0.19865000000000002  1.0000
