data_image0
_chemical_formula_structural       O4C2O4C2O2V2C6H2C2H2C8H4C36H18O4C2O4C2O2V2NO2NO2F2NO2NO2
_chemical_formula_sum              "O28 C60 V4 H26 N4 F2"
_cell_length_a       21.64757
_cell_length_b       7.07074
_cell_length_c       14.8643
_cell_angle_alpha    89.92925999999999
_cell_angle_beta     106.19578
_cell_angle_gamma    89.94502

_symmetry_space_group_name_H-M    'P 1'
_symmetry_Int_Tables_number       1

loop_
  _symmetry_equiv_pos_as_xyz
  'x,y,z'

loop_
  _atom_site_type_symbol
  _atom_site_label
  _atom_site_symmetry_multiplicity
  _atom_site_fract_x
  _atom_site_fract_y
  _atom_site_fract_z
  _atom_site_occupancy
  O   O1        1.0  0.58585  0.50577  0.00213  1.0000
  O   O2        1.0  0.41415000000000013  0.005769999999999999  0.99787  1.0000
  O   O3        1.0  0.46753  0.17356  0.86197  1.0000
  O   O4        1.0  0.5324700000000001  0.67356  0.13803  1.0000
  C   C1        1.0  0.4558800000000001  0.34463999999999995  0.82524  1.0000
  C   C2        1.0  0.5443  0.84437  0.17472000000000004  1.0000
  O   O5        1.0  0.58869  0.1759  0.99325  1.0000
  O   O6        1.0  0.41131000000000006  0.6758999999999997  0.00675  1.0000
  O   O7        1.0  0.53617  0.00795  0.13009  1.0000
  O   O8        1.0  0.4638300000000001  0.50795  0.86991  1.0000
  C   C3        1.0  0.61509  0.3445699999999999  0.99798  1.0000
  C   C4        1.0  0.38496000000000014  0.8447399999999999  0.00227  1.0000
  O   O9        1.0  0.48263000000000006  0.33996999999999994  0.04474  1.0000
  O   O10       1.0  0.51737  0.83997  0.95526  1.0000
  V   V1        1.0  0.50322  0.0642  0.9917  1.0000
  V   V2        1.0  0.49678000000000005  0.5642  0.0083  1.0000
  C   C5        1.0  0.27578000000000014  0.99924  0.9524300000000002  1.0000
  C   C6        1.0  0.7245100000000001  0.49643  0.04985  1.0000
  C   C7        1.0  0.31589  0.8527599999999997  0.99902  1.0000
  C   C8        1.0  0.6842600000000001  0.35214  0.0017900000000000004  1.0000
  C   C9        1.0  0.28709  0.70837  0.03898  1.0000
  C   C10       1.0  0.71308  0.20897999999999997  0.96115  1.0000
  H   H1        1.0  0.31556  0.59019  0.07432000000000001  1.0000
  H   H2        1.0  0.6845900000000003  0.09182999999999997  0.9250500000000003  1.0000
  C   C11       1.0  0.22214000000000003  0.72166  0.03947  1.0000
  C   C12       1.0  0.7780600000000001  0.22255  0.96085  1.0000
  H   H3        1.0  0.20282000000000006  0.61542  0.07634  1.0000
  H   H4        1.0  0.79731  0.11759999999999998  0.92322  1.0000
  C   C13       1.0  0.18351000000000006  0.87649  0.9978300000000001  1.0000
  C   C14       1.0  0.81671  0.37635  0.00337  1.0000
  C   C15       1.0  0.21121000000000004  0.009689999999999997  0.9513300000000001  1.0000
  C   C16       1.0  0.7891900000000001  0.50682  0.05162  1.0000
  C   C17       1.0  0.2143400000000001  0.21962  0.9602100000000002  1.0000
  C   C18       1.0  0.78651  0.71749  0.04662  1.0000
  C   C19       1.0  0.2846  0.2088  0.96011  1.0000
  C   C20       1.0  0.7159800000000001  0.70625  0.04533  1.0000
  H   H5        1.0  0.3187900000000001  0.2517  0.02771  1.0000
  H   H6        1.0  0.68232  0.7537199999999998  0.97806  1.0000
  H   H7        1.0  0.29463000000000006  0.27067  0.89682  1.0000
  H   H8        1.0  0.70546  0.76347  0.10914000000000003  1.0000
  C   C21       1.0  0.9270400000000001  0.88711  0.72353  1.0000
  C   C22       1.0  0.07361  0.38138  0.27596  1.0000
  C   C23       1.0  0.5718500000000001  0.85208  0.27629  1.0000
  C   C24       1.0  0.4286100000000001  0.35337  0.72359  1.0000
  C   C25       1.0  0.9368400000000001  0.93687  0.5675600000000002  1.0000
  C   C26       1.0  0.06327  0.31853  0.43045  1.0000
  C   C27       1.0  0.9649700000000002  0.9257  0.6637500000000001  1.0000
  C   C28       1.0  0.035150000000000015  0.3424299999999999  0.3349  1.0000
  C   C29       1.0  0.8607600000000001  0.85949  0.6872  1.0000
  C   C30       1.0  0.14033000000000004  0.39763  0.31239  1.0000
  C   C31       1.0  0.83054  0.87396  0.58972  1.0000
  C   C32       1.0  0.17041000000000003  0.37226  0.40927  1.0000
  C   C33       1.0  0.8701600000000002  0.91368  0.53028  1.0000
  C   C34       1.0  0.13029000000000004  0.33123  0.4678200000000001  1.0000
  C   C35       1.0  0.76246  0.8565199999999998  0.54976  1.0000
  C   C36       1.0  0.23869000000000007  0.3813199999999999  0.44949000000000006  1.0000
  C   C37       1.0  0.7353  0.87935  0.45105000000000006  1.0000
  C   C38       1.0  0.26543  0.3496899999999999  0.54762  1.0000
  C   C39       1.0  0.7770100000000001  0.92085  0.39546  1.0000
  C   C40       1.0  0.22328000000000003  0.30512  0.60202  1.0000
  C   C41       1.0  0.8429500000000001  0.9355999999999998  0.43433  1.0000
  C   C42       1.0  0.15722  0.29817  0.56293  1.0000
  C   C43       1.0  0.7205900000000001  0.81806  0.60517  1.0000
  C   C44       1.0  0.28114  0.4199599999999999  0.39499  1.0000
  C   C45       1.0  0.65439  0.8137899999999998  0.56691  1.0000
  C   C46       1.0  0.34736000000000006  0.41703  0.43357  1.0000
  C   C47       1.0  0.6263000000000001  0.8437699999999999  0.47109  1.0000
  C   C48       1.0  0.37489000000000006  0.37979  0.52892  1.0000
  C   C49       1.0  0.6671200000000002  0.86428  0.41125  1.0000
  C   C50       1.0  0.33363999999999994  0.35854  0.58803  1.0000
  C   C51       1.0  0.5582000000000003  0.84495  0.4329  1.0000
  C   C52       1.0  0.4429000000000001  0.37113  0.5674900000000003  1.0000
  C   C53       1.0  0.53207  0.8453  0.33538000000000007  1.0000
  C   C54       1.0  0.46871  0.3601299999999999  0.66495  1.0000
  C   C55       1.0  0.63831  0.86441  0.31341  1.0000
  C   C56       1.0  0.36209  0.35089  0.68589  1.0000
  H   H9        1.0  0.8728700000000001  0.96874  0.38884  1.0000
  H   H10       1.0  0.1268100000000001  0.26273  0.6073600000000002  1.0000
  H   H11       1.0  0.6661400000000001  0.86611  0.26357  1.0000
  H   H12       1.0  0.33399  0.34861  0.73541  1.0000
  H   H13       1.0  0.48037000000000024  0.84239  0.3050700000000001  1.0000
  H   H14       1.0  0.52038  0.35499  0.69544  1.0000
  H   H15       1.0  0.62569  0.7797599999999998  0.6136600000000002  1.0000
  H   H16       1.0  0.37661  0.45091  0.38755000000000006  1.0000
  H   H17       1.0  0.9670900000000001  0.9680699999999998  0.52232  1.0000
  H   H18       1.0  0.03265000000000001  0.2866799999999999  0.47508000000000006  1.0000
  H   H19       1.0  0.0162  0.94942  0.69174  1.0000
  H   H20       1.0  0.9835200000000001  0.32814  0.30668  1.0000
  H   H21       1.0  0.8342600000000002  0.83414  0.7375200000000002  1.0000
  H   H22       1.0  0.1671  0.42523  0.26262  1.0000
  H   H23       1.0  0.7601500000000001  0.94871  0.32143  1.0000
  H   H24       1.0  0.23999000000000012  0.2686  0.6750700000000001  1.0000
  H   H25       1.0  0.7372600000000001  0.7907299999999998  0.6792500000000002  1.0000
  H   H26       1.0  0.26491  0.4524  0.32138  1.0000
  O   O11       1.0  0.03608  0.23127  0.13012  1.0000
  O   O12       1.0  0.9639200000000002  0.73127  0.86988  1.0000
  O   O13       1.0  0.9113  0.55897  0.00675  1.0000
  O   O14       1.0  0.0887  0.05896999999999999  0.99325  1.0000
  C   C57       1.0  0.88479  0.3900199999999999  0.00153  1.0000
  C   C58       1.0  0.11531000000000002  0.88994  0.99904  1.0000
  O   O15       1.0  0.03245  0.56114  0.13804  1.0000
  O   O16       1.0  0.96755  0.06114  0.86196  1.0000
  O   O17       1.0  0.08587000000000003  0.72891  0.00213  1.0000
  O   O18       1.0  0.9141300000000001  0.22890999999999995  0.99787  1.0000
  C   C59       1.0  0.04499000000000001  0.39224  0.17489  1.0000
  C   C60       1.0  0.9552500000000003  0.8928  0.82496  1.0000
  O   O19       1.0  0.01732000000000003  0.39465  0.9552700000000001  1.0000
  O   O20       1.0  0.9826800000000001  0.89465  0.044730000000000006  1.0000
  V   V3        1.0  0.9967800000000001  0.67049  0.0083  1.0000
  V   V4        1.0  0.0032199999999999863  0.17049  0.9917  1.0000
  N   N1        1.0  0.5149200000000002  0.85113  0.49115  1.0000
  O   O21       1.0  0.45685000000000003  0.78447  0.45992  1.0000
  O   O22       1.0  0.5283800000000002  0.95464  0.5664300000000001  1.0000
  N   N2        1.0  0.48636  0.36751  0.50953  1.0000
  O   O23       1.0  0.54464  0.43195999999999996  0.54198  1.0000
  O   O24       1.0  0.47265000000000007  0.26833  0.4328300000000001  1.0000
  F   F1        1.0  0.20605000000000004  0.28118  0.04449  1.0000
  F   F2        1.0  0.79566  0.78616  0.96402  1.0000
  N   N3        1.0  0.17258  0.31589  0.87847  1.0000
  O   O25       1.0  0.16987000000000005  0.25957  0.7941900000000002  1.0000
  O   O26       1.0  0.13495  0.45197  0.88943  1.0000
  N   N4        1.0  0.8277800000000001  0.8077799999999998  0.13055  1.0000
  O   O27       1.0  0.82889  0.7469099999999999  0.21369000000000005  1.0000
  O   O28       1.0  0.8650700000000001  0.94713  0.12262000000000003  1.0000
