data_image0
_chemical_formula_structural       O8C4O8C4O4V4C4H12C52H16OCH3OCH3OCH3OCH3
_chemical_formula_sum              "O24 C68 V4 H40"
_cell_length_a       7.24061
_cell_length_b       14.82881
_cell_length_c       22.54383
_cell_angle_alpha    89.99973
_cell_angle_beta     89.99802
_cell_angle_gamma    88.68616

_symmetry_space_group_name_H-M    'P 1'
_symmetry_Int_Tables_number       1

loop_
  _symmetry_equiv_pos_as_xyz
  'x,y,z'

loop_
  _atom_site_type_symbol
  _atom_site_label
  _atom_site_symmetry_multiplicity
  _atom_site_fract_x
  _atom_site_fract_y
  _atom_site_fract_z
  _atom_site_occupancy
  O   O1        1.0  0.39081  0.84481  0.44734000000000007  1.0000
  O   O2        1.0  0.10918999999999998  0.15518999999999994  0.94734  1.0000
  O   O3        1.0  0.89081  0.6551899999999998  0.55266  1.0000
  O   O4        1.0  0.60919  0.3448099999999999  0.052660000000000005  1.0000
  O   O5        1.0  0.72055  0.65582  0.4404200000000001  1.0000
  O   O6        1.0  0.77945  0.34418  0.9404200000000003  1.0000
  O   O7        1.0  0.22055  0.8441799999999998  0.55958  1.0000
  O   O8        1.0  0.27945  0.15582  0.05958  1.0000
  C   C1        1.0  0.55407  0.62673  0.4260400000000001  1.0000
  C   C2        1.0  0.94593  0.37327  0.92604  1.0000
  C   C3        1.0  0.05034000000000001  0.87308  0.57392  1.0000
  C   C4        1.0  0.44965  0.12692  0.07392  1.0000
  O   O9        1.0  0.7205299999999998  0.84413  0.4404200000000001  1.0000
  O   O10       1.0  0.77947  0.15587  0.9404200000000003  1.0000
  O   O11       1.0  0.22053000000000003  0.6558699999999998  0.55958  1.0000
  O   O12       1.0  0.27947  0.3441299999999999  0.05958  1.0000
  O   O13       1.0  0.89083  0.84481  0.55266  1.0000
  O   O14       1.0  0.6091699999999998  0.15518999999999994  0.052660000000000005  1.0000
  O   O15       1.0  0.3908299999999999  0.6551899999999998  0.44734000000000007  1.0000
  O   O16       1.0  0.10916999999999998  0.3448099999999999  0.94734  1.0000
  C   C5        1.0  0.55051  0.87315  0.42621000000000003  1.0000
  C   C6        1.0  0.9495  0.12685  0.92621  1.0000
  C   C7        1.0  0.05396000000000001  0.62682  0.5739800000000002  1.0000
  C   C8        1.0  0.4460399999999999  0.37318  0.07398  1.0000
  O   O17       1.0  0.55731  0.74998  0.53682  1.0000
  O   O18       1.0  0.9426899999999998  0.25002  0.03682  1.0000
  O   O19       1.0  0.05731000000000001  0.7500199999999998  0.46318  1.0000
  O   O20       1.0  0.44269  0.24997999999999995  0.9631800000000001  1.0000
  V   V1        1.0  0.83216  0.74998  0.49317  1.0000
  V   V2        1.0  0.6678399999999998  0.25002  0.99317  1.0000
  V   V3        1.0  0.33216  0.7500199999999998  0.5068300000000001  1.0000
  V   V4        1.0  0.16784  0.24997999999999995  0.00683  1.0000
  C   C9        1.0  0.8344399999999997  0.59737  0.85545  1.0000
  C   C10       1.0  0.6655499999999998  0.40261999999999987  0.35545000000000004  1.0000
  C   C11       1.0  0.5426999999999997  0.89553  0.13612  1.0000
  C   C12       1.0  0.9569  0.10443999999999998  0.63611  1.0000
  H   H1        1.0  0.8058299999999998  0.54038  0.9421  1.0000
  H   H2        1.0  0.69415  0.4596099999999999  0.4421100000000001  1.0000
  H   H3        1.0  0.51531  0.95222  0.0491  1.0000
  H   H4        1.0  0.98429  0.04775  0.5491000000000001  1.0000
  H   H5        1.0  0.80607  0.71818  0.7694900000000002  1.0000
  H   H6        1.0  0.6940199999999997  0.28182999999999997  0.26948  1.0000
  H   H7        1.0  0.60489  0.77204  0.21874  1.0000
  H   H8        1.0  0.8945099999999998  0.22789999999999996  0.71874  1.0000
  H   H9        1.0  0.7658900000000001  0.6599899999999997  0.8684600000000001  1.0000
  H   H10       1.0  0.73408  0.34  0.36847  1.0000
  H   H11       1.0  0.5762099999999998  0.829  0.11885000000000001  1.0000
  H   H12       1.0  0.9232100000000001  0.17095  0.61885  1.0000
  C   C13       1.0  0.9439499999999997  0.4474199999999999  0.8823000000000001  1.0000
  C   C14       1.0  0.55605  0.55257  0.38231  1.0000
  C   C15       1.0  0.46651  0.05244999999999998  0.11699000000000002  1.0000
  C   C16       1.0  0.03345  0.9475599999999998  0.6169900000000001  1.0000
  C   C17       1.0  0.13326  0.46912  0.5978500000000001  1.0000
  C   C18       1.0  0.36664  0.53086  0.09787000000000003  1.0000
  C   C19       1.0  0.50098  0.03485  0.40789  1.0000
  C   C20       1.0  0.9994399999999998  0.96518  0.90789  1.0000
  C   C21       1.0  0.15441999999999995  0.39552  0.63687  1.0000
  C   C22       1.0  0.34539999999999993  0.6044499999999999  0.1369  1.0000
  C   C23       1.0  0.47355  0.11052999999999999  0.37099  1.0000
  C   C24       1.0  0.02705  0.8895299999999998  0.87099  1.0000
  C   C25       1.0  0.10691  0.407  0.6965100000000001  1.0000
  C   C26       1.0  0.39293  0.59297  0.19653000000000007  1.0000
  C   C27       1.0  0.47005999999999987  0.09821  0.30947  1.0000
  C   C28       1.0  0.03038  0.90183  0.80947  1.0000
  C   C29       1.0  0.028910000000000005  0.48889  0.71818  1.0000
  C   C30       1.0  0.4710299999999999  0.5111  0.21819000000000005  1.0000
  C   C31       1.0  0.5023  0.01255  0.2832  1.0000
  C   C32       1.0  0.9978  0.98745  0.7832  1.0000
  C   C33       1.0  0.000529999999999997  0.56155  0.6771  1.0000
  C   C34       1.0  0.49946  0.43844  0.17711000000000002  1.0000
  C   C35       1.0  0.53802  0.93732  0.32159  1.0000
  C   C36       1.0  0.9618999999999998  0.06267  0.8215900000000003  1.0000
  C   C37       1.0  0.97828  0.50098  0.77931  1.0000
  C   C38       1.0  0.5217  0.49901  0.27931  1.0000
  C   C39       1.0  0.49981  0.9990099999999997  0.22012  1.0000
  C   C40       1.0  0.00016999999999999999  0.00099  0.7201200000000001  1.0000
  C   C41       1.0  0.8944899999999998  0.5844  0.7969000000000002  1.0000
  C   C42       1.0  0.60551  0.41559  0.29690000000000005  1.0000
  C   C43       1.0  0.53851  0.9110699999999999  0.19747  1.0000
  C   C44       1.0  0.96121  0.08891  0.69747  1.0000
  C   C45       1.0  0.8686599999999998  0.65432  0.75595  1.0000
  C   C46       1.0  0.63139  0.34567999999999993  0.25595  1.0000
  C   C47       1.0  0.57476  0.8389999999999999  0.23599  1.0000
  C   C48       1.0  0.9248099999999998  0.16096  0.73599  1.0000
  C   C49       1.0  0.92234  0.6435599999999998  0.6972200000000001  1.0000
  C   C50       1.0  0.57772  0.35645  0.19722000000000006  1.0000
  C   C51       1.0  0.57309  0.85159  0.29699  1.0000
  C   C52       1.0  0.92657  0.14837999999999996  0.79699  1.0000
  C   C53       1.0  0.004550000000000006  0.4332199999999999  0.8236500000000002  1.0000
  C   C54       1.0  0.49543  0.56677  0.32365000000000005  1.0000
  C   C55       1.0  0.4625799999999999  0.06931  0.17841000000000004  1.0000
  C   C56       1.0  0.03752  0.9307  0.6784  1.0000
  C   C57       1.0  0.85759  0.52939  0.8975200000000002  1.0000
  C   C58       1.0  0.6424  0.47059999999999996  0.3975200000000001  1.0000
  C   C59       1.0  0.5076499999999999  0.96556  0.09631000000000002  1.0000
  C   C60       1.0  0.9920599999999998  0.03442  0.5963100000000001  1.0000
  C   C61       1.0  0.05531  0.55122  0.61694  1.0000
  C   C62       1.0  0.44467  0.4487699999999999  0.11694000000000002  1.0000
  C   C63       1.0  0.5351399999999997  0.9492299999999998  0.38404  1.0000
  C   C64       1.0  0.9649199999999998  0.050769999999999996  0.88404  1.0000
  H   H13       1.0  0.06604  0.36805  0.81389  1.0000
  H   H14       1.0  0.43395  0.63194  0.31389  1.0000
  H   H15       1.0  0.43396  0.13793  0.1919  1.0000
  H   H16       1.0  0.06628999999999997  0.8621  0.6918900000000001  1.0000
  H   H17       1.0  0.18058  0.4637799999999999  0.55242  1.0000
  H   H18       1.0  0.31930999999999987  0.5362  0.05244  1.0000
  H   H19       1.0  0.4925099999999999  0.04142999999999999  0.45561  1.0000
  H   H20       1.0  0.008090000000000012  0.9585999999999998  0.95561  1.0000
  H   H21       1.0  0.13234  0.34960999999999987  0.72484  1.0000
  H   H22       1.0  0.36741  0.65034  0.22487000000000004  1.0000
  H   H23       1.0  0.44233  0.15778999999999996  0.28335  1.0000
  H   H24       1.0  0.0583  0.8422599999999998  0.78336  1.0000
  H   H25       1.0  0.90028  0.70012  0.6675100000000002  1.0000
  H   H26       1.0  0.5998199999999998  0.29989  0.1675  1.0000
  H   H27       1.0  0.6010399999999999  0.79336  0.32483  1.0000
  H   H28       1.0  0.8985  0.2066  0.8248300000000001  1.0000
  O   O21       1.0  0.23564  0.31317  0.62055  1.0000
  C   C65       1.0  0.18793  0.2877  0.56229  1.0000
  H   H29       1.0  0.27654  0.32192  0.52946  1.0000
  H   H30       1.0  0.03881  0.30062  0.55253  1.0000
  H   H31       1.0  0.21461  0.21412  0.55749  1.0000
  O   O22       1.0  0.26408  0.68678  0.12059000000000002  1.0000
  C   C66       1.0  0.31157  0.71225  0.0623  1.0000
  H   H32       1.0  0.2229  0.678  0.029510000000000005  1.0000
  H   H33       1.0  0.46068  0.6993699999999998  0.05250000000000001  1.0000
  H   H34       1.0  0.2848099999999999  0.78582  0.05751000000000001  1.0000
  O   O23       1.0  0.43334  0.19678  0.39254  1.0000
  C   C67       1.0  0.534  0.21604999999999994  0.4445100000000001  1.0000
  H   H35       1.0  0.68219  0.19499  0.4406300000000001  1.0000
  H   H36       1.0  0.46935  0.18499  0.4839400000000001  1.0000
  H   H37       1.0  0.52876  0.28996  0.45185000000000003  1.0000
  O   O24       1.0  0.06772  0.80334  0.8925700000000002  1.0000
  C   C68       1.0  0.9663499999999999  0.78384  0.94436  1.0000
  H   H38       1.0  0.8180799999999999  0.80462  0.9402200000000002  1.0000
  H   H39       1.0  0.030020000000000005  0.815  0.9839  1.0000
  H   H40       1.0  0.97208  0.70993  0.9516800000000002  1.0000
