data_image0
_chemical_formula_structural       C116Cr12H88N4O52
_chemical_formula_sum              "C116 Cr12 H88 N4 O52"
_cell_length_a       18.74506
_cell_length_b       11.05783
_cell_length_c       18.48227
_cell_angle_alpha    89.83982000000002
_cell_angle_beta     91.29952999999999
_cell_angle_gamma    89.59074

_space_group_name_H-M_alt    "P 1"
_space_group_IT_number       1

loop_
  _space_group_symop_operation_xyz
  'x, y, z'

loop_
  _atom_site_type_symbol
  _atom_site_label
  _atom_site_symmetry_multiplicity
  _atom_site_fract_x
  _atom_site_fract_y
  _atom_site_fract_z
  _atom_site_occupancy
  C   C1        1.0  0.2701  0.047850000000000004  0.85142  1.0000
  C   C2        1.0  0.67615  0.59326  0.02626  1.0000
  C   C3        1.0  0.99837  0.3328  0.07380999999999999  1.0000
  C   C4        1.0  0.1472  0.77835  0.54703  1.0000
  C   C5        1.0  0.08651  0.8259299999999999  0.49975  1.0000
  C   C6        1.0  0.8527499999999998  0.7751  0.45279  1.0000
  C   C7        1.0  0.91343  0.82101  0.5  1.0000
  C   C8        1.0  0.6472  0.27835  0.54703  1.0000
  C   C9        1.0  0.58651  0.32593  0.49975  1.0000
  C   C10       1.0  0.35275  0.2751  0.45279  1.0000
  C   C11       1.0  0.41343  0.32101  0.5  1.0000
  C   C12       1.0  0.17308999999999997  0.7940200000000001  0.09556  1.0000
  C   C13       1.0  0.82064  0.08656  0.9725399999999998  1.0000
  C   C14       1.0  0.0933  0.7877199999999999  0.07698  1.0000
  C   C15       1.0  0.82582  0.79282  0.9032399999999999  1.0000
  C   C16       1.0  0.9054799999999998  0.78566  0.92269  1.0000
  C   C17       1.0  0.67309  0.29402  0.09556  1.0000
  C   C18       1.0  0.5933  0.28772  0.07698  1.0000
  C   C19       1.0  0.32582  0.29282  0.9032399999999999  1.0000
  C   C20       1.0  0.40548  0.28566  0.92269  1.0000
  C   C21       1.0  0.17615  0.09326  0.02626  1.0000
  C   C22       1.0  0.30983  0.55366  0.04412  1.0000
  C   C23       1.0  0.68649  0.56071  0.95433  1.0000
  C   C24       1.0  0.80983  0.05366  0.04412  1.0000
  C   C25       1.0  0.18649  0.06071  0.95433  1.0000
  C   C26       1.0  0.25461  0.60713  0.08275  1.0000
  C   C27       1.0  0.74365  0.60928  0.91638  1.0000
  C   C28       1.0  0.7546  0.10713  0.08275  1.0000
  C   C29       1.0  0.72964  0.04796000000000001  0.14859  1.0000
  C   C30       1.0  0.24365  0.10928  0.91638  1.0000
  C   C31       1.0  0.21633  0.70595  0.05155  1.0000
  C   C32       1.0  0.78228  0.70638  0.9475599999999998  1.0000
  C   C33       1.0  0.71634  0.20595  0.05155  1.0000
  C   C34       1.0  0.28228  0.20638  0.9475599999999998  1.0000
  C   C35       1.0  0.22279000000000002  0.7286100000000001  0.97772  1.0000
  C   C36       1.0  0.77574  0.7292300000000002  0.02137  1.0000
  C   C37       1.0  0.72279  0.22861  0.97772  1.0000
  C   C38       1.0  0.27574  0.22923  0.02137  1.0000
  C   C39       1.0  0.27222  0.66454  0.93709  1.0000
  C   C40       1.0  0.7701  0.54785  0.85142  1.0000
  C   C41       1.0  0.72591  0.66744  0.06217999999999999  1.0000
  C   C42       1.0  0.77222  0.16454  0.93709  1.0000
  C   C43       1.0  0.22591  0.16745  0.06217999999999999  1.0000
  C   C44       1.0  0.50031  0.7213100000000001  0.53656  1.0000
  C   C45       1.0  0.4977599999999999  0.72175  0.46285  1.0000
  C   C46       1.0  0.00031000000000000005  0.22130999999999998  0.53656  1.0000
  C   C47       1.0  0.99776  0.22175  0.46285  1.0000
  C   C48       1.0  0.50308  0.8308899999999999  0.42508  1.0000
  C   C49       1.0  0.49602  0.8303  0.57448  1.0000
  C   C50       1.0  0.0030799999999999985  0.33089  0.42508  1.0000
  C   C51       1.0  0.22964  0.54796  0.14859  1.0000
  C   C52       1.0  0.9960199999999999  0.3303  0.57448  1.0000
  C   C53       1.0  0.50232  0.94132  0.46237  1.0000
  C   C54       1.0  0.4973099999999999  0.94104  0.53726  1.0000
  C   C55       1.0  0.00232  0.44132  0.46237  1.0000
  C   C56       1.0  0.99731  0.44104000000000004  0.53726  1.0000
  C   C57       1.0  0.43850999999999996  0.81746  0.86208  1.0000
  C   C58       1.0  0.52716  0.82259  0.14654  1.0000
  C   C59       1.0  0.9385099999999998  0.31746  0.86208  1.0000
  C   C60       1.0  0.027160000000000004  0.32259  0.14654  1.0000
  C   C61       1.0  0.21432  0.7295500000000001  0.51228  1.0000
  C   C62       1.0  0.50158  0.7252500000000001  0.97756  1.0000
  C   C63       1.0  0.7853  0.7288  0.48744  1.0000
  C   C64       1.0  0.7143199999999998  0.22955000000000003  0.51228  1.0000
  C   C65       1.0  0.2853  0.2288  0.48744  1.0000
  C   C66       1.0  0.21885999999999997  0.71993  0.43693  1.0000
  C   C67       1.0  0.78045  0.72006  0.56277  1.0000
  C   C68       1.0  0.71886  0.21993  0.43693  1.0000
  C   C69       1.0  0.28043999999999997  0.22007  0.56277  1.0000
  C   C70       1.0  0.26166  0.6277  0.40882  1.0000
  C   C71       1.0  0.7378299999999999  0.62874  0.59124  1.0000
  C   C72       1.0  0.76166  0.1277  0.40882  1.0000
  C   C73       1.0  0.4498  0.73719  0.040709999999999996  1.0000
  C   C74       1.0  0.23782999999999999  0.12874  0.59124  1.0000
  C   C75       1.0  0.32196  0.59068  0.44861999999999996  1.0000
  C   C76       1.0  0.67751  0.59307  0.5516099999999999  1.0000
  C   C77       1.0  0.82196  0.09068  0.44861999999999996  1.0000
  C   C78       1.0  0.17751  0.09307  0.5516099999999999  1.0000
  C   C79       1.0  0.32776  0.62021  0.52164  1.0000
  C   C80       1.0  0.67175  0.62259  0.47846  1.0000
  C   C81       1.0  0.8277599999999999  0.12021  0.52164  1.0000
  C   C82       1.0  0.17175  0.12258  0.47846  1.0000
  C   C83       1.0  0.27091  0.67797  0.55585  1.0000
  C   C84       1.0  0.0015800000000000022  0.22525  0.97756  1.0000
  C   C85       1.0  0.72876  0.67841  0.44401  1.0000
  C   C86       1.0  0.77091  0.17797  0.55585  1.0000
  C   C87       1.0  0.22875999999999996  0.17841  0.44401  1.0000
  C   C88       1.0  0.27533  0.68764  0.85928  1.0000
  C   C89       1.0  0.72427  0.68815  0.14073  1.0000
  C   C90       1.0  0.77533  0.18764  0.85928  1.0000
  C   C91       1.0  0.22427  0.18815000000000004  0.14073  1.0000
  C   C92       1.0  0.26734  0.055900000000000005  0.6514999999999999  1.0000
  C   C93       1.0  0.73261  0.055920000000000004  0.34843  1.0000
  C   C94       1.0  0.76734  0.5559  0.6514999999999999  1.0000
  C   C95       1.0  0.9497999999999999  0.23719  0.040709999999999996  1.0000
  C   C96       1.0  0.23260999999999998  0.55592  0.34843  1.0000
  C   C97       1.0  0.4706099999999999  0.82338  0.64748  1.0000
  C   C98       1.0  0.5292  0.82367  0.35238  1.0000
  C   C99       1.0  0.97061  0.32338  0.64748  1.0000
  C   C100      1.0  0.0292  0.32367  0.35238  1.0000
  C   C101      1.0  0.27429  0.69139  0.63553  1.0000
  C   C102      1.0  0.7255599999999999  0.6912  0.36424  1.0000
  C   C103      1.0  0.77429  0.19139000000000003  0.63553  1.0000
  C   C104      1.0  0.22556  0.19121000000000002  0.36424  1.0000
  C   C105      1.0  0.4575699999999999  0.9354700000000001  0.03522  1.0000
  C   C106      1.0  0.32064  0.58656  0.9725399999999998  1.0000
  C   C107      1.0  0.50888  0.9235800000000001  0.9711399999999999  1.0000
  C   C108      1.0  0.9575699999999999  0.43547  0.03522  1.0000
  C   C109      1.0  0.008879999999999997  0.42358  0.9711399999999999  1.0000
  C   C110      1.0  0.40802999999999995  0.83929  0.00053  1.0000
  C   C111      1.0  0.55042  0.82199  0.0113  1.0000
  C   C112      1.0  0.90803  0.33929  0.00053  1.0000
  C   C113      1.0  0.05042  0.32199  0.0113  1.0000
  C   C114      1.0  0.46007000000000003  0.8264899999999998  0.9380299999999999  1.0000
  C   C115      1.0  0.49837  0.8327999999999999  0.07380999999999999  1.0000
  C   C116      1.0  0.96007  0.32649  0.9380299999999999  1.0000
  Cr  Cr1       1.0  0.22963  0.8359  0.74735  1.0000
  Cr  Cr2       1.0  0.6142  0.67712  0.25066  1.0000
  Cr  Cr3       1.0  0.8857999999999999  0.17712  0.74934  1.0000
  Cr  Cr4       1.0  0.1142  0.17712  0.25066  1.0000
  Cr  Cr5       1.0  0.77037  0.8359  0.25265  1.0000
  Cr  Cr6       1.0  0.72963  0.3359  0.74735  1.0000
  Cr  Cr7       1.0  0.27037  0.3359  0.25265  1.0000
  Cr  Cr8       1.0  0.38741  0.98985  0.75085  1.0000
  Cr  Cr9       1.0  0.61259  0.98985  0.24914999999999998  1.0000
  Cr  Cr10      1.0  0.8874100000000001  0.48985000000000006  0.75085  1.0000
  Cr  Cr11      1.0  0.11259  0.48985000000000006  0.24914999999999998  1.0000
  Cr  Cr12      1.0  0.3857999999999999  0.67712  0.74934  1.0000
  H   H1        1.0  0.34951  0.8512  0.9949  1.0000
  H   H2        1.0  0.62526  0.59474  0.44759999999999994  1.0000
  H   H3        1.0  0.8742  0.09095999999999999  0.5526  1.0000
  H   H4        1.0  0.12526  0.09474  0.44759999999999994  1.0000
  H   H5        1.0  0.4399799999999999  0.02104  0.06081  1.0000
  H   H6        1.0  0.53319  0.99959  0.94129  1.0000
  H   H7        1.0  0.9399799999999999  0.52104  0.06081  1.0000
  H   H8        1.0  0.03319  0.49959  0.94129  1.0000
  H   H9        1.0  0.51973  0.63866  0.95362  1.0000
  H   H10       1.0  0.42907  0.66236  0.07382  1.0000
  H   H11       1.0  0.019729999999999998  0.13866  0.95362  1.0000
  H   H12       1.0  0.60936  0.8185600000000001  0.01731  1.0000
  H   H13       1.0  0.9290699999999998  0.16236  0.07382  1.0000
  H   H14       1.0  0.36538  0.54801  0.94443  1.0000
  H   H15       1.0  0.6315699999999999  0.5555  0.054639999999999994  1.0000
  H   H16       1.0  0.86538  0.04801  0.94443  1.0000
  H   H17       1.0  0.13157  0.0555  0.054639999999999994  1.0000
  H   H18       1.0  0.3444499999999999  0.48613  0.06905  1.0000
  H   H19       1.0  0.6516699999999999  0.49433999999999995  0.92952  1.0000
  H   H20       1.0  0.84445  0.98613  0.06905  1.0000
  H   H21       1.0  0.15167  0.9943400000000001  0.92952  1.0000
  H   H22       1.0  0.19054000000000001  0.7986500000000001  0.95215  1.0000
  H   H23       1.0  0.8495  0.3512  0.9949  1.0000
  H   H24       1.0  0.80917  0.7962200000000001  0.04707  1.0000
  H   H25       1.0  0.69054  0.29865  0.95215  1.0000
  H   H26       1.0  0.30916999999999994  0.29622  0.04707  1.0000
  H   H27       1.0  0.50027  0.63402  0.56337  1.0000
  H   H28       1.0  0.49738  0.63477  0.43596000000000007  1.0000
  H   H29       1.0  0.00027  0.13402  0.56337  1.0000
  H   H30       1.0  0.99738  0.13477  0.43596000000000007  1.0000
  H   H31       1.0  0.50721  0.02671  0.43411  1.0000
  H   H32       1.0  0.49308  0.02631  0.56561  1.0000
  H   H33       1.0  0.00721  0.52672  0.43411  1.0000
  H   H34       1.0  0.10936  0.31856  0.01731  1.0000
  H   H35       1.0  0.99308  0.52631  0.56561  1.0000
  H   H36       1.0  0.10208  0.9031499999999999  0.46625  1.0000
  H   H37       1.0  0.06389  0.7523  0.46568999999999994  1.0000
  H   H38       1.0  0.04612  0.8613200000000001  0.53716  1.0000
  H   H39       1.0  0.12313  0.70303  0.57788  1.0000
  H   H40       1.0  0.16224999999999998  0.85105  0.58455  1.0000
  H   H41       1.0  0.89799  0.89875  0.53321  1.0000
  H   H42       1.0  0.93635  0.74699  0.53424  1.0000
  H   H43       1.0  0.95354  0.8554400000000001  0.46225999999999995  1.0000
  H   H44       1.0  0.87668  0.69881  0.4224  1.0000
  H   H45       1.0  0.36324  0.53763  0.42392  1.0000
  H   H46       1.0  0.83811  0.84822  0.4149  1.0000
  H   H47       1.0  0.60208  0.40315  0.46625  1.0000
  H   H48       1.0  0.56389  0.2523  0.46568999999999994  1.0000
  H   H49       1.0  0.54612  0.36132  0.53716  1.0000
  H   H50       1.0  0.62313  0.20303  0.57788  1.0000
  H   H51       1.0  0.66225  0.35105  0.58455  1.0000
  H   H52       1.0  0.39799  0.39875000000000005  0.53321  1.0000
  H   H53       1.0  0.43634999999999996  0.24698999999999996  0.53424  1.0000
  H   H54       1.0  0.45353999999999994  0.35544  0.46225999999999995  1.0000
  H   H55       1.0  0.37668  0.19881  0.4224  1.0000
  H   H56       1.0  0.63625  0.54103  0.57653  1.0000
  H   H57       1.0  0.33811  0.34821  0.4149  1.0000
  H   H58       1.0  0.14411  0.77626  0.3605  1.0000
  H   H59       1.0  0.22607999999999998  0.8392100000000001  0.35345  1.0000
  H   H60       1.0  0.8544499999999999  0.7763200000000001  0.6393  1.0000
  H   H61       1.0  0.77221  0.8405700000000002  0.64517  1.0000
  H   H62       1.0  0.64411  0.27626  0.3605  1.0000
  H   H63       1.0  0.72608  0.33921  0.35345  1.0000
  H   H64       1.0  0.35445000000000004  0.27632  0.6393  1.0000
  H   H65       1.0  0.27221  0.34057  0.64517  1.0000
  H   H66       1.0  0.08257  0.8152199999999998  0.01992  1.0000
  H   H67       1.0  0.8632399999999999  0.03763  0.42392  1.0000
  H   H68       1.0  0.0732  0.69456  0.08519  1.0000
  H   H69       1.0  0.0637  0.85029  0.11257999999999999  1.0000
  H   H70       1.0  0.18219  0.78291  0.15466  1.0000
  H   H71       1.0  0.1932  0.88539  0.08472  1.0000
  H   H72       1.0  0.9156399999999999  0.8144500000000001  0.97946  1.0000
  H   H73       1.0  0.92587  0.69194  0.91587  1.0000
  H   H74       1.0  0.93525  0.8467700000000001  0.8866  1.0000
  H   H75       1.0  0.81734  0.78153  0.84413  1.0000
  H   H76       1.0  0.80492  0.88422  0.9127299999999999  1.0000
  H   H77       1.0  0.58257  0.31522  0.01992  1.0000
  H   H78       1.0  0.13625  0.04103  0.57653  1.0000
  H   H79       1.0  0.5732  0.19456  0.08519  1.0000
  H   H80       1.0  0.5637  0.35029  0.11257999999999999  1.0000
  H   H81       1.0  0.68219  0.28291  0.15466  1.0000
  H   H82       1.0  0.6932  0.38539  0.08472  1.0000
  H   H83       1.0  0.41564  0.31445  0.97946  1.0000
  H   H84       1.0  0.42587  0.19194  0.91587  1.0000
  H   H85       1.0  0.43525  0.34677  0.8866  1.0000
  H   H86       1.0  0.31734  0.28153  0.84413  1.0000
  H   H87       1.0  0.30492  0.38422  0.9127299999999999  1.0000
  H   H88       1.0  0.3741999999999999  0.59096  0.5526  1.0000
  N   N1        1.0  0.18767  0.81039  0.3897399999999999  1.0000
  N   N2        1.0  0.811  0.81069  0.60943  1.0000
  N   N3        1.0  0.68767  0.31039  0.3897399999999999  1.0000
  N   N4        1.0  0.311  0.31069  0.60943  1.0000
  O   O1        1.0  0.21427000000000002  0.709  0.82747  1.0000
  O   O2        1.0  0.54327  0.71763  0.33016  1.0000
  O   O3        1.0  0.9567300000000001  0.21763  0.66984  1.0000
  O   O4        1.0  0.04327  0.21763  0.33016  1.0000
  O   O5        1.0  0.32062  0.62564  0.67292  1.0000
  O   O6        1.0  0.67938  0.62564  0.32708  1.0000
  O   O7        1.0  0.82062  0.12564  0.67292  1.0000
  O   O8        1.0  0.17937999999999998  0.12564  0.32708  1.0000
  O   O9        1.0  0.33428  0.83429  0.74918  1.0000
  O   O10       1.0  0.66572  0.83429  0.25082  1.0000
  O   O11       1.0  0.83428  0.33429  0.74918  1.0000
  O   O12       1.0  0.78573  0.709  0.17253  1.0000
  O   O13       1.0  0.16571999999999998  0.33429  0.25082  1.0000
  O   O14       1.0  0.23616  0.95849  0.82313  1.0000
  O   O15       1.0  0.76384  0.95849  0.17687  1.0000
  O   O16       1.0  0.73616  0.45849  0.82313  1.0000
  O   O17       1.0  0.26383999999999996  0.45849  0.17687  1.0000
  O   O18       1.0  0.33208  0.07547  0.83128  1.0000
  O   O19       1.0  0.6679199999999998  0.07547  0.16872  1.0000
  O   O20       1.0  0.83208  0.57547  0.83128  1.0000
  O   O21       1.0  0.16792  0.57547  0.16872  1.0000
  O   O22       1.0  0.4463  0.9181100000000001  0.82662  1.0000
  O   O23       1.0  0.7142699999999998  0.209  0.82747  1.0000
  O   O24       1.0  0.5536999999999999  0.9181100000000001  0.17338  1.0000
  O   O25       1.0  0.9462999999999999  0.41811  0.82662  1.0000
  O   O26       1.0  0.0537  0.41811  0.17338  1.0000
  O   O27       1.0  0.45711  0.7162  0.83176  1.0000
  O   O28       1.0  0.54289  0.7162  0.16824  1.0000
  O   O29       1.0  0.95711  0.21620000000000003  0.83176  1.0000
  O   O30       1.0  0.04289  0.21620000000000003  0.16824  1.0000
  O   O31       1.0  0.32098  0.62431  0.82303  1.0000
  O   O32       1.0  0.67902  0.62431  0.17697  1.0000
  O   O33       1.0  0.82098  0.12431  0.82303  1.0000
  O   O34       1.0  0.28573  0.209  0.17253  1.0000
  O   O35       1.0  0.17902  0.12431  0.17697  1.0000
  O   O36       1.0  0.21389  0.71043  0.66554  1.0000
  O   O37       1.0  0.78611  0.71043  0.33446  1.0000
  O   O38       1.0  0.71389  0.21043000000000003  0.66554  1.0000
  O   O39       1.0  0.28611  0.21043000000000003  0.33446  1.0000
  O   O40       1.0  0.23581  0.9598199999999999  0.67302  1.0000
  O   O41       1.0  0.76419  0.9598199999999999  0.32698  1.0000
  O   O42       1.0  0.73581  0.45982  0.67302  1.0000
  O   O43       1.0  0.26419  0.45982  0.32698  1.0000
  O   O44       1.0  0.3317  0.0769  0.66935  1.0000
  O   O45       1.0  0.44594999999999996  0.9194400000000001  0.6765199999999999  1.0000
  O   O46       1.0  0.6683  0.0769  0.33065  1.0000
  O   O47       1.0  0.8317  0.5769  0.66935  1.0000
  O   O48       1.0  0.16829999999999998  0.5769  0.33065  1.0000
  O   O49       1.0  0.55405  0.9194400000000001  0.32348  1.0000
  O   O50       1.0  0.94595  0.41944  0.6765199999999999  1.0000
  O   O51       1.0  0.054049999999999994  0.41944  0.32348  1.0000
  O   O52       1.0  0.45673  0.71763  0.66984  1.0000
