data_image0
_chemical_formula_structural       C48Cr6FH17O26
_chemical_formula_sum              "C48 Cr6 F1 H17 O26"
_cell_length_a       10.72961
_cell_length_b       10.72041
_cell_length_c       17.11132
_cell_angle_alpha    99.6728
_cell_angle_beta     100.15860000000002
_cell_angle_gamma    60.44463999999999

_space_group_name_H-M_alt    "P 1"
_space_group_IT_number       1

loop_
  _space_group_symop_operation_xyz
  'x, y, z'

loop_
  _atom_site_type_symbol
  _atom_site_label
  _atom_site_symmetry_multiplicity
  _atom_site_fract_x
  _atom_site_fract_y
  _atom_site_fract_z
  _atom_site_occupancy
  C   C1        1.0  0.35575999999999997  0.7698900000000001  0.3981999999999999  1.0000
  C   C2        1.0  0.81828  0.35005  0.3236  1.0000
  C   C3        1.0  0.3549299999999999  0.8199100000000001  0.15895  1.0000
  C   C4        1.0  0.3979599999999999  0.36818  0.35399  1.0000
  C   C5        1.0  0.4448499999999999  0.85728  0.21858  1.0000
  C   C6        1.0  0.43097999999999986  0.8605700000000001  0.29960999999999993  1.0000
  C   C7        1.0  0.28291  0.74183  0.25737  1.0000
  C   C8        1.0  0.28488999999999987  0.75167  0.1788  1.0000
  C   C9        1.0  0.54719  0.8919600000000002  0.20053  1.0000
  C   C10       1.0  0.62394  0.93921  0.26054  1.0000
  C   C11       1.0  0.6039599999999999  0.9503600000000001  0.33969  1.0000
  C   C12       1.0  0.8548499999999999  0.20425  0.19684999999999994  1.0000
  C   C13       1.0  0.5049099999999999  0.9161400000000001  0.35928  1.0000
  C   C14       1.0  0.34689999999999976  0.8039900000000002  0.31835999999999987  1.0000
  C   C15       1.0  0.30083  0.27892  0.80003  1.0000
  C   C16       1.0  0.7744200000000002  0.37815  0.40288  1.0000
  C   C17       1.0  0.42655999999999994  0.17621000000000003  0.76323  1.0000
  C   C18       1.0  0.47946000000000005  0.22294  0.71193  1.0000
  C   C19       1.0  0.25240999999999986  0.4487700000000001  0.70779  1.0000
  C   C20       1.0  0.21402  0.41406999999999994  0.77103  1.0000
  C   C21       1.0  0.50497  0.029590000000000005  0.77883  1.0000
  C   C22       1.0  0.6423899999999998  0.9396400000000001  0.7557499999999998  1.0000
  C   C23       1.0  0.8650299999999997  0.21369000000000005  0.28075  1.0000
  C   C24       1.0  0.7049  0.9943000000000001  0.7167799999999998  1.0000
  C   C25       1.0  0.6246499999999998  0.13445  0.6950799999999998  1.0000
  C   C26       1.0  0.3833999999999999  0.3531800000000001  0.67671  1.0000
  C   C27       1.0  0.7702899999999999  0.36844999999999994  0.7146599999999997  1.0000
  C   C28       1.0  0.3584599999999999  0.7686  0.62768  1.0000
  C   C29       1.0  0.8148299999999997  0.3297  0.7806699999999998  1.0000
  C   C30       1.0  0.3397399999999999  0.80849  0.70975  1.0000
  C   C31       1.0  0.31325  0.83638  0.7776  1.0000
  C   C32       1.0  0.89081  0.30891  0.08697  1.0000
  C   C33       1.0  0.29732  0.26817  0.12441999999999999  1.0000
  C   C34       1.0  0.7756799999999998  0.47223000000000004  0.28418  1.0000
  C   C35       1.0  0.2984399999999999  0.8879500000000001  0.08452999999999997  1.0000
  C   C36       1.0  0.8798799999999999  0.30072  0.86028  1.0000
  C   C37       1.0  0.27918  0.25386  0.8769399999999998  1.0000
  C   C38       1.0  0.27907999999999983  0.8843100000000002  0.85727  1.0000
  C   C39       1.0  0.40849999999999975  0.3753  0.6001299999999998  1.0000
  C   C40       1.0  0.71916  0.41148000000000007  0.63553  1.0000
  C   C41       1.0  0.35424  0.34198  0.27324  1.0000
  C   C42       1.0  0.32449  0.31166  0.20499999999999993  1.0000
  C   C43       1.0  0.82841  0.32686  0.15997  1.0000
  C   C44       1.0  0.7811399999999998  0.4609  0.20385  1.0000
  C   C45       1.0  0.8733099999999998  0.07223  0.15367  1.0000
  C   C46       1.0  0.92357  0.94919  0.19262  1.0000
  C   C47       1.0  0.95046  0.95604  0.27531  1.0000
  C   C48       1.0  0.9199699999999998  0.08729  0.31936  1.0000
  Cr  Cr1       1.0  0.6080999999999998  0.61086  0.52225  1.0000
  Cr  Cr2       1.0  0.28888999999999987  0.5999900000000002  0.48842  1.0000
  Cr  Cr3       1.0  0.6030399999999999  0.28919  0.48939  1.0000
  Cr  Cr4       1.0  0.05395999999999999  0.05224999999999997  0.9673799999999999  1.0000
  Cr  Cr5       1.0  0.05988999999999997  0.37316  0.9927099999999999  1.0000
  Cr  Cr6       1.0  0.37337  0.06169  0.9917099999999999  1.0000
  F   F1        1.0  0.74478  0.58125  0.1694  1.0000
  H   H1        1.0  0.73419  0.57951  0.31511  1.0000
  H   H2        1.0  0.67744  0.17116  0.6643  1.0000
  H   H3        1.0  0.8446799999999998  0.06276000000000002  0.09004999999999998  1.0000
  H   H4        1.0  0.93961  0.8486  0.15864999999999996  1.0000
  H   H5        1.0  0.98889  0.8606700000000002  0.3056  1.0000
  H   H6        1.0  0.9407199999999998  0.08869000000000003  0.3836199999999999  1.0000
  H   H7        1.0  0.2293600000000001  0.6854899999999999  0.27015  1.0000
  H   H8        1.0  0.5766099999999996  0.8753500000000001  0.14109  1.0000
  H   H9        1.0  0.22306999999999985  0.7143200000000002  0.13361  1.0000
  H   H10       1.0  0.69808  0.96853  0.24517  1.0000
  H   H11       1.0  0.66521  0.9861  0.38610999999999995  1.0000
  H   H12       1.0  0.48783999999999966  0.93342  0.42141999999999996  1.0000
  H   H13       1.0  0.17951999999999993  0.5504000000000001  0.68317  1.0000
  H   H14       1.0  0.4618299999999997  0.9836800000000001  0.8097199999999998  1.0000
  H   H15       1.0  0.11678999999999994  0.49305  0.7973  1.0000
  H   H16       1.0  0.7015799999999999  0.8289000000000001  0.77011  1.0000
  H   H17       1.0  0.81408  0.9272100000000001  0.70146  1.0000
  O   O1        1.0  0.74981  0.49979000000000007  0.43804  1.0000
  O   O2        1.0  0.4117299999999999  0.18102  0.09153  1.0000
  O   O3        1.0  0.36501  0.94436  0.06332  1.0000
  O   O4        1.0  0.47765999999999986  0.7262600000000001  0.4392899999999999  1.0000
  O   O5        1.0  0.1593799999999999  0.90667  0.8762099999999999  1.0000
  O   O6        1.0  0.93082  0.17742  0.88673  1.0000
  O   O7        1.0  0.9103599999999997  0.39542  0.89572  1.0000
  O   O8        1.0  0.18601  0.36173  0.91987  1.0000
  O   O9        1.0  0.39999999999999997  0.17301000000000002  0.9146299999999999  1.0000
  O   O10       1.0  0.35413999999999984  0.9369400000000002  0.89934  1.0000
  O   O11       1.0  0.1624099999999999  0.16236999999999996  0.9839299999999999  1.0000
  O   O12       1.0  0.29897  0.46880000000000005  0.55739  1.0000
  O   O13       1.0  0.2601499999999999  0.743  0.4122699999999999  1.0000
  O   O14       1.0  0.29774  0.46655  0.39472  1.0000
  O   O15       1.0  0.48808  0.2535  0.38643  1.0000
  O   O16       1.0  0.7226699999999999  0.30380000000000007  0.42194  1.0000
  O   O17       1.0  0.75113  0.50222  0.6135199999999997  1.0000
  O   O18       1.0  0.47889000000000004  0.7285099999999999  0.6019599999999998  1.0000
  O   O19       1.0  0.26147  0.74543  0.58775  1.0000
  O   O20       1.0  0.4894000000000001  0.25593  0.56191  1.0000
  O   O21       1.0  0.72389  0.30605  0.58461  1.0000
  O   O22       1.0  0.5000099999999998  0.50001  0.5000199999999998  1.0000
  O   O23       1.0  0.17109999999999997  0.9146800000000002  0.05309999999999999  1.0000
  O   O24       1.0  0.94168  0.18484000000000006  0.05071  1.0000
  O   O25       1.0  0.92208  0.40342000000000006  0.07261  1.0000
  O   O26       1.0  0.1968799999999998  0.3691500000000001  0.08385  1.0000
