data_image0
_chemical_formula_structural       C42Cr6H15O26IOHI
_chemical_formula_sum              "C42 Cr6 H16 O27 I2"
_cell_length_a       10.64346
_cell_length_b       10.65733
_cell_length_c       16.950369999999996
_cell_angle_alpha    80.92177
_cell_angle_beta     99.04546
_cell_angle_gamma    118.29611000000001

_space_group_name_H-M_alt    "P 1"
_space_group_IT_number       1

loop_
  _space_group_symop_operation_xyz
  'x, y, z'

loop_
  _atom_site_type_symbol
  _atom_site_label
  _atom_site_symmetry_multiplicity
  _atom_site_fract_x
  _atom_site_fract_y
  _atom_site_fract_z
  _atom_site_occupancy
  C   C1        1.0  0.3607000000000001  0.22801  0.6271700000000002  1.0000
  C   C2        1.0  0.38993000000000005  0.83109  0.67343  1.0000
  C   C3        1.0  0.37373  0.85274  0.74967  1.0000
  C   C4        1.0  0.13651  0.45838  0.79458  1.0000
  C   C5        1.0  0.15614  0.43422  0.71251  1.0000
  C   C6        1.0  0.31381  0.69321  0.64651  1.0000
  C   C7        1.0  0.8515800000000001  0.66985  0.7023100000000001  1.0000
  C   C8        1.0  0.8987800000000001  0.70394  0.7691  1.0000
  C   C9        1.0  0.34493000000000007  0.1868  0.70958  1.0000
  C   C10       1.0  0.32096  0.15980000000000003  0.77824  1.0000
  C   C11       1.0  0.31975  0.68269  0.28038  1.0000
  C   C12       1.0  0.36932  0.65525  0.58573  1.0000
  C   C13       1.0  0.29864000000000007  0.70641  0.20975  1.0000
  C   C14       1.0  0.79164  0.642  0.14834  1.0000
  C   C15       1.0  0.78849  0.52441  0.20025  1.0000
  C   C16       1.0  0.7466300000000002  0.49821  0.27599  1.0000
  C   C17       1.0  0.6837200000000002  0.69152  0.2477  1.0000
  C   C18       1.0  0.72398  0.71622  0.16903  1.0000
  C   C19       1.0  0.90723  0.48482  0.22820000000000004  1.0000
  C   C20       1.0  0.85723  0.45018  0.31084  1.0000
  C   C21       1.0  0.70997  0.59169  0.30406  1.0000
  C   C22       1.0  0.28605  0.09564  0.17564  1.0000
  C   C23       1.0  0.78179  0.6214099999999999  0.6259800000000002  1.0000
  C   C24       1.0  0.17253999999999997  0.08238  0.21323  1.0000
  C   C25       1.0  0.18955000000000002  0.10313  0.29266  1.0000
  C   C26       1.0  0.43681000000000003  0.1527  0.30078  1.0000
  C   C27       1.0  0.42229  0.13655  0.21977  1.0000
  C   C28       1.0  0.02975  0.95595  0.22125  1.0000
  C   C29       1.0  0.05061999999999998  0.9759299999999999  0.30949  1.0000
  C   C30       1.0  0.32089  0.13969  0.33685  1.0000
  C   C31       1.0  0.9481500000000002  0.7248000000000001  0.8515400000000002  1.0000
  C   C32       1.0  0.28199000000000013  0.7508900000000001  0.88298  1.0000
  C   C33       1.0  0.28489  0.11518  0.85795  1.0000
  C   C34       1.0  0.34925000000000006  0.21867  0.40388  1.0000
  C   C35       1.0  0.87969  0.6874  0.08125000000000003  1.0000
  C   C36       1.0  0.28519  0.73828  0.1257  1.0000
  C   C37       1.0  0.25388  0.05109999999999999  0.09588  1.0000
  C   C38       1.0  0.36282  0.65703  0.36181  1.0000
  C   C39       1.0  0.6991000000000002  0.58149  0.3898  1.0000
  C   C40       1.0  0.27990000000000004  0.73745  0.79858  1.0000
  C   C41       1.0  0.18295000000000006  0.61163  0.76349  1.0000
  C   C42       1.0  0.20014000000000004  0.58944  0.68868  1.0000
  Cr  Cr1       1.0  0.60844  0.38908  0.51968  1.0000
  Cr  Cr2       1.0  0.28864000000000006  0.40009  0.49076000000000003  1.0000
  Cr  Cr3       1.0  0.60294  0.7108  0.48951  1.0000
  Cr  Cr4       1.0  0.052529999999999986  0.94756  0.9642100000000001  1.0000
  Cr  Cr5       1.0  0.05996999999999999  0.6268  0.99292  1.0000
  Cr  Cr6       1.0  0.3733200000000001  0.93844  0.9953700000000001  1.0000
  H   H1        1.0  0.47323000000000004  0.91757  0.64009  1.0000
  H   H2        1.0  0.8081700000000002  0.33417  0.33168  1.0000
  H   H3        1.0  0.9397800000000001  0.5211  0.35467  1.0000
  H   H4        1.0  0.54212  0.18794999999999998  0.3333  1.0000
  H   H5        1.0  0.030350000000000005  0.85628  0.21038  1.0000
  H   H6        1.0  0.94394  0.9787100000000001  0.18683  1.0000
  H   H7        1.0  0.06456  0.88865  0.34897  1.0000
  H   H8        1.0  0.44303  0.95538  0.77273  1.0000
  H   H9        1.0  0.022760000000000002  0.40265  0.80827  1.0000
  H   H10       1.0  0.21354000000000004  0.44396  0.84298  1.0000
  H   H11       1.0  0.24494000000000005  0.40667  0.71376  1.0000
  H   H12       1.0  0.05384000000000003  0.36397000000000007  0.67902  1.0000
  H   H13       1.0  0.64402  0.758  0.26597  1.0000
  H   H14       1.0  0.71627  0.80197  0.12833  1.0000
  H   H15       1.0  0.014189999999999998  0.57946  0.22503  1.0000
  O   O1        1.0  0.75402  0.49759  0.60993  1.0000
  O   O2        1.0  0.29508  0.53362  0.39789  1.0000
  O   O3        1.0  0.48528  0.74662  0.38844000000000006  1.0000
  O   O4        1.0  0.72055  0.69622  0.42001  1.0000
  O   O5        1.0  0.50001  0.49999  0.4999799999999999  1.0000
  O   O6        1.0  0.16332  0.09289999999999998  0.87445  1.0000
  O   O7        1.0  0.9346500000000001  0.82208  0.88284  1.0000
  O   O8        1.0  0.91552  0.60414  0.8936700000000001  1.0000
  O   O9        1.0  0.19175999999999993  0.63811  0.92323  1.0000
  O   O10       1.0  0.40618000000000004  0.82693  0.92066  1.0000
  O   O11       1.0  0.35862000000000005  0.06286999999999997  0.90195  1.0000
  O   O12       1.0  0.4814199999999999  0.27139  0.60063  1.0000
  O   O13       1.0  0.16390999999999997  0.08546  0.05021  1.0000
  O   O14       1.0  0.9352000000000001  0.81517  0.04577  1.0000
  O   O15       1.0  0.91612  0.59669  0.06943  1.0000
  O   O16       1.0  0.19231  0.6312  0.08617  1.0000
  O   O17       1.0  0.40677  0.81948  0.09642  1.0000
  O   O18       1.0  0.35917000000000004  0.05596000000000001  0.06488  1.0000
  O   O19       1.0  0.16193999999999983  0.8375999999999999  0.98416  1.0000
  O   O20       1.0  0.26381  0.2545499999999999  0.58959  1.0000
  O   O21       1.0  0.30082  0.5312  0.56089  1.0000
  O   O22       1.0  0.4914800000000001  0.74402  0.56427  1.0000
  O   O23       1.0  0.72629  0.6938  0.5830100000000003  1.0000
  O   O24       1.0  0.74783  0.50019  0.43409  1.0000
  O   O25       1.0  0.47568000000000005  0.2738  0.43763  1.0000
  O   O26       1.0  0.25762  0.25716  0.41375  1.0000
  I   I1        1.0  0.8868  0.30558  0.17505  1.0000
  O   O27       1.0  0.54306  0.16431000000000004  0.18601  1.0000
  H   H16       1.0  0.54973  0.23240999999999998  0.13772000000000004  1.0000
  I   I2        1.0  0.9056600000000002  0.035339999999999996  0.34802  1.0000
