data_image0
_chemical_formula_structural       C60Cr6H40O26NHCH4
_chemical_formula_sum              "C61 Cr6 H45 O26 N1"
_cell_length_a       10.91275
_cell_length_b       10.98088
_cell_length_c       18.768449999999998
_cell_angle_alpha    90.54477
_cell_angle_beta     90.17677
_cell_angle_gamma    60.35176

_symmetry_space_group_name_H-M    'P 1'
_symmetry_Int_Tables_number       1

loop_
  _symmetry_equiv_pos_as_xyz
  'x,y,z'

loop_
  _atom_site_type_symbol
  _atom_site_label
  _atom_site_symmetry_multiplicity
  _atom_site_fract_x
  _atom_site_fract_y
  _atom_site_fract_z
  _atom_site_occupancy
  C   C1        1.0  0.23912999999999998  0.64583  0.61017  1.0000
  C   C2        1.0  0.6146400000000001  0.59607  0.80079  1.0000
  C   C3        1.0  0.6984699999999999  0.6729399999999999  0.81206  1.0000
  C   C4        1.0  0.67061  0.64732  0.67585  1.0000
  C   C5        1.0  0.8289  0.58017  0.69501  1.0000
  C   C6        1.0  0.59864  0.58007  0.72034  1.0000
  C   C7        1.0  0.6972399999999997  0.12808  0.81778  1.0000
  C   C8        1.0  0.8152099999999999  0.10445  0.77731  1.0000
  C   C9        1.0  0.80481  0.11878  0.70351  1.0000
  C   C10       1.0  0.5803899999999999  0.1303  0.70661  1.0000
  C   C11       1.0  0.58198  0.13446  0.7800399999999998  1.0000
  C   C12       1.0  0.65469  0.62268  0.60042  1.0000
  C   C13       1.0  0.9086799999999999  0.16799  0.78185  1.0000
  C   C14       1.0  0.8975699999999999  0.18248  0.70075  1.0000
  C   C15       1.0  0.6802000000000001  0.14678  0.6679  1.0000
  C   C16       1.0  0.17611999999999994  0.6729  0.83416  1.0000
  C   C17       1.0  0.15985000000000002  0.57402  0.79421  1.0000
  C   C18       1.0  0.16832999999999995  0.5705200000000001  0.72041  1.0000
  C   C19       1.0  0.20031  0.77207  0.7240699999999999  1.0000
  C   C20       1.0  0.19565  0.77305  0.79785  1.0000
  C   C21       1.0  0.24303999999999995  0.41872  0.79917  1.0000
  C   C22       1.0  0.25276000000000004  0.41507000000000005  0.7186499999999999  1.0000
  C   C23       1.0  0.63099  0.22381999999999996  0.60125  1.0000
  C   C24       1.0  0.19132999999999994  0.66755  0.68398  1.0000
  C   C25       1.0  0.67444  0.68078  0.17399999999999996  1.0000
  C   C26       1.0  0.79469  0.61325  0.21689  1.0000
  C   C27       1.0  0.7879300000000001  0.61167  0.28964  1.0000
  C   C28       1.0  0.5351  0.75565  0.28217  1.0000
  C   C29       1.0  0.54385  0.76089  0.20770999999999998  1.0000
  C   C30       1.0  0.91861  0.46861  0.21311  1.0000
  C   C31       1.0  0.9174899999999999  0.47036  0.2939  1.0000
  C   C32       1.0  0.65722  0.6708  0.32311  1.0000
  C   C33       1.0  0.62798  0.19674  0.16715  1.0000
  C   C34       1.0  0.22037  0.64899  0.4022  1.0000
  C   C35       1.0  0.51258  0.208  0.20496  1.0000
  C   C36       1.0  0.49552999999999997  0.24334000000000003  0.27593  1.0000
  C   C37       1.0  0.68748  0.29074  0.27042  1.0000
  C   C38       1.0  0.70738  0.25178  0.19812  1.0000
  C   C39       1.0  0.46580999999999995  0.10229  0.21497  1.0000
  C   C40       1.0  0.44733999999999996  0.14105  0.29321  1.0000
  C   C41       1.0  0.58954  0.2738900000000001  0.31144  1.0000
  C   C42       1.0  0.11793  0.6919  0.1882  1.0000
  C   C43       1.0  0.05527000000000003  0.81039  0.23275999999999997  1.0000
  C   C44       1.0  0.07161  0.7991100000000001  0.30513  1.0000
  C   C45       1.0  0.64239  0.6241800000000001  0.3929299999999999  1.0000
  C   C46       1.0  0.19392  0.54733  0.29163  1.0000
  C   C47       1.0  0.18046  0.55926  0.2181  1.0000
  C   C48       1.0  0.06491999999999998  0.9414100000000001  0.23117999999999997  1.0000
  C   C49       1.0  0.08002999999999995  0.93091  0.31134  1.0000
  C   C50       1.0  0.15133000000000002  0.66726  0.33494  1.0000
  C   C51       1.0  0.70472  0.09573  0.89391  1.0000
  C   C52       1.0  0.722  0.6871  0.8885899999999999  1.0000
  C   C53       1.0  0.11829999999999993  0.7065100000000002  0.90584  1.0000
  C   C54       1.0  0.67237  0.11160000000000002  0.10265  1.0000
  C   C55       1.0  0.69774  0.69134  0.09866  1.0000
  C   C56       1.0  0.5786100000000001  0.29585  0.3883399999999999  1.0000
  C   C57       1.0  0.08938999999999996  0.71248  0.11364  1.0000
  C   C58       1.0  0.61825  0.81913  0.7758  1.0000
  C   C59       1.0  0.5985699999999998  0.80441  0.69543  1.0000
  C   C60       1.0  0.8444299999999999  0.59023  0.77497  1.0000
  Cr  Cr1       1.0  0.3929599999999999  0.39792  0.50224  1.0000
  Cr  Cr2       1.0  0.39834  0.70848  0.50125  1.0000
  Cr  Cr3       1.0  0.7086700000000001  0.39357  0.49646  1.0000
  Cr  Cr4       1.0  0.93765  0.93854  0.00761  1.0000
  Cr  Cr5       1.0  0.62533  0.93737  0.99452  1.0000
  Cr  Cr6       1.0  0.93794  0.62523  0.00119  1.0000
  H   H1        1.0  0.6824499999999998  0.871  0.78297  1.0000
  H   H2        1.0  0.64171  0.46801  0.70678  1.0000
  H   H3        1.0  0.90625  0.48248  0.79681  1.0000
  H   H4        1.0  0.88985  0.46829  0.6789799999999998  1.0000
  H   H5        1.0  0.48902  0.13439  0.68132  1.0000
  H   H6        1.0  0.49315999999999993  0.13656  0.80675  1.0000
  H   H7        1.0  0.015610000000000004  0.09182  0.8013599999999999  1.0000
  H   H8        1.0  0.8585699999999999  0.26995  0.81061  1.0000
  H   H9        1.0  0.8443199999999998  0.29043  0.68048  1.0000
  H   H10       1.0  0.22396000000000002  0.84637  0.69925  1.0000
  H   H11       1.0  0.5133  0.88557  0.8010699999999998  1.0000
  H   H12       1.0  0.20485999999999993  0.85438  0.82633  1.0000
  H   H13       1.0  0.17908  0.37334  0.81984  1.0000
  H   H14       1.0  0.34542999999999996  0.38341  0.82653  1.0000
  H   H15       1.0  0.36050000000000004  0.38006  0.69877  1.0000
  H   H16       1.0  0.19557  0.36703  0.6923099999999999  1.0000
  H   H17       1.0  0.4317500000000001  0.80822  0.30659  1.0000
  H   H18       1.0  0.44937  0.82322  0.17683  1.0000
  H   H19       1.0  0.012309999999999986  0.4648  0.18893999999999997  1.0000
  H   H20       1.0  0.89107  0.39215  0.18978999999999996  1.0000
  H   H21       1.0  0.9042  0.38610000000000005  0.31733  1.0000
  H   H22       1.0  0.006320000000000035  0.47718999999999995  0.318  1.0000
  H   H23       1.0  0.7547199999999998  0.32338  0.29544  1.0000
  H   H24       1.0  0.79208  0.25225  0.16865999999999998  1.0000
  H   H25       1.0  0.5528700000000001  0.99439  0.20446  1.0000
  H   H26       1.0  0.36490999999999996  0.13171  0.18721  1.0000
  H   H27       1.0  0.33544  0.19309  0.31077  1.0000
  H   H28       1.0  0.52265  0.054209999999999994  0.32773  1.0000
  H   H29       1.0  0.24821  0.44382000000000005  0.31401  1.0000
  H   H30       1.0  0.22295  0.46593  0.18488  1.0000
  H   H31       1.0  0.9654399999999999  0.03252  0.21344999999999997  1.0000
  H   H32       1.0  0.6456000000000002  0.85649  0.66401  1.0000
  H   H33       1.0  0.16142  0.92684  0.20359  1.0000
  H   H34       1.0  0.18375999999999995  0.91528  0.3292  1.0000
  H   H35       1.0  0.9874700000000001  0.01564  0.33986  1.0000
  H   H36       1.0  0.90307  0.64685  0.78507  1.0000
  H   H37       1.0  0.8767799999999999  0.63504  0.66656  1.0000
  H   H38       1.0  0.6691099999999999  0.49160000000000004  0.8262899999999999  1.0000
  H   H39       1.0  0.50876  0.65663  0.8259999999999998  1.0000
  H   H40       1.0  0.48477  0.63156  0.70717  1.0000
  O   O1        1.0  0.50738  0.2557  0.58144  1.0000
  O   O2        1.0  0.5244800000000001  0.69581  0.4240399999999999  1.0000
  O   O3        1.0  0.73639  0.5042900000000001  0.4147899999999999  1.0000
  O   O4        1.0  0.6913  0.27729  0.42217  1.0000
  O   O5        1.0  0.49999000000000005  0.49999000000000005  0.4999799999999999  1.0000
  O   O6        1.0  0.0894  0.82569  0.93057  1.0000
  O   O7        1.0  0.81846  0.05444  0.92985  1.0000
  O   O8        1.0  0.60606  0.07715000000000001  0.91551  1.0000
  O   O9        1.0  0.64655  0.80668  0.9175699999999999  1.0000
  O   O10       1.0  0.83717  0.59341  0.91525  1.0000
  O   O11       1.0  0.06520000000000001  0.63553  0.93157  1.0000
  O   O12       1.0  0.28032  0.52735  0.5789299999999998  1.0000
  O   O13       1.0  0.06825999999999995  0.82889  0.09184  1.0000
  O   O14       1.0  0.79887  0.05741  0.07933999999999998  1.0000
  O   O15       1.0  0.58493  0.08035  0.07678  1.0000
  O   O16       1.0  0.6269600000000001  0.80965  0.06706  1.0000
  O   O17       1.0  0.81604  0.59661  0.07651  1.0000
  O   O18       1.0  0.04560999999999999  0.6385  0.08106  1.0000
  O   O19       1.0  0.83364  0.83371  0.0011  1.0000
  O   O20       1.0  0.26051000000000013  0.73959  0.58459  1.0000
  O   O21       1.0  0.5323  0.69508  0.57382  1.0000
  O   O22       1.0  0.74484  0.5035  0.57637  1.0000
  O   O23       1.0  0.69912  0.27656  0.57196  1.0000
  O   O24       1.0  0.49893999999999994  0.2565  0.41986  1.0000
  O   O25       1.0  0.2725  0.52808  0.42915  1.0000
  O   O26       1.0  0.25206  0.74038  0.4230099999999999  1.0000
  N   N1        1.0  0.028969999999999996  0.09146  0.66432  1.0000
  H   H41       1.0  0.015099999999999995  0.060050000000000006  0.61438  1.0000
  C   C61       1.0  0.12918  0.14141  0.66394  1.0000
  H   H42       1.0  0.23004  0.060020000000000004  0.64009  1.0000
  H   H43       1.0  0.15067999999999998  0.16323  0.71911  1.0000
  H   H44       1.0  0.08794  0.23802  0.63162  1.0000
  H   H45       1.0  0.48390999999999995  0.8572500000000001  0.68302  1.0000
