data_image0
_chemical_formula_structural       C124Cr12H140O52
_chemical_formula_sum              "C124 Cr12 H140 O52"
_cell_length_a       19.56361
_cell_length_b       11.24795
_cell_length_c       18.7152
_cell_angle_alpha    90.01524
_cell_angle_beta     90.09857
_cell_angle_gamma    89.99330999999998

_space_group_name_H-M_alt    "P 1"
_space_group_IT_number       1

loop_
  _space_group_symop_operation_xyz
  'x, y, z'

loop_
  _atom_site_type_symbol
  _atom_site_label
  _atom_site_symmetry_multiplicity
  _atom_site_fract_x
  _atom_site_fract_y
  _atom_site_fract_z
  _atom_site_occupancy
  C   C1        1.0  0.2742  0.04094  0.8552700000000001  1.0000
  C   C2        1.0  0.69327  0.52715  0.95719  1.0000
  C   C3        1.0  0.22723999999999997  0.54547  0.35335  1.0000
  C   C4        1.0  0.46825  0.82296  0.645  1.0000
  C   C5        1.0  0.52968  0.82294  0.35367  1.0000
  C   C6        1.0  0.9682499999999999  0.32296  0.645  1.0000
  C   C7        1.0  0.02968  0.32294  0.35367  1.0000
  C   C8        1.0  0.26136  0.64144  0.64315  1.0000
  C   C9        1.0  0.7396  0.63863  0.3557  1.0000
  C   C10       1.0  0.76136  0.14144  0.64315  1.0000
  C   C11       1.0  0.23960000000000004  0.13863  0.3557  1.0000
  C   C12       1.0  0.48062  0.9082699999999998  0.03616  1.0000
  C   C13       1.0  0.80673  0.027119999999999995  0.04278000000000001  1.0000
  C   C14       1.0  0.5194  0.9082599999999998  0.96387  1.0000
  C   C15       1.0  0.9806199999999999  0.40826999999999997  0.03616  1.0000
  C   C16       1.0  0.0194  0.40826  0.96387  1.0000
  C   C17       1.0  0.43159000000000003  0.8093599999999997  0.008820000000000003  1.0000
  C   C18       1.0  0.56842  0.8093099999999998  0.9911800000000001  1.0000
  C   C19       1.0  0.93159  0.30936  0.008820000000000003  1.0000
  C   C20       1.0  0.06842  0.3093099999999999  0.9911800000000001  1.0000
  C   C21       1.0  0.46997  0.81294  0.9367000000000001  1.0000
  C   C22       1.0  0.53004  0.8129099999999999  0.06330000000000001  1.0000
  C   C23       1.0  0.9699699999999999  0.31294  0.9367000000000001  1.0000
  C   C24       1.0  0.19328  0.027149999999999997  0.9572000000000002  1.0000
  C   C25       1.0  0.030040000000000004  0.31291  0.06330000000000001  1.0000
  C   C26       1.0  0.52963  0.5947699999999999  0.92653  1.0000
  C   C27       1.0  0.47037  0.5947999999999999  0.07341  1.0000
  C   C28       1.0  0.029630000000000007  0.09476999999999998  0.92653  1.0000
  C   C29       1.0  0.97037  0.0948  0.07341  1.0000
  C   C30       1.0  0.31723  0.55021  0.9627600000000001  1.0000
  C   C31       1.0  0.68277  0.55021  0.03722  1.0000
  C   C32       1.0  0.81723  0.05021  0.9627600000000001  1.0000
  C   C33       1.0  0.18277  0.05021  0.03722  1.0000
  C   C34       1.0  0.17671  0.51832  0.02415  1.0000
  C   C35       1.0  0.8233  0.51828  0.9758200000000001  1.0000
  C   C36       1.0  0.67671  0.01832  0.02415  1.0000
  C   C37       1.0  0.7258  0.04093  0.14472  1.0000
  C   C38       1.0  0.3233  0.01828  0.9758200000000001  1.0000
  C   C39       1.0  0.23518000000000003  0.70514  0.05498000000000001  1.0000
  C   C40       1.0  0.76483  0.70515  0.94507  1.0000
  C   C41       1.0  0.73518  0.20514  0.05498000000000001  1.0000
  C   C42       1.0  0.26483  0.20515  0.94507  1.0000
  C   C43       1.0  0.23676999999999998  0.57133  0.06863  1.0000
  C   C44       1.0  0.76323  0.57134  0.93137  1.0000
  C   C45       1.0  0.73677  0.07133  0.06863  1.0000
  C   C46       1.0  0.26323  0.07134  0.93137  1.0000
  C   C47       1.0  0.25235  0.6073999999999999  0.93099  1.0000
  C   C48       1.0  0.7742  0.54094  0.8552700000000001  1.0000
  C   C49       1.0  0.74765  0.60737  0.06901  1.0000
  C   C50       1.0  0.75235  0.1074  0.93099  1.0000
  C   C51       1.0  0.24764999999999998  0.10736999999999998  0.06901  1.0000
  C   C52       1.0  0.19199  0.52233  0.94309  1.0000
  C   C53       1.0  0.80801  0.52228  0.056880000000000014  1.0000
  C   C54       1.0  0.69198  0.022329999999999996  0.94309  1.0000
  C   C55       1.0  0.30802  0.02228  0.056880000000000014  1.0000
  C   C56       1.0  0.23545  0.7233799999999999  0.9733200000000001  1.0000
  C   C57       1.0  0.76455  0.72336  0.026730000000000004  1.0000
  C   C58       1.0  0.73545  0.22337999999999997  0.9733200000000001  1.0000
  C   C59       1.0  0.22580000000000003  0.54093  0.14472  1.0000
  C   C60       1.0  0.26454  0.22336  0.026730000000000004  1.0000
  C   C61       1.0  0.49399  0.69965  0.4578900000000001  1.0000
  C   C62       1.0  0.49205999999999994  0.6994  0.53794  1.0000
  C   C63       1.0  0.99399  0.19965  0.4578900000000001  1.0000
  C   C64       1.0  0.99206  0.19939999999999997  0.53794  1.0000
  C   C65       1.0  0.44272000000000006  0.8159799999999999  0.86254  1.0000
  C   C66       1.0  0.55729  0.8159499999999997  0.13746000000000003  1.0000
  C   C67       1.0  0.94272  0.3159799999999999  0.86254  1.0000
  C   C68       1.0  0.05729  0.31595  0.13746000000000003  1.0000
  C   C69       1.0  0.56752  0.8831399999999999  0.47294  1.0000
  C   C70       1.0  0.5181  0.7145599999999999  0.9640100000000001  1.0000
  C   C71       1.0  0.43739000000000006  0.91022  0.5266300000000002  1.0000
  C   C72       1.0  0.06753  0.38313999999999987  0.47294  1.0000
  C   C73       1.0  0.9373899999999998  0.41021999999999986  0.5266300000000002  1.0000
  C   C74       1.0  0.44538  0.9018799999999999  0.44461  1.0000
  C   C75       1.0  0.55824  0.8817799999999998  0.55505  1.0000
  C   C76       1.0  0.9453799999999999  0.40188  0.44461  1.0000
  C   C77       1.0  0.05824000000000001  0.38177999999999995  0.55505  1.0000
  C   C78       1.0  0.50823  0.8274  0.42993000000000003  1.0000
  C   C79       1.0  0.48828  0.8283399999999999  0.5684600000000002  1.0000
  C   C80       1.0  0.00822  0.3274  0.42993000000000003  1.0000
  C   C81       1.0  0.4819  0.71458  0.035960000000000006  1.0000
  C   C82       1.0  0.9882799999999999  0.32833999999999997  0.5684600000000002  1.0000
  C   C83       1.0  0.18448  0.66255  0.45694000000000007  1.0000
  C   C84       1.0  0.82236  0.64218  0.53892  1.0000
  C   C85       1.0  0.68448  0.16255  0.45694000000000007  1.0000
  C   C86       1.0  0.32236  0.14218  0.53892  1.0000
  C   C87       1.0  0.18623  0.66588  0.53697  1.0000
  C   C88       1.0  0.8202600000000001  0.6455799999999999  0.45893000000000006  1.0000
  C   C89       1.0  0.68622  0.16588  0.53697  1.0000
  C   C90       1.0  0.32026  0.14558  0.45893000000000006  1.0000
  C   C91       1.0  0.23936  0.46058  0.47265000000000007  1.0000
  C   C92       1.0  0.0181  0.21455999999999997  0.9640100000000001  1.0000
  C   C93       1.0  0.74504  0.4542  0.5272  1.0000
  C   C94       1.0  0.73936  0.9605799999999999  0.47265000000000007  1.0000
  C   C95       1.0  0.24504  0.9541999999999998  0.5272  1.0000
  C   C96       1.0  0.30931  0.63494  0.44237  1.0000
  C   C97       1.0  0.69853  0.64921  0.55761  1.0000
  C   C98       1.0  0.80931  0.13494  0.44237  1.0000
  C   C99       1.0  0.19853  0.14921  0.55761  1.0000
  C   C100      1.0  0.24065  0.5771  0.429  1.0000
  C   C101      1.0  0.76064  0.57119  0.5695  1.0000
  C   C102      1.0  0.74065  0.07709999999999999  0.429  1.0000
  C   C103      1.0  0.9819  0.21458  0.035960000000000006  1.0000
  C   C104      1.0  0.26064  0.07119  0.5695  1.0000
  C   C105      1.0  0.25315  0.60837  0.5669400000000002  1.0000
  C   C106      1.0  0.749  0.6038  0.4316400000000001  1.0000
  C   C107      1.0  0.75314  0.10837  0.5669400000000002  1.0000
  C   C108      1.0  0.24900000000000003  0.1038  0.4316400000000001  1.0000
  C   C109      1.0  0.24506999999999998  0.47617  0.55444  1.0000
  C   C110      1.0  0.74362  0.4718199999999999  0.44544  1.0000
  C   C111      1.0  0.74507  0.97617  0.55444  1.0000
  C   C112      1.0  0.24361999999999998  0.9718199999999998  0.44544  1.0000
  C   C113      1.0  0.26144  0.6402099999999998  0.8542400000000001  1.0000
  C   C114      1.0  0.30673  0.52712  0.04278000000000001  1.0000
  C   C115      1.0  0.73856  0.6401799999999999  0.14577  1.0000
  C   C116      1.0  0.76144  0.14021  0.8542400000000001  1.0000
  C   C117      1.0  0.23856  0.14018  0.14577  1.0000
  C   C118      1.0  0.31873  0.64391  0.52412  1.0000
  C   C119      1.0  0.6921  0.66431  0.47584  1.0000
  C   C120      1.0  0.81873  0.14391  0.52412  1.0000
  C   C121      1.0  0.1921  0.16430999999999998  0.47584  1.0000
  C   C122      1.0  0.27378  0.042319999999999997  0.64537  1.0000
  C   C123      1.0  0.72724  0.04547  0.35335  1.0000
  C   C124      1.0  0.77378  0.54232  0.64537  1.0000
  Cr  Cr1       1.0  0.22962  0.8360399999999999  0.74911  1.0000
  Cr  Cr2       1.0  0.61398  0.6765899999999999  0.25079  1.0000
  Cr  Cr3       1.0  0.88602  0.17659  0.7492100000000003  1.0000
  Cr  Cr4       1.0  0.11398  0.17659  0.25079  1.0000
  Cr  Cr5       1.0  0.77038  0.8360399999999999  0.25089000000000006  1.0000
  Cr  Cr6       1.0  0.72962  0.33604  0.74911  1.0000
  Cr  Cr7       1.0  0.27038  0.33604  0.25089000000000006  1.0000
  Cr  Cr8       1.0  0.38763  0.99068  0.7507300000000002  1.0000
  Cr  Cr9       1.0  0.61237  0.99068  0.24927000000000002  1.0000
  Cr  Cr10      1.0  0.8876299999999999  0.4906799999999999  0.7507300000000002  1.0000
  Cr  Cr11      1.0  0.11237  0.4906799999999999  0.24927000000000002  1.0000
  Cr  Cr12      1.0  0.38602  0.6765899999999999  0.7492100000000003  1.0000
  H   H1        1.0  0.37726  0.79662  0.021630000000000007  1.0000
  H   H2        1.0  0.71995  0.7465499999999999  0.91924  1.0000
  H   H3        1.0  0.19234  0.93023  0.5422400000000003  1.0000
  H   H4        1.0  0.2896  0.4264199999999999  0.5759400000000001  1.0000
  H   H5        1.0  0.69446  0.4400499999999999  0.42264000000000007  1.0000
  H   H6        1.0  0.7896  0.92642  0.5759400000000001  1.0000
  H   H7        1.0  0.19446  0.9400499999999999  0.42264000000000007  1.0000
  H   H8        1.0  0.31602  0.4339199999999999  0.05558  1.0000
  H   H9        1.0  0.68397  0.43396  0.94435  1.0000
  H   H10       1.0  0.81602  0.93392  0.05558  1.0000
  H   H11       1.0  0.18397  0.93396  0.94435  1.0000
  H   H12       1.0  0.34379  0.57799  0.07399  1.0000
  H   H13       1.0  0.78007  0.24650999999999998  0.08082  1.0000
  H   H14       1.0  0.65621  0.5780799999999999  0.9260200000000001  1.0000
  H   H15       1.0  0.84379  0.078  0.07399  1.0000
  H   H16       1.0  0.15621  0.07807999999999998  0.9260200000000001  1.0000
  H   H17       1.0  0.36157  0.61028  0.95505  1.0000
  H   H18       1.0  0.63843  0.6102899999999999  0.04497  1.0000
  H   H19       1.0  0.86157  0.11027  0.9550400000000001  1.0000
  H   H20       1.0  0.13843  0.11027999999999998  0.04497  1.0000
  H   H21       1.0  0.32896  0.46523  0.9349900000000002  1.0000
  H   H22       1.0  0.67105  0.46523  0.06496  1.0000
  H   H23       1.0  0.8289499999999999  0.9652299999999998  0.9349900000000002  1.0000
  H   H24       1.0  0.21995  0.24654999999999996  0.91924  1.0000
  H   H25       1.0  0.17105  0.9652199999999999  0.06496  1.0000
  H   H26       1.0  0.66342  0.93102  0.044420000000000015  1.0000
  H   H27       1.0  0.33659  0.9309899999999998  0.95551  1.0000
  H   H28       1.0  0.16342  0.43102999999999997  0.044420000000000015  1.0000
  H   H29       1.0  0.8365900000000001  0.4309899999999999  0.95551  1.0000
  H   H30       1.0  0.70457  0.93361  0.92231  1.0000
  H   H31       1.0  0.29542  0.93356  0.07762000000000001  1.0000
  H   H32       1.0  0.20458000000000004  0.43360999999999994  0.92231  1.0000
  H   H33       1.0  0.79542  0.43355999999999995  0.07762000000000001  1.0000
  H   H34       1.0  0.4797  0.55329  0.91343  1.0000
  H   H35       1.0  0.27117  0.7928099999999999  0.95856  1.0000
  H   H36       1.0  0.5585  0.60722  0.8761400000000001  1.0000
  H   H37       1.0  0.55521  0.53084  0.96256  1.0000
  H   H38       1.0  0.5203  0.55331  0.08651  1.0000
  H   H39       1.0  0.4415  0.60728  0.12381  1.0000
  H   H40       1.0  0.44479  0.53087  0.03738000000000001  1.0000
  H   H41       1.0  0.9797  0.05328999999999998  0.91343  1.0000
  H   H42       1.0  0.058499999999999996  0.10722  0.8761400000000001  1.0000
  H   H43       1.0  0.05521  0.030839999999999992  0.96256  1.0000
  H   H44       1.0  0.0203  0.0533  0.08651  1.0000
  H   H45       1.0  0.9415  0.10727999999999999  0.12381  1.0000
  H   H46       1.0  0.72882  0.7928  0.04153  1.0000
  H   H47       1.0  0.94479  0.030869999999999995  0.03738000000000001  1.0000
  H   H48       1.0  0.77118  0.29281  0.95856  1.0000
  H   H49       1.0  0.22882  0.29279  0.04153  1.0000
  H   H50       1.0  0.18297  0.75074  0.9578700000000001  1.0000
  H   H51       1.0  0.81703  0.75068  0.0422  1.0000
  H   H52       1.0  0.68297  0.25074  0.9578600000000003  1.0000
  H   H53       1.0  0.62275  0.7965399999999998  0.9783700000000002  1.0000
  H   H54       1.0  0.31703  0.25068  0.0422  1.0000
  H   H55       1.0  0.62943  0.07121  0.03379  1.0000
  H   H56       1.0  0.37058  0.07115999999999999  0.9662100000000001  1.0000
  H   H57       1.0  0.12943  0.57121  0.03379  1.0000
  H   H58       1.0  0.87058  0.57116  0.9662100000000001  1.0000
  H   H59       1.0  0.14602  0.55377  0.91368  1.0000
  H   H60       1.0  0.85398  0.55369  0.08631  1.0000
  H   H61       1.0  0.64602  0.05377  0.91368  1.0000
  H   H62       1.0  0.35398  0.05369  0.08631  1.0000
  H   H63       1.0  0.53243  0.63262  0.44184000000000007  1.0000
  H   H64       1.0  0.87726  0.29662  0.021630000000000007  1.0000
  H   H65       1.0  0.45104  0.64155  0.55551  1.0000
  H   H66       1.0  0.03243  0.13262  0.44184000000000007  1.0000
  H   H67       1.0  0.9510400000000001  0.14155  0.55551  1.0000
  H   H68       1.0  0.4453  0.6676599999999999  0.4356  1.0000
  H   H69       1.0  0.53859  0.65434  0.55878  1.0000
  H   H70       1.0  0.9452999999999999  0.16766  0.4356  1.0000
  H   H71       1.0  0.03859  0.15435  0.55878  1.0000
  H   H72       1.0  0.60816  0.82514  0.45969000000000004  1.0000
  H   H73       1.0  0.38455  0.89863  0.54347  1.0000
  H   H74       1.0  0.10815999999999999  0.32514  0.45969000000000004  1.0000
  H   H75       1.0  0.12274999999999998  0.29652999999999996  0.9783700000000002  1.0000
  H   H76       1.0  0.88455  0.3986299999999999  0.54347  1.0000
  H   H77       1.0  0.59859  0.8283699999999999  0.58154  1.0000
  H   H78       1.0  0.39951  0.86186  0.41958  1.0000
  H   H79       1.0  0.09859  0.32836999999999994  0.58154  1.0000
  H   H80       1.0  0.8995100000000001  0.36186  0.41958  1.0000
  H   H81       1.0  0.46638  0.98986  0.06585  1.0000
  H   H82       1.0  0.53365  0.98984  0.9342000000000001  1.0000
  H   H83       1.0  0.96638  0.48985999999999996  0.06585  1.0000
  H   H84       1.0  0.03365  0.4898399999999999  0.93421  1.0000
  H   H85       1.0  0.4535  0.99143  0.42112000000000005  1.0000
  H   H86       1.0  0.18883  0.74714  0.07838  1.0000
  H   H87       1.0  0.5615  0.9731299999999999  0.5773000000000003  1.0000
  H   H88       1.0  0.9534999999999999  0.49143  0.42112000000000005  1.0000
  H   H89       1.0  0.0615  0.47313  0.5773000000000003  1.0000
  H   H90       1.0  0.4522  0.00187  0.54099  1.0000
  H   H91       1.0  0.57717  0.97481  0.45462  1.0000
  H   H92       1.0  0.9521999999999999  0.50187  0.54099  1.0000
  H   H93       1.0  0.07717  0.47479999999999994  0.45462  1.0000
  H   H94       1.0  0.13179  0.63821  0.4411900000000001  1.0000
  H   H95       1.0  0.8719299999999999  0.6096199999999999  0.55597  1.0000
  H   H96       1.0  0.63179  0.13821  0.4411900000000001  1.0000
  H   H97       1.0  0.81119  0.7471199999999999  0.9217  1.0000
  H   H98       1.0  0.37193  0.10962  0.55597  1.0000
  H   H99       1.0  0.1928  0.7515099999999999  0.4343500000000001  1.0000
  H   H100      1.0  0.82145  0.73445  0.5600800000000001  1.0000
  H   H101      1.0  0.6928  0.25151  0.4343500000000001  1.0000
  H   H102      1.0  0.32145  0.23443999999999998  0.5600800000000001  1.0000
  H   H103      1.0  0.17709  0.75619  0.5545500000000001  1.0000
  H   H104      1.0  0.83466  0.73679  0.44288  1.0000
  H   H105      1.0  0.67709  0.25619  0.5545500000000001  1.0000
  H   H106      1.0  0.33466  0.23679999999999998  0.44288  1.0000
  H   H107      1.0  0.14112  0.61742  0.55817  1.0000
  H   H108      1.0  0.68883  0.24713999999999994  0.07838  1.0000
  H   H109      1.0  0.8600300000000001  0.58798  0.43609  1.0000
  H   H110      1.0  0.64112  0.11741999999999997  0.55817  1.0000
  H   H111      1.0  0.36003  0.08798  0.43609  1.0000
  H   H112      1.0  0.6896  0.92928  0.4612  1.0000
  H   H113      1.0  0.27771  0.88046  0.5430000000000003  1.0000
  H   H114      1.0  0.1896  0.4292799999999999  0.4612  1.0000
  H   H115      1.0  0.77772  0.38046  0.5430000000000003  1.0000
  H   H116      1.0  0.69898  0.9420499999999999  0.5821  1.0000
  H   H117      1.0  0.28599  0.92329  0.41926  1.0000
  H   H118      1.0  0.19898  0.44205  0.5821  1.0000
  H   H119      1.0  0.31119  0.24712  0.9217  1.0000
  H   H120      1.0  0.78599  0.42329  0.41926  1.0000
  H   H121      1.0  0.34961  0.57792  0.4184600000000001  1.0000
  H   H122      1.0  0.65176  0.60752  0.58003  1.0000
  H   H123      1.0  0.84961  0.07792  0.4184600000000001  1.0000
  H   H124      1.0  0.15176  0.10752  0.58003  1.0000
  H   H125      1.0  0.3118  0.72364  0.4168800000000001  1.0000
  H   H126      1.0  0.70505  0.73602  0.58486  1.0000
  H   H127      1.0  0.8118  0.22364  0.4168800000000001  1.0000
  H   H128      1.0  0.20505  0.23602  0.58486  1.0000
  H   H129      1.0  0.33969  0.7293999999999999  0.5402  1.0000
  H   H130      1.0  0.28007  0.7465099999999999  0.08082  1.0000
  H   H131      1.0  0.70083  0.75472  0.46429  1.0000
  H   H132      1.0  0.83969  0.22939999999999997  0.5402  1.0000
  H   H133      1.0  0.20083  0.25472  0.46429  1.0000
  H   H134      1.0  0.3573  0.57611  0.53794  1.0000
  H   H135      1.0  0.64128  0.63401  0.45780000000000004  1.0000
  H   H136      1.0  0.8573000000000001  0.07611  0.53794  1.0000
  H   H137      1.0  0.14128  0.13401  0.45780000000000004  1.0000
  H   H138      1.0  0.27944  0.39930999999999994  0.45376  1.0000
  H   H139      1.0  0.69234  0.43023  0.5422400000000003  1.0000
  H   H140      1.0  0.77944  0.89931  0.45376  1.0000
  O   O1        1.0  0.21413  0.7085699999999999  0.82989  1.0000
  O   O2        1.0  0.54283  0.7173  0.33162000000000014  1.0000
  O   O3        1.0  0.95717  0.2173  0.6683800000000002  1.0000
  O   O4        1.0  0.04283  0.2173  0.33162000000000014  1.0000
  O   O5        1.0  0.32087  0.62489  0.67313  1.0000
  O   O6        1.0  0.67913  0.62489  0.32687000000000005  1.0000
  O   O7        1.0  0.8208700000000001  0.12488999999999999  0.67313  1.0000
  O   O8        1.0  0.17913  0.12488999999999999  0.32687000000000005  1.0000
  O   O9        1.0  0.33443  0.83443  0.74968  1.0000
  O   O10       1.0  0.66557  0.83443  0.25032  1.0000
  O   O11       1.0  0.83443  0.33442999999999995  0.74968  1.0000
  O   O12       1.0  0.78587  0.7085699999999999  0.17011000000000004  1.0000
  O   O13       1.0  0.16557  0.33442999999999995  0.25032  1.0000
  O   O14       1.0  0.23604999999999998  0.9591499999999998  0.82527  1.0000
  O   O15       1.0  0.76395  0.9591499999999998  0.17473  1.0000
  O   O16       1.0  0.73605  0.45915  0.82527  1.0000
  O   O17       1.0  0.26395  0.45915  0.17473  1.0000
  O   O18       1.0  0.3321  0.07665  0.8323100000000001  1.0000
  O   O19       1.0  0.6679  0.07665  0.16769  1.0000
  O   O20       1.0  0.8320999999999998  0.57665  0.8323100000000001  1.0000
  O   O21       1.0  0.1679  0.57665  0.16769  1.0000
  O   O22       1.0  0.4465  0.9186199999999999  0.82624  1.0000
  O   O23       1.0  0.71413  0.20857  0.82989  1.0000
  O   O24       1.0  0.5535  0.9186199999999999  0.17376  1.0000
  O   O25       1.0  0.9465  0.41862  0.82624  1.0000
  O   O26       1.0  0.05349999999999999  0.41862  0.17376  1.0000
  O   O27       1.0  0.45731000000000005  0.71583  0.83128  1.0000
  O   O28       1.0  0.54269  0.71583  0.16872000000000004  1.0000
  O   O29       1.0  0.95731  0.21583  0.83128  1.0000
  O   O30       1.0  0.04269  0.21583  0.16872000000000004  1.0000
  O   O31       1.0  0.321  0.62352  0.8241300000000003  1.0000
  O   O32       1.0  0.679  0.62352  0.17587  1.0000
  O   O33       1.0  0.821  0.12352  0.8241300000000003  1.0000
  O   O34       1.0  0.28587  0.20857  0.17011000000000004  1.0000
  O   O35       1.0  0.179  0.12352  0.17587  1.0000
  O   O36       1.0  0.21399  0.71004  0.667  1.0000
  O   O37       1.0  0.78601  0.71004  0.333  1.0000
  O   O38       1.0  0.71399  0.21004  0.667  1.0000
  O   O39       1.0  0.28601  0.21004  0.333  1.0000
  O   O40       1.0  0.23591999999999996  0.9605199999999999  0.67426  1.0000
  O   O41       1.0  0.76408  0.9605199999999999  0.32574  1.0000
  O   O42       1.0  0.73592  0.4605199999999999  0.67426  1.0000
  O   O43       1.0  0.26408  0.4605199999999999  0.32574  1.0000
  O   O44       1.0  0.33196  0.07812  0.6694100000000002  1.0000
  O   O45       1.0  0.44636  0.91999  0.67523  1.0000
  O   O46       1.0  0.66804  0.07812  0.33059000000000005  1.0000
  O   O47       1.0  0.83196  0.57812  0.6694100000000002  1.0000
  O   O48       1.0  0.16804  0.57812  0.33059000000000005  1.0000
  O   O49       1.0  0.55364  0.91999  0.3247700000000001  1.0000
  O   O50       1.0  0.94636  0.4199899999999999  0.67523  1.0000
  O   O51       1.0  0.05364000000000001  0.4199899999999999  0.3247700000000001  1.0000
  O   O52       1.0  0.45716999999999997  0.7173  0.6683800000000002  1.0000
