data_image0
_chemical_formula_structural       O16H8C8H16O4V4H8C72H8
_chemical_formula_sum              "O20 H40 C80 V4"
_cell_length_a       7.22334
_cell_length_b       12.1401
_cell_length_c       29.097740000000005
_cell_angle_alpha    89.99937
_cell_angle_beta     89.98642
_cell_angle_gamma    90.23343

_space_group_name_H-M_alt    "P 1"
_space_group_IT_number       1

loop_
  _space_group_symop_operation_xyz
  'x, y, z'

loop_
  _atom_site_type_symbol
  _atom_site_label
  _atom_site_symmetry_multiplicity
  _atom_site_fract_x
  _atom_site_fract_y
  _atom_site_fract_z
  _atom_site_occupancy
  O   O1        1.0  0.64717  0.8491799999999998  0.20122  1.0000
  O   O2        1.0  0.35283  0.15082  0.79878  1.0000
  O   O3        1.0  0.35283  0.15082  0.70122  1.0000
  O   O4        1.0  0.64717  0.8491799999999998  0.29878  1.0000
  O   O5        1.0  0.14717  0.65082  0.29878  1.0000
  O   O6        1.0  0.85283  0.34918  0.70122  1.0000
  O   O7        1.0  0.85283  0.34918  0.79878  1.0000
  O   O8        1.0  0.14717  0.65082  0.20122  1.0000
  O   O9        1.0  0.31743  0.8622099999999999  0.29845  1.0000
  O   O10       1.0  0.68257  0.13779  0.70155  1.0000
  O   O11       1.0  0.68257  0.13779  0.79845  1.0000
  O   O12       1.0  0.31743  0.8622099999999999  0.20155  1.0000
  O   O13       1.0  0.81743  0.63779  0.20155  1.0000
  O   O14       1.0  0.18257  0.36221  0.79845  1.0000
  O   O15       1.0  0.18257  0.36221  0.70155  1.0000
  O   O16       1.0  0.81743  0.63779  0.29845  1.0000
  H   H1        1.0  0.96303  0.22461999999999996  0.45507  1.0000
  H   H2        1.0  0.03697  0.77538  0.54493  1.0000
  H   H3        1.0  0.03438  0.77548  0.95504  1.0000
  H   H4        1.0  0.96562  0.22452  0.04496  1.0000
  H   H5        1.0  0.53848  0.27507  0.04522  1.0000
  H   H6        1.0  0.46152  0.72493  0.9547800000000001  1.0000
  H   H7        1.0  0.46393  0.72482  0.54522  1.0000
  H   H8        1.0  0.53607  0.27518  0.45478  1.0000
  C   C1        1.0  0.48603  0.8877699999999998  0.3133300000000001  1.0000
  C   C2        1.0  0.51397  0.11223  0.68668  1.0000
  C   C3        1.0  0.51394  0.11223  0.8133200000000003  1.0000
  C   C4        1.0  0.48606  0.8877699999999998  0.18668  1.0000
  C   C5        1.0  0.98546  0.61219  0.18666000000000005  1.0000
  C   C6        1.0  0.01454  0.38781  0.81334  1.0000
  C   C7        1.0  0.01457  0.38781  0.6866600000000003  1.0000
  C   C8        1.0  0.98543  0.61219  0.3133400000000001  1.0000
  H   H9        1.0  0.0369  0.60964  0.69114  1.0000
  H   H10       1.0  0.9631  0.39036  0.30886000000000013  1.0000
  H   H11       1.0  0.9648899999999999  0.3902999999999999  0.19116  1.0000
  H   H12       1.0  0.03511  0.6097  0.80884  1.0000
  H   H13       1.0  0.48285  0.8907  0.8086300000000002  1.0000
  H   H14       1.0  0.51715  0.1093  0.19137  1.0000
  H   H15       1.0  0.51551  0.10938  0.30862  1.0000
  H   H16       1.0  0.48449  0.89062  0.69137  1.0000
  H   H17       1.0  0.95783  0.26094  0.37344  1.0000
  H   H18       1.0  0.04216999999999999  0.7390599999999999  0.62656  1.0000
  H   H19       1.0  0.0396  0.73916  0.87342  1.0000
  H   H20       1.0  0.9604  0.26084  0.12659  1.0000
  H   H21       1.0  0.53475  0.23863999999999996  0.12685  1.0000
  H   H22       1.0  0.46525  0.76136  0.87314  1.0000
  H   H23       1.0  0.46761  0.76125  0.6268600000000002  1.0000
  H   H24       1.0  0.53239  0.23874999999999993  0.37314000000000014  1.0000
  O   O17       1.0  0.48063  0.6806299999999998  0.25  1.0000
  O   O18       1.0  0.5193699999999998  0.31937  0.75  1.0000
  O   O19       1.0  0.98063  0.81937  0.25  1.0000
  O   O20       1.0  0.01937  0.18063  0.75  1.0000
  V   V1        1.0  0.2058  0.7628599999999999  0.25  1.0000
  V   V2        1.0  0.7942  0.23713999999999996  0.75  1.0000
  V   V3        1.0  0.7058  0.73714  0.25  1.0000
  V   V4        1.0  0.2942  0.26286  0.75  1.0000
  H   H25       1.0  0.97415  0.2835  0.53258  1.0000
  H   H26       1.0  0.02585  0.7165  0.46742  1.0000
  H   H27       1.0  0.02392  0.71659  0.03256  1.0000
  H   H28       1.0  0.9760800000000001  0.28341  0.96744  1.0000
  H   H29       1.0  0.53113  0.21647  0.96764  1.0000
  H   H30       1.0  0.46887  0.7835299999999997  0.03236  1.0000
  H   H31       1.0  0.47067  0.7834399999999999  0.46765  1.0000
  H   H32       1.0  0.52933  0.21655999999999997  0.53235  1.0000
  C   C9        1.0  0.9912  0.53441  0.35171000000000013  1.0000
  C   C10       1.0  0.008799999999999999  0.46559  0.6482900000000003  1.0000
  C   C11       1.0  0.00864  0.46558  0.85171  1.0000
  C   C12       1.0  0.99136  0.53442  0.14829000000000006  1.0000
  C   C13       1.0  0.49509  0.96532  0.14828  1.0000
  C   C14       1.0  0.50491  0.03467  0.85172  1.0000
  C   C15       1.0  0.50507  0.03467  0.64828  1.0000
  C   C16       1.0  0.49493  0.96533  0.35172  1.0000
  C   C17       1.0  0.97089  0.34834  0.38043  1.0000
  C   C18       1.0  0.029110000000000004  0.65166  0.61957  1.0000
  C   C19       1.0  0.0274  0.6517099999999999  0.8804100000000001  1.0000
  C   C20       1.0  0.9726  0.34829  0.11958  1.0000
  C   C21       1.0  0.52175  0.15128  0.11976  1.0000
  C   C22       1.0  0.47825  0.8487199999999999  0.88024  1.0000
  C   C23       1.0  0.47983  0.84865  0.61976  1.0000
  C   C24       1.0  0.52017  0.15135  0.38024  1.0000
  C   C25       1.0  0.97434  0.42157  0.34364  1.0000
  C   C26       1.0  0.02566  0.57843  0.6563600000000002  1.0000
  C   C27       1.0  0.0244  0.57846  0.84362  1.0000
  C   C28       1.0  0.9756  0.42154  0.15638000000000005  1.0000
  C   C29       1.0  0.51175  0.07808999999999999  0.15651  1.0000
  C   C30       1.0  0.48825  0.92191  0.8434900000000002  1.0000
  C   C31       1.0  0.48942  0.92186  0.65651  1.0000
  C   C32       1.0  0.51058  0.07814  0.34349  1.0000
  C   C33       1.0  0.00352  0.57436  0.39672  1.0000
  C   C34       1.0  0.99648  0.42564  0.60328  1.0000
  C   C35       1.0  0.99694  0.4256  0.89673  1.0000
  C   C36       1.0  0.00307  0.5744  0.10327  1.0000
  C   C37       1.0  0.48874  0.9254  0.10319000000000003  1.0000
  C   C38       1.0  0.51126  0.0746  0.8968100000000002  1.0000
  C   C39       1.0  0.51085  0.07462  0.60319  1.0000
  C   C40       1.0  0.48915  0.92537  0.39681  1.0000
  C   C41       1.0  0.9972800000000002  0.50194  0.4349300000000001  1.0000
  C   C42       1.0  0.0027199999999999998  0.49805999999999995  0.56507  1.0000
  C   C43       1.0  0.0026399999999999996  0.4980499999999999  0.9349300000000003  1.0000
  C   C44       1.0  0.99736  0.50195  0.06507  1.0000
  C   C45       1.0  0.49916  0.9978599999999997  0.06506  1.0000
  C   C46       1.0  0.50084  0.00214  0.93494  1.0000
  C   C47       1.0  0.50093  0.00214  0.56506  1.0000
  C   C48       1.0  0.49907  0.9978599999999997  0.4349400000000001  1.0000
  C   C49       1.0  0.9815  0.3873399999999999  0.4258000000000001  1.0000
  C   C50       1.0  0.0185  0.61265  0.5742  1.0000
  C   C51       1.0  0.01733  0.61269  0.92579  1.0000
  C   C52       1.0  0.9826700000000002  0.38731  0.07421  1.0000
  C   C53       1.0  0.51557  0.11236999999999998  0.07432  1.0000
  C   C54       1.0  0.48442999999999997  0.8876299999999999  0.9256800000000002  1.0000
  C   C55       1.0  0.48552  0.88759  0.57433  1.0000
  C   C56       1.0  0.51448  0.11241  0.42567  1.0000
  C   C57       1.0  0.00426  0.53924  0.48164  1.0000
  C   C58       1.0  0.99574  0.4607599999999999  0.51836  1.0000
  C   C59       1.0  0.99607  0.46074  0.9816400000000002  1.0000
  C   C60       1.0  0.00393  0.5392599999999999  0.01836  1.0000
  C   C61       1.0  0.49423  0.96072  0.01832  1.0000
  C   C62       1.0  0.50577  0.039279999999999995  0.9816800000000002  1.0000
  C   C63       1.0  0.50547  0.03929  0.51832  1.0000
  C   C64       1.0  0.49453  0.96071  0.4816800000000001  1.0000
  C   C65       1.0  0.98128  0.3477  0.50715  1.0000
  C   C66       1.0  0.01872  0.6523  0.49285  1.0000
  C   C67       1.0  0.01734  0.65236  0.00714  1.0000
  C   C68       1.0  0.98266  0.34764  0.9928600000000001  1.0000
  C   C69       1.0  0.5216  0.15222  0.993  1.0000
  C   C70       1.0  0.47839000000000004  0.84778  0.007  1.0000
  C   C71       1.0  0.47968  0.8477199999999998  0.49301000000000006  1.0000
  C   C72       1.0  0.52032  0.15228  0.50699  1.0000
  C   C73       1.0  0.97477  0.31221  0.4618800000000001  1.0000
  C   C74       1.0  0.025229999999999995  0.6877999999999997  0.53812  1.0000
  C   C75       1.0  0.02346  0.68786  0.96187  1.0000
  C   C76       1.0  0.97654  0.3121399999999999  0.038130000000000004  1.0000
  C   C77       1.0  0.52606  0.18755  0.03831000000000001  1.0000
  C   C78       1.0  0.47394  0.81244  0.96169  1.0000
  C   C79       1.0  0.47559  0.8123699999999999  0.53832  1.0000
  C   C80       1.0  0.52441  0.18763  0.4616800000000001  1.0000
  H   H33       1.0  0.98534  0.33762  0.59956  1.0000
  H   H34       1.0  0.014659999999999998  0.6623799999999997  0.40044  1.0000
  H   H35       1.0  0.01341  0.66246  0.09954  1.0000
  H   H36       1.0  0.98659  0.33754  0.90046  1.0000
  H   H37       1.0  0.52389  0.16253  0.90062  1.0000
  H   H38       1.0  0.47611  0.8374699999999998  0.09938  1.0000
  H   H39       1.0  0.47722999999999993  0.83741  0.40062  1.0000
  H   H40       1.0  0.52277  0.16259  0.59938  1.0000
