data_image0
_chemical_formula_structural       C40Cr6H23O26FC2H5FC2H5C2H5C2H5F2C2H5
_chemical_formula_sum              "C50 Cr6 H48 O26 F4"
_cell_length_a       10.99336
_cell_length_b       10.9825
_cell_length_c       18.76661
_cell_angle_alpha    89.96050000000001
_cell_angle_beta     89.38265
_cell_angle_gamma    59.86535

_space_group_name_H-M_alt    "P 1"
_space_group_IT_number       1

loop_
  _space_group_symop_operation_xyz
  'x, y, z'

loop_
  _atom_site_type_symbol
  _atom_site_label
  _atom_site_symmetry_multiplicity
  _atom_site_fract_x
  _atom_site_fract_y
  _atom_site_fract_z
  _atom_site_occupancy
  C   C1        1.0  0.23182999999999995  0.64719  0.60672  1.0000
  C   C2        1.0  0.6952699999999998  0.5308200000000001  0.8013500000000002  1.0000
  C   C3        1.0  0.69719  0.6702500000000001  0.8143200000000002  1.0000
  C   C4        1.0  0.6670199999999996  0.6446700000000001  0.67836  1.0000
  C   C5        1.0  0.8038699999999998  0.6484100000000002  0.69  1.0000
  C   C6        1.0  0.67244  0.51923  0.72116  1.0000
  C   C7        1.0  0.67772  0.14213  0.66641  1.0000
  C   C8        1.0  0.69937  0.14366  0.82274  1.0000
  C   C9        1.0  0.8093  0.07868  0.77711  1.0000
  C   C10       1.0  0.7936599999999999  0.11765  0.70105  1.0000
  C   C11       1.0  0.17927  0.65748  0.67853  1.0000
  C   C12       1.0  0.65192  0.62046  0.60256  1.0000
  C   C13       1.0  0.1765899999999999  0.6790500000000002  0.83541  1.0000
  C   C14       1.0  0.2303899999999999  0.5555400000000001  0.80012  1.0000
  C   C15       1.0  0.26389  0.55574  0.72399  1.0000
  C   C16       1.0  0.61939  0.6038300000000001  0.31039  1.0000
  C   C17       1.0  0.63451  0.66387  0.15902  1.0000
  C   C18       1.0  0.6973699999999999  0.53392  0.18633  1.0000
  C   C19       1.0  0.71389  0.50576  0.26388  1.0000
  C   C20       1.0  0.6403499999999998  0.18862  0.32186  1.0000
  C   C21       1.0  0.6295899999999998  0.20157  0.16407  1.0000
  C   C22       1.0  0.5272999999999998  0.2159  0.20893  1.0000
  C   C23       1.0  0.6289199999999998  0.22499000000000002  0.60087  1.0000
  C   C24       1.0  0.53166  0.26578  0.27898  1.0000
  C   C25       1.0  0.25012  0.62864  0.32  1.0000
  C   C26       1.0  0.19235999999999995  0.64474  0.16966  1.0000
  C   C27       1.0  0.24256999999999992  0.7199400000000001  0.20106  1.0000
  C   C28       1.0  0.2765500000000001  0.70743  0.2759  1.0000
  C   C29       1.0  0.7068399999999999  0.09444  0.89555  1.0000
  C   C30       1.0  0.7227500000000001  0.68689  0.88927  1.0000
  C   C31       1.0  0.1181399999999999  0.7071600000000002  0.90726  1.0000
  C   C32       1.0  0.67258  0.1112  0.10236  1.0000
  C   C33       1.0  0.6915399999999999  0.68794  0.09399000000000003  1.0000
  C   C34       1.0  0.288  0.62022  0.39312000000000014  1.0000
  C   C35       1.0  0.10128000000000002  0.70497  0.10957  1.0000
  C   C36       1.0  0.6159099999999998  0.58565  0.38762  1.0000
  C   C37       1.0  0.61786  0.22875000000000004  0.39537  1.0000
  C   C38       1.0  0.5533299999999999  0.79779  0.7884800000000001  1.0000
  C   C39       1.0  0.5402  0.78461  0.707  1.0000
  C   C40       1.0  0.8157199999999999  0.67457  0.76928  1.0000
  Cr  Cr1       1.0  0.39300999999999997  0.39805  0.50148  1.0000
  Cr  Cr2       1.0  0.3988199999999999  0.7079800000000002  0.50163  1.0000
  Cr  Cr3       1.0  0.7081399999999999  0.39394  0.49685  1.0000
  Cr  Cr4       1.0  0.9379499999999998  0.93845  0.00894  1.0000
  Cr  Cr5       1.0  0.62618  0.93703  0.9947500000000001  1.0000
  Cr  Cr6       1.0  0.93779  0.62576  0.0014100000000000002  1.0000
  H   H1        1.0  0.5561399999999999  0.8967800000000001  0.7975100000000003  1.0000
  H   H2        1.0  0.92272  0.59825  0.7877900000000001  1.0000
  H   H3        1.0  0.8965599999999999  0.54661  0.67328  1.0000
  H   H4        1.0  0.91204  0.0009099999999999994  0.79623  1.0000
  H   H5        1.0  0.87347  0.13342  0.6752400000000001  1.0000
  H   H6        1.0  0.5981999999999998  0.22462000000000001  0.8038000000000002  1.0000
  H   H7        1.0  0.60634  0.11338000000000001  0.69166  1.0000
  H   H8        1.0  0.36482999999999993  0.4711  0.70486  1.0000
  H   H9        1.0  0.07794999999999999  0.7461  0.69412  1.0000
  H   H10       1.0  0.7602099999999998  0.4473500000000001  0.15015  1.0000
  H   H11       1.0  0.56489  0.75728  0.18958000000000005  1.0000
  H   H12       1.0  0.5335199999999998  0.70073  0.2911  1.0000
  H   H13       1.0  0.43565  0.35501  0.29924  1.0000
  H   H14       1.0  0.69682  0.24286  0.17922000000000002  1.0000
  H   H15       1.0  0.23934  0.80956  0.17456  1.0000
  H   H16       1.0  0.43940000000000007  0.78918  0.6941700000000001  1.0000
  H   H17       1.0  0.31122000000000005  0.77682  0.2967  1.0000
  H   H18       1.0  0.20361000000000004  0.54846  0.19166  1.0000
  H   H19       1.0  0.20690999999999998  0.5642  0.3028  1.0000
  H   H20       1.0  0.53755  0.87579  0.6795500000000002  1.0000
  H   H21       1.0  0.8065899999999999  0.77968  0.77587  1.0000
  H   H22       1.0  0.60001  0.5426100000000001  0.82905  1.0000
  H   H23       1.0  0.5705  0.52197  0.71448  1.0000
  O   O1        1.0  0.50711  0.25628  0.5803  1.0000
  O   O2        1.0  0.52464  0.69537  0.4251  1.0000
  O   O3        1.0  0.73589  0.5043900000000001  0.41598000000000007  1.0000
  O   O4        1.0  0.6905600000000001  0.27782  0.42235  1.0000
  O   O5        1.0  0.4999899999999999  0.49999  0.49998  1.0000
  O   O6        1.0  0.08919000000000002  0.82587  0.93232  1.0000
  O   O7        1.0  0.81907  0.05396  0.9314400000000002  1.0000
  O   O8        1.0  0.60707  0.07644000000000002  0.9164600000000002  1.0000
  O   O9        1.0  0.6471099999999999  0.8065500000000002  0.91769  1.0000
  O   O10       1.0  0.8370799999999999  0.59386  0.9153000000000001  1.0000
  O   O11       1.0  0.06476999999999998  0.63608  0.9325500000000001  1.0000
  O   O12       1.0  0.2808299999999999  0.52719  0.57794  1.0000
  O   O13       1.0  0.06825  0.8292  0.09294  1.0000
  O   O14       1.0  0.79965  0.05704  0.08033  1.0000
  O   O15       1.0  0.58613  0.07976  0.07708  1.0000
  O   O16       1.0  0.6276999999999999  0.8096300000000002  0.06658  1.0000
  O   O17       1.0  0.81614  0.59718  0.07592  1.0000
  O   O18       1.0  0.04535999999999998  0.63917  0.08144000000000003  1.0000
  O   O19       1.0  0.8339799999999998  0.8337500000000001  0.0017  1.0000
  O   O20       1.0  0.26136  0.73899  0.58427  1.0000
  O   O21       1.0  0.53259  0.69478  0.57437  1.0000
  O   O22       1.0  0.74447  0.50375  0.5770000000000002  1.0000
  O   O23       1.0  0.69852  0.27723  0.57162  1.0000
  O   O24       1.0  0.49852999999999986  0.25692  0.41928  1.0000
  O   O25       1.0  0.27288  0.52778  0.42868000000000006  1.0000
  O   O26       1.0  0.25278  0.73963  0.42325  1.0000
  F   F1        1.0  0.7756099999999998  0.3908300000000001  0.6942300000000002  1.0000
  C   C41       1.0  0.28001999999999994  0.41567000000000004  0.83775  1.0000
  C   C42       1.0  0.31117999999999996  0.29377  0.7872300000000002  1.0000
  H   H24       1.0  0.21633  0.31726  0.75653  1.0000
  H   H25       1.0  0.39724  0.27162000000000003  0.74927  1.0000
  H   H26       1.0  0.34502000000000005  0.19746  0.8187600000000002  1.0000
  H   H27       1.0  0.37581  0.3893  0.86856  1.0000
  H   H28       1.0  0.19958999999999996  0.42197000000000007  0.87563  1.0000
  F   F2        1.0  0.15671000000000002  0.79574  0.80006  1.0000
  C   C43       1.0  0.42377999999999993  0.81033  0.8296000000000001  1.0000
  C   C44       1.0  0.30238000000000004  0.9618100000000002  0.83403  1.0000
  H   H29       1.0  0.3318  0.023  0.86968  1.0000
  H   H30       1.0  0.27582  0.01013  0.78029  1.0000
  H   H31       1.0  0.20815999999999998  0.96517  0.8580100000000002  1.0000
  H   H32       1.0  0.38932999999999973  0.74276  0.8035200000000002  1.0000
  H   H33       1.0  0.4499099999999998  0.7711000000000001  0.8850100000000001  1.0000
  C   C45       1.0  0.8440399999999999  0.37129  0.28965  1.0000
  C   C46       1.0  0.9486999999999999  0.27356  0.233  1.0000
  H   H34       1.0  0.90033  0.23177000000000006  0.19631  1.0000
  H   H35       1.0  0.99363  0.32876  0.20243  1.0000
  H   H36       1.0  0.03526999999999999  0.18146000000000004  0.26003000000000004  1.0000
  H   H37       1.0  0.9059699999999998  0.40167  0.3242  1.0000
  H   H38       1.0  0.8101699999999998  0.30829  0.32086  1.0000
  C   C47       1.0  0.42503999999999986  0.16300000000000006  0.1948  1.0000
  C   C48       1.0  0.32122999999999996  0.18845000000000006  0.25568  1.0000
  H   H39       1.0  0.37778  0.13912  0.3056700000000001  1.0000
  H   H40       1.0  0.24903999999999998  0.30303  0.26425  1.0000
  H   H41       1.0  0.25853  0.1388  0.24146  1.0000
  H   H42       1.0  0.36265  0.21595  0.1467  1.0000
  H   H43       1.0  0.48581  0.04733  0.18557  1.0000
  F   F3        1.0  0.76184  0.07407  0.29896  1.0000
  F   F4        1.0  0.8045499999999998  0.75364  0.64935  1.0000
  C   C49       1.0  0.8135699999999999  0.39195  0.83472  1.0000
  C   C50       1.0  0.9660899999999996  0.34082  0.81252  1.0000
  H   H44       1.0  0.030209999999999983  0.22601000000000002  0.8224100000000002  1.0000
  H   H45       1.0  0.9769499999999999  0.35855  0.75541  1.0000
  H   H46       1.0  0.011239999999999984  0.39153000000000004  0.84523  1.0000
  H   H47       1.0  0.80446  0.39587  0.8937600000000001  1.0000
  H   H48       1.0  0.7918199999999994  0.30895  0.81948  1.0000
