data_image0
_chemical_formula_structural       C56Cr6H20O26CO2HCO2HCO2HCO2HCH3CH3CH3CH3CH3CH3CH3CH3
_chemical_formula_sum              "C68 Cr6 H48 O34"
_cell_length_a       11.70562
_cell_length_b       18.54239
_cell_length_c       10.199659999999998
_cell_angle_alpha    90.02184000000001
_cell_angle_beta     110.83728
_cell_angle_gamma    90.02579999999999

_space_group_name_H-M_alt    "P 1"
_space_group_IT_number       1

loop_
  _space_group_symop_operation_xyz
  'x, y, z'

loop_
  _atom_site_type_symbol
  _atom_site_label
  _atom_site_symmetry_multiplicity
  _atom_site_fract_x
  _atom_site_fract_y
  _atom_site_fract_z
  _atom_site_occupancy
  C   C1        1.0  0.06902  0.64837  0.13769  1.0000
  C   C2        1.0  0.9299799999999999  0.35233  0.8617499999999999  1.0000
  C   C3        1.0  0.9327600000000001  0.14923  0.8617600000000001  1.0000
  C   C4        1.0  0.07929999999999998  0.8560000000000001  0.14219999999999997  1.0000
  C   C5        1.0  0.44283  0.47532  0.5915  1.0000
  C   C6        1.0  0.5605  0.525  0.4098399999999999  1.0000
  C   C7        1.0  0.53625  0.97712  0.36531  1.0000
  C   C8        1.0  0.37087  0.05338  0.45185999999999993  1.0000
  C   C9        1.0  0.39497999999999994  0.9329  0.9426199999999999  1.0000
  C   C10       1.0  0.63899  0.06112  0.9832299999999999  1.0000
  C   C11       1.0  0.6333699999999999  0.43837000000000004  0.9839399999999999  1.0000
  C   C12       1.0  0.39041999999999993  0.56498  0.97148  1.0000
  C   C13       1.0  0.50917  0.95586  0.97269  1.0000
  C   C14       1.0  0.53848  0.0328  0.99432  1.0000
  C   C15       1.0  0.5369  0.46591000000000005  0.006619999999999999  1.0000
  C   C16       1.0  0.49641  0.5407  0.96847  1.0000
  C   C17       1.0  0.03380999999999999  0.9301000000000001  0.12201999999999999  1.0000
  C   C18       1.0  0.011310000000000008  0.08485  0.89424  1.0000
  C   C19       1.0  0.0014599999999999873  0.41935  0.89706  1.0000
  C   C20       1.0  0.99578  0.5822700000000001  0.10099  1.0000
  C   C21       1.0  0.04284999999999999  0.9692500000000001  0.01584  1.0000
  C   C22       1.0  0.025  0.047270000000000006  0.01083  1.0000
  C   C23       1.0  0.9876399999999999  0.46221  0.9969399999999999  1.0000
  C   C24       1.0  0.006919999999999988  0.54008  0.99835  1.0000
  C   C25       1.0  0.43694999999999995  0.63797  0.37608  1.0000
  C   C26       1.0  0.56405  0.36194  0.62468  1.0000
  C   C27       1.0  0.52748  0.14902  0.55568  1.0000
  C   C28       1.0  0.43417  0.8607  0.37211  1.0000
  C   C29       1.0  0.37343  0.64252  0.97136  1.0000
  C   C30       1.0  0.64902  0.36046  0.987  1.0000
  C   C31       1.0  0.65054  0.13968  0.98536  1.0000
  C   C32       1.0  0.37358  0.8573  0.96895  1.0000
  C   C33       1.0  0.5462099999999999  0.43839  0.5830799999999999  1.0000
  C   C34       1.0  0.45851  0.56205  0.4199399999999999  1.0000
  C   C35       1.0  0.44275999999999993  0.93867  0.39556  1.0000
  C   C36       1.0  0.48608999999999997  0.08384  0.46996000000000004  1.0000
  C   C37       1.0  0.38014  0.45492000000000005  0.68199  1.0000
  C   C38       1.0  0.6147  0.54196  0.3095  1.0000
  C   C39       1.0  0.61124  0.9493700000000002  0.29301  1.0000
  C   C40       1.0  0.27176  0.09524  0.45582  1.0000
  C   C41       1.0  0.27026  0.48758  0.67191  1.0000
  C   C42       1.0  0.7126899999999999  0.50156  0.30152  1.0000
  C   C43       1.0  0.71624  0.98569  0.29529  1.0000
  C   C44       1.0  0.17079999999999998  0.06276  0.47176999999999997  1.0000
  C   C45       1.0  0.21488999999999997  0.53542  0.56335  1.0000
  C   C46       1.0  0.7639199999999999  0.44792  0.40074  1.0000
  C   C47       1.0  0.75362  0.04616  0.37973  1.0000
  C   C48       1.0  0.16624  0.98819  0.48463  1.0000
  C   C49       1.0  0.26652  0.54243  0.45922  1.0000
  C   C50       1.0  0.73338  0.44972  0.52156  1.0000
  C   C51       1.0  0.69363  0.06082  0.47213  1.0000
  C   C52       1.0  0.26918  0.94684  0.49274  1.0000
  C   C53       1.0  0.39302  0.53178  0.49823  1.0000
  C   C54       1.0  0.61168  0.46852  0.50304  1.0000
  C   C55       1.0  0.5693  0.04395  0.4284  1.0000
  C   C56       1.0  0.36064  0.9776900000000001  0.44642999999999994  1.0000
  Cr  Cr1       1.0  0.18760999999999994  0.7500000000000001  0.9798599999999998  1.0000
  Cr  Cr2       1.0  0.8123899999999998  0.25  0.02014  1.0000
  Cr  Cr3       1.0  0.24580999999999997  0.7500000000000001  0.34164  1.0000
  Cr  Cr4       1.0  0.75419  0.25  0.65836  1.0000
  Cr  Cr5       1.0  0.48576  0.7500000000000001  0.21991  1.0000
  Cr  Cr6       1.0  0.5142399999999999  0.25  0.7800899999999998  1.0000
  H   H1        1.0  0.22417  0.47209999999999996  0.74192  1.0000
  H   H2        1.0  0.7500399999999999  0.5136  0.22134  1.0000
  H   H3        1.0  0.7692  0.9653600000000001  0.23592999999999997  1.0000
  H   H4        1.0  0.10047999999999999  0.09653  0.4839899999999999  1.0000
  H   H5        1.0  0.41452  0.41486  0.76195  1.0000
  H   H6        1.0  0.5790000000000001  0.5832  0.23234  1.0000
  H   H7        1.0  0.59092  0.90174  0.23093  1.0000
  H   H8        1.0  0.27205  0.15343  0.44742  1.0000
  H   H9        1.0  0.47549  0.0681  0.02036  1.0000
  H   H10       1.0  0.58279  0.91684  0.9932899999999999  1.0000
  H   H11       1.0  0.55631  0.57879  0.9436  1.0000
  H   H12       1.0  0.48317  0.43014  0.04623  1.0000
  H   H13       1.0  0.0018999999999999976  0.07142  0.09412  1.0000
  H   H14       1.0  0.06049000000000004  0.94306  0.9303700000000001  1.0000
  H   H15       1.0  0.040929999999999966  0.56185  0.9205699999999999  1.0000
  H   H16       1.0  0.9462199999999998  0.44145000000000006  0.06856  1.0000
  H   H17       1.0  0.03937000000000003  0.06159  0.81328  1.0000
  H   H18       1.0  0.011509999999999996  0.9561800000000001  0.20505  1.0000
  H   H19       1.0  0.95407  0.56172  0.17284  1.0000
  H   H20       1.0  0.04812  0.43883  0.8295  1.0000
  O   O1        1.0  0.26770999999999995  0.6682  0.9021099999999999  1.0000
  O   O2        1.0  0.73229  0.3318  0.09789  1.0000
  O   O3        1.0  0.73229  0.1682  0.09789  1.0000
  O   O4        1.0  0.26770999999999995  0.8318000000000001  0.9021099999999999  1.0000
  O   O5        1.0  0.09948  0.67446  0.038849999999999996  1.0000
  O   O6        1.0  0.9005199999999999  0.32554  0.9611499999999998  1.0000
  O   O7        1.0  0.9005199999999999  0.17446  0.9611499999999998  1.0000
  O   O8        1.0  0.09948  0.82554  0.038849999999999996  1.0000
  O   O9        1.0  0.11672  0.66921  0.26766  1.0000
  O   O10       1.0  0.88328  0.33079  0.73234  1.0000
  O   O11       1.0  0.88328  0.16921  0.73234  1.0000
  O   O12       1.0  0.11672  0.8307900000000001  0.26766  1.0000
  O   O13       1.0  0.36671  0.67544  0.42759  1.0000
  O   O14       1.0  0.63329  0.32456  0.57241  1.0000
  O   O15       1.0  0.63329  0.17544  0.57241  1.0000
  O   O16       1.0  0.3667100000000001  0.8245600000000001  0.42759  1.0000
  O   O17       1.0  0.53487  0.66939  0.37176  1.0000
  O   O18       1.0  0.46512999999999993  0.33061  0.6282399999999999  1.0000
  O   O19       1.0  0.46512999999999993  0.16939  0.6282399999999999  1.0000
  O   O20       1.0  0.53487  0.83061  0.37176  1.0000
  O   O21       1.0  0.4530799999999999  0.67448  0.07516  1.0000
  O   O22       1.0  0.54692  0.32552  0.92484  1.0000
  O   O23       1.0  0.54692  0.17448  0.92484  1.0000
  O   O24       1.0  0.4530799999999999  0.82552  0.07516  1.0000
  O   O25       1.0  0.30639  0.7500000000000001  0.18047  1.0000
  O   O26       1.0  0.6936099999999998  0.25  0.8195299999999999  1.0000
  C   C57       1.0  0.10143  0.5731300000000001  0.55621  1.0000
  O   O27       1.0  0.030039999999999983  0.5956600000000001  0.44473999999999997  1.0000
  O   O28       1.0  0.07854999999999997  0.5854  0.6797599999999999  1.0000
  H   H21       1.0  0.003679999999999987  0.61645  0.6643  1.0000
  C   C58       1.0  0.8682  0.40406  0.39614999999999995  1.0000
  O   O29       1.0  0.90917  0.35556  0.48095  1.0000
  O   O30       1.0  0.9189999999999999  0.41716  0.29388  1.0000
  H   H22       1.0  0.98807  0.38266000000000006  0.30063  1.0000
  C   C59       1.0  0.85229  0.0936  0.37338  1.0000
  O   O31       1.0  0.88253  0.14637  0.45006999999999997  1.0000
  O   O32       1.0  0.90571  0.08107000000000002  0.27337  1.0000
  H   H23       1.0  0.9598399999999999  0.12275  0.26772  1.0000
  C   C60       1.0  0.06174  0.95384  0.50938  1.0000
  O   O33       1.0  0.01731999999999998  0.89829  0.4476899999999999  1.0000
  O   O34       1.0  0.020279999999999923  0.98154  0.6107699999999999  1.0000
  H   H24       1.0  0.96103  0.9474000000000001  0.63119  1.0000
  C   C61       1.0  0.19871  0.50426  0.32485  1.0000
  H   H25       1.0  0.21228  0.53354  0.23811  1.0000
  H   H26       1.0  0.10167  0.49712000000000006  0.31029  1.0000
  H   H27       1.0  0.23502999999999993  0.44874  0.32577999999999996  1.0000
  C   C62       1.0  0.82482  0.4961400000000001  0.62923  1.0000
  H   H28       1.0  0.91886  0.48061  0.64061  1.0000
  H   H29       1.0  0.81252  0.49449000000000004  0.72998  1.0000
  H   H30       1.0  0.81291  0.55346  0.59508  1.0000
  C   C63       1.0  0.76156  0.03724  0.61935  1.0000
  H   H31       1.0  0.72564  0.06468  0.69223  1.0000
  H   H32       1.0  0.8583599999999999  0.04958  0.64695  1.0000
  H   H33       1.0  0.7526000000000002  0.9780100000000002  0.62979  1.0000
  C   C64       1.0  0.3004199999999999  0.88883  0.60481  1.0000
  H   H34       1.0  0.26999  0.90546  0.68948  1.0000
  H   H35       1.0  0.24846999999999997  0.83839  0.56491  1.0000
  H   H36       1.0  0.40055  0.87942  0.6528  1.0000
  C   C65       1.0  0.72717  0.01563  0.9427600000000002  1.0000
  H   H37       1.0  0.7769  0.9774999999999999  0.02673  1.0000
  H   H38       1.0  0.6780700000000001  0.98469  0.84576  1.0000
  H   H39       1.0  0.79383  0.05052000000000001  0.92209  1.0000
  C   C66       1.0  0.28908999999999996  0.9855499999999999  0.9035499999999999  1.0000
  H   H40       1.0  0.29925  0.02771  0.831  1.0000
  H   H41       1.0  0.20219  0.9580700000000001  0.84647  1.0000
  H   H42       1.0  0.28361  0.0111  0.9996  1.0000
  C   C67       1.0  0.31229  0.51969  0.02914  1.0000
  H   H43       1.0  0.3658  0.50315  0.13824  1.0000
  H   H44       1.0  0.23552999999999996  0.55217  0.03325  1.0000
  H   H45       1.0  0.27719  0.47050000000000003  0.96651  1.0000
  C   C68       1.0  0.70566  0.48190000000000005  0.91859  1.0000
  H   H46       1.0  0.64635  0.51176  0.82531  1.0000
  H   H47       1.0  0.7642899999999999  0.52074  0.9953899999999999  1.0000
  H   H48       1.0  0.7593099999999999  0.44407  0.8816099999999999  1.0000
