data_image0
_chemical_formula_structural       O8C4O8C4O4V4C4H12C52H16C3H7C3H7C3H7C3H7
_chemical_formula_sum              "O20 C76 V4 H56"
_cell_length_a       7.25349
_cell_length_b       15.291749999999999
_cell_length_c       22.311799999999998
_cell_angle_alpha    90.00035999999999
_cell_angle_beta     87.93658000000002
_cell_angle_gamma    90.00026000000001

_symmetry_space_group_name_H-M    'P 1'
_symmetry_Int_Tables_number       1

loop_
  _symmetry_equiv_pos_as_xyz
  'x,y,z'

loop_
  _atom_site_type_symbol
  _atom_site_label
  _atom_site_symmetry_multiplicity
  _atom_site_fract_x
  _atom_site_fract_y
  _atom_site_fract_z
  _atom_site_occupancy
  O   O1        1.0  0.3908100000000001  0.84481  0.44734000000000007  1.0000
  O   O2        1.0  0.10919000000000001  0.15519  0.94734  1.0000
  O   O3        1.0  0.89081  0.65519  0.55266  1.0000
  O   O4        1.0  0.60919  0.34481  0.05266  1.0000
  O   O5        1.0  0.7205500000000002  0.65582  0.44042000000000003  1.0000
  O   O6        1.0  0.7794500000000001  0.34418  0.94042  1.0000
  O   O7        1.0  0.22055  0.8441799999999999  0.55958  1.0000
  O   O8        1.0  0.27945  0.15582  0.05958000000000001  1.0000
  C   C1        1.0  0.55501  0.6279199999999998  0.42558  1.0000
  C   C2        1.0  0.9507600000000003  0.3723  0.9261800000000001  1.0000
  C   C3        1.0  0.04924  0.8723  0.57382  1.0000
  C   C4        1.0  0.4449900000000001  0.12793  0.07442  1.0000
  O   O9        1.0  0.72053  0.8441299999999998  0.44042000000000003  1.0000
  O   O10       1.0  0.77947  0.15587  0.94042  1.0000
  O   O11       1.0  0.22052999999999998  0.65587  0.55958  1.0000
  O   O12       1.0  0.2794700000000001  0.34413  0.05958000000000001  1.0000
  O   O13       1.0  0.8908300000000002  0.84481  0.55266  1.0000
  O   O14       1.0  0.60917  0.15519  0.05266  1.0000
  O   O15       1.0  0.39083  0.65519  0.44734000000000007  1.0000
  O   O16       1.0  0.10917  0.34481  0.94734  1.0000
  C   C5        1.0  0.55452  0.8716399999999997  0.42549  1.0000
  C   C6        1.0  0.9496900000000003  0.12847  0.9257200000000001  1.0000
  C   C7        1.0  0.05031  0.62847  0.57428  1.0000
  C   C8        1.0  0.4454800000000001  0.37163  0.07451  1.0000
  O   O17       1.0  0.5573100000000002  0.7499799999999999  0.53682  1.0000
  O   O18       1.0  0.9426900000000002  0.25002  0.03682  1.0000
  O   O19       1.0  0.057309999999999986  0.75002  0.4631800000000001  1.0000
  O   O20       1.0  0.44269  0.24998  0.9631800000000001  1.0000
  V   V1        1.0  0.83216  0.7499799999999999  0.49317  1.0000
  V   V2        1.0  0.6678400000000002  0.25002  0.99317  1.0000
  V   V3        1.0  0.3321600000000001  0.75002  0.50683  1.0000
  V   V4        1.0  0.16784  0.24998  0.00683  1.0000
  C   C9        1.0  0.09142999999999998  0.59225  0.8668400000000002  1.0000
  C   C10       1.0  0.7011300000000001  0.41809  0.35162  1.0000
  C   C11       1.0  0.2988800000000001  0.91809  0.14838  1.0000
  C   C12       1.0  0.9085600000000003  0.09224  0.63316  1.0000
  H   H1        1.0  0.061199999999999984  0.53313  0.9535600000000001  1.0000
  H   H2        1.0  0.7309400000000003  0.47665999999999986  0.43765  1.0000
  H   H3        1.0  0.2690800000000001  0.9766599999999998  0.06235000000000001  1.0000
  H   H4        1.0  0.9387400000000002  0.033109999999999994  0.54644  1.0000
  H   H5        1.0  0.14867  0.7164499999999998  0.7848000000000002  1.0000
  H   H6        1.0  0.7292600000000002  0.2980699999999999  0.26655  1.0000
  H   H7        1.0  0.27076  0.7980699999999997  0.23345  1.0000
  H   H8        1.0  0.8513700000000003  0.21645  0.7152  1.0000
  H   H9        1.0  0.14730000000000001  0.6515599999999998  0.8851  1.0000
  H   H10       1.0  0.78683  0.3630699999999999  0.36274  1.0000
  H   H11       1.0  0.21319000000000002  0.86307  0.13726  1.0000
  H   H12       1.0  0.8526700000000003  0.15155  0.61491  1.0000
  C   C13       1.0  0.9741300000000003  0.44588  0.88409  1.0000
  C   C14       1.0  0.56209  0.5559299999999998  0.38148  1.0000
  C   C15       1.0  0.43791000000000013  0.05593999999999998  0.11852  1.0000
  C   C16       1.0  0.025869999999999997  0.94588  0.61591  1.0000
  C   C17       1.0  0.024479999999999995  0.4711399999999999  0.59187  1.0000
  C   C18       1.0  0.3682200000000001  0.5236  0.09752  1.0000
  C   C19       1.0  0.63177  0.023609999999999996  0.40248  1.0000
  C   C20       1.0  0.9754800000000002  0.9711399999999998  0.90813  1.0000
  C   C21       1.0  0.03568  0.39688  0.62806  1.0000
  C   C22       1.0  0.36128  0.59772  0.13437  1.0000
  C   C23       1.0  0.6387100000000003  0.09772999999999998  0.36564  1.0000
  C   C24       1.0  0.9642900000000001  0.89688  0.87194  1.0000
  C   C25       1.0  0.02993  0.40626  0.69059  1.0000
  C   C26       1.0  0.40945  0.58978  0.19447  1.0000
  C   C27       1.0  0.59055  0.08979  0.30553  1.0000
  C   C28       1.0  0.9700700000000002  0.9062699999999998  0.8094100000000001  1.0000
  C   C29       1.0  0.029360000000000004  0.48967  0.71747  1.0000
  C   C30       1.0  0.47826  0.51045  0.21728  1.0000
  C   C31       1.0  0.52174  0.01045  0.28272  1.0000
  C   C32       1.0  0.97067  0.98967  0.78253  1.0000
  C   C33       1.0  0.05053  0.5643299999999998  0.67948  1.0000
  C   C34       1.0  0.5041200000000001  0.4386299999999999  0.17672  1.0000
  C   C35       1.0  0.4958900000000001  0.93863  0.32328  1.0000
  C   C36       1.0  0.9494900000000001  0.06434  0.8205200000000001  1.0000
  C   C37       1.0  0.02188000000000002  0.50065  0.78103  1.0000
  C   C38       1.0  0.5308500000000002  0.50146  0.27828  1.0000
  C   C39       1.0  0.4691500000000001  0.0014699999999999995  0.22173  1.0000
  C   C40       1.0  0.97815  0.00065  0.71897  1.0000
  C   C41       1.0  0.07331999999999997  0.58262  0.8049100000000001  1.0000
  C   C42       1.0  0.62867  0.42514  0.29461  1.0000
  C   C43       1.0  0.3713400000000001  0.92514  0.20539  1.0000
  C   C44       1.0  0.9267100000000003  0.08262  0.69509  1.0000
  C   C45       1.0  0.10856  0.65382  0.76676  1.0000
  C   C46       1.0  0.6564600000000003  0.35669  0.25379  1.0000
  C   C47       1.0  0.34355  0.85669  0.24621  1.0000
  C   C48       1.0  0.8914700000000002  0.15382  0.7332400000000002  1.0000
  C   C49       1.0  0.08807  0.6460099999999998  0.7052  1.0000
  C   C50       1.0  0.5898  0.36201  0.19640000000000002  1.0000
  C   C51       1.0  0.41021000000000013  0.8620099999999998  0.3036  1.0000
  C   C52       1.0  0.91197  0.14601  0.7948  1.0000
  C   C53       1.0  0.9670000000000002  0.4331299999999999  0.8217700000000001  1.0000
  C   C54       1.0  0.49350000000000005  0.5656599999999998  0.32355  1.0000
  C   C55       1.0  0.5065  0.06566  0.17646000000000003  1.0000
  C   C56       1.0  0.03304  0.93313  0.67823  1.0000
  C   C57       1.0  0.04246999999999998  0.52465  0.9059400000000001  1.0000
  C   C58       1.0  0.6692300000000002  0.4828599999999999  0.39434  1.0000
  C   C59       1.0  0.33078  0.98286  0.10566  1.0000
  C   C60       1.0  0.9575000000000002  0.024639999999999992  0.59406  1.0000
  C   C61       1.0  0.038579999999999996  0.5545199999999998  0.6164900000000001  1.0000
  C   C62       1.0  0.44335000000000013  0.44535  0.11721  1.0000
  C   C63       1.0  0.5566500000000001  0.94535  0.3828  1.0000
  C   C64       1.0  0.96142  0.05452  0.8835100000000001  1.0000
  H   H13       1.0  0.9196100000000003  0.37045  0.8061600000000001  1.0000
  H   H14       1.0  0.41566  0.62412  0.31479  1.0000
  H   H15       1.0  0.5843200000000002  0.12413  0.18522  1.0000
  H   H16       1.0  0.08043999999999998  0.8704599999999999  0.69384  1.0000
  H   H17       1.0  0.01533  0.46444  0.54374  1.0000
  H   H18       1.0  0.3196000000000001  0.52621  0.052270000000000004  1.0000
  H   H19       1.0  0.68038  0.02621  0.4477300000000001  1.0000
  H   H20       1.0  0.9846000000000004  0.9644299999999998  0.95625  1.0000
  H   H21       1.0  0.03552999999999998  0.3478699999999999  0.7175900000000002  1.0000
  H   H22       1.0  0.40091000000000004  0.64795  0.22173  1.0000
  H   H23       1.0  0.59908  0.14795999999999995  0.27827  1.0000
  H   H24       1.0  0.9644800000000002  0.8478699999999998  0.7824000000000001  1.0000
  H   H25       1.0  0.10965000000000001  0.70361  0.67763  1.0000
  H   H26       1.0  0.6112300000000003  0.3063599999999999  0.167  1.0000
  H   H27       1.0  0.38878999999999997  0.8063599999999997  0.3330000000000001  1.0000
  H   H28       1.0  0.8903800000000002  0.20361  0.8223700000000002  1.0000
  C   C65       1.0  0.05071000000000002  0.30726  0.60038  1.0000
  C   C66       1.0  0.19947  0.30164  0.5498  1.0000
  C   C67       1.0  0.21975  0.20821999999999993  0.52665  1.0000
  H   H29       1.0  0.30358  0.16878999999999997  0.55739  1.0000
  H   H30       1.0  0.08336000000000006  0.17696  0.52285  1.0000
  H   H31       1.0  0.2860900000000001  0.20914  0.4811500000000001  1.0000
  H   H32       1.0  0.16120000000000004  0.34347  0.51154  1.0000
  H   H33       1.0  0.3340700000000001  0.32461  0.56615  1.0000
  H   H34       1.0  0.08395000000000001  0.25839  0.63519  1.0000
  H   H35       1.0  0.91535  0.29061  0.58242  1.0000
  C   C68       1.0  0.31044000000000016  0.68724  0.11093  1.0000
  C   C69       1.0  0.3064100000000001  0.69381  0.0421  1.0000
  C   C70       1.0  0.31367  0.78822  0.02029  1.0000
  H   H36       1.0  0.18147000000000005  0.8218999999999997  0.03171  1.0000
  H   H37       1.0  0.4301600000000001  0.82363  0.04022  1.0000
  H   H38       1.0  0.33841999999999994  0.78914  0.9710100000000002  1.0000
  H   H39       1.0  0.42596  0.65901  0.02116  1.0000
  H   H40       1.0  0.17972  0.66208  0.0264  1.0000
  H   H41       1.0  0.17383  0.7064  0.13091  1.0000
  H   H42       1.0  0.4153400000000001  0.73408  0.12681  1.0000
  C   C71       1.0  0.68954  0.18725  0.38907  1.0000
  C   C72       1.0  0.69353  0.19382  0.4579000000000001  1.0000
  C   C73       1.0  0.6862700000000003  0.28823  0.47972000000000004  1.0000
  H   H43       1.0  0.8184700000000003  0.32191  0.46829  1.0000
  H   H44       1.0  0.56978  0.32362999999999986  0.45978  1.0000
  H   H45       1.0  0.6615200000000002  0.28915  0.52899  1.0000
  H   H46       1.0  0.5739700000000002  0.15901999999999994  0.47885  1.0000
  H   H47       1.0  0.8202200000000002  0.16209  0.47361000000000003  1.0000
  H   H48       1.0  0.8261600000000002  0.2064  0.3691  1.0000
  H   H49       1.0  0.58465  0.23409  0.37319  1.0000
  C   C74       1.0  0.94923  0.80726  0.89961  1.0000
  C   C75       1.0  0.8002700000000003  0.80162  0.9501300000000001  1.0000
  C   C76       1.0  0.7801600000000002  0.7082199999999997  0.9733300000000001  1.0000
  H   H50       1.0  0.69646  0.6687  0.9426  1.0000
  H   H51       1.0  0.91661  0.67703  0.97717  1.0000
  H   H52       1.0  0.71378  0.70917  0.01883  1.0000
  H   H53       1.0  0.8382300000000003  0.84354  0.9883800000000001  1.0000
  H   H54       1.0  0.6656900000000002  0.8244699999999998  0.9337  1.0000
  H   H55       1.0  0.9161700000000002  0.75838  0.86479  1.0000
  H   H56       1.0  0.08452  0.79064  0.91763  1.0000
