data_image0
_chemical_formula_structural       C44Cu2H60N10O11
_chemical_formula_sum              "C44 Cu2 H60 N10 O11"
_cell_length_a       10.94866
_cell_length_b       13.030219999999998
_cell_length_c       11.77908
_cell_angle_alpha    100.21415
_cell_angle_beta     93.86475
_cell_angle_gamma    91.87418

_symmetry_space_group_name_H-M    'P 1'
_symmetry_Int_Tables_number       1

loop_
  _symmetry_equiv_pos_as_xyz
  'x,y,z'

loop_
  _atom_site_type_symbol
  _atom_site_label
  _atom_site_symmetry_multiplicity
  _atom_site_fract_x
  _atom_site_fract_y
  _atom_site_fract_z
  _atom_site_occupancy
  C   C1        1.0  0.49922  0.29846  0.47712999999999994  1.0000
  C   C2        1.0  0.53887  0.030449999999999987  0.54583  1.0000
  C   C3        1.0  0.50863  0.96536  0.43772  1.0000
  C   C4        1.0  0.25971  0.50245  0.50094  1.0000
  C   C5        1.0  0.49992999999999993  0.85759  0.43233999999999995  1.0000
  C   C6        1.0  0.54312  0.87988  0.63969  1.0000
  C   C7        1.0  0.55753  0.9872499999999997  0.64602  1.0000
  C   C8        1.0  0.37949  0.4092  0.02232  1.0000
  C   C9        1.0  0.38902  0.41361  0.14383  1.0000
  C   C10       1.0  0.55221  0.5420799999999999  0.15817  1.0000
  C   C11       1.0  0.54498  0.53548  0.0358  1.0000
  C   C12       1.0  0.87731  0.49001000000000006  0.49975  1.0000
  C   C13       1.0  0.46137  0.4643499999999999  0.967  1.0000
  C   C14       1.0  0.45697  0.45162  0.8438  1.0000
  C   C15       1.0  0.60584  0.5908899999999999  0.8580999999999999  1.0000
  C   C16       1.0  0.5046899999999999  0.7008599999999999  0.52161  1.0000
  C   C17       1.0  0.61709  0.5992199999999999  0.98069  1.0000
  C   C18       1.0  0.73954  0.4948499999999998  0.4995  1.0000
  C   C19       1.0  0.07821999999999998  0.4306199999999999  0.59748  1.0000
  C   C20       1.0  0.9331199999999998  0.43886  0.60249  1.0000
  C   C21       1.0  0.07371  0.60888  0.53872  1.0000
  C   C22       1.0  0.05990999999999999  0.44533  0.38077  1.0000
  C   C23       1.0  0.93152  0.6063799999999998  0.52282  1.0000
  C   C24       1.0  0.12073999999999997  0.49776999999999993  0.50341  1.0000
  C   C25       1.0  0.10893999999999998  0.4368  0.80399  1.0000
  C   C26       1.0  0.13083  0.52118  0.91111  1.0000
  C   C27       1.0  0.8914399999999998  0.7777699999999997  0.47048999999999996  1.0000
  C   C28       1.0  0.32851  0.9125999999999997  0.20145  1.0000
  C   C29       1.0  0.54691  0.14722999999999997  0.15859  1.0000
  C   C30       1.0  0.41288  0.26121  0.7888100000000001  1.0000
  C   C31       1.0  0.07906  0.23013999999999996  0.60067  1.0000
  C   C32       1.0  0.80625  0.6739699999999997  0.8445299999999999  1.0000
  C   C33       1.0  0.2373  0.27633  0.12212  1.0000
  C   C34       1.0  0.9188299999999999  0.4271699999999998  0.38272999999999996  1.0000
  C   C35       1.0  0.16048999999999997  0.20944999999999994  0.18696999999999997  1.0000
  C   C36       1.0  0.7982699999999999  0.3401  0.69916  1.0000
  C   C37       1.0  0.81355  0.24128  0.75023  1.0000
  C   C38       1.0  0.054529999999999995  0.58585  0.25109  1.0000
  C   C39       1.0  0.76603  0.27618  0.35513000000000006  1.0000
  C   C40       1.0  0.51511  0.8144499999999998  0.53256  1.0000
  C   C41       1.0  0.50977  0.18367999999999998  0.45879999999999993  1.0000
  C   C42       1.0  0.48502999999999996  0.009609999999999994  0.33807  1.0000
  C   C43       1.0  0.48791  0.11886  0.34808  1.0000
  C   C44       1.0  0.54487  0.13807  0.55372  1.0000
  Cu  Cu1       1.0  0.50935  0.5077299999999999  0.61593  1.0000
  Cu  Cu2       1.0  0.49065  0.49227000000000004  0.3840700000000001  1.0000
  H   H1        1.0  0.8716  0.4548199999999999  0.30822  1.0000
  H   H2        1.0  0.9192  0.49703999999999987  0.68112  1.0000
  H   H3        1.0  0.10254  0.63951  0.6312  1.0000
  H   H4        1.0  0.89824  0.6454999999999997  0.60593  1.0000
  H   H5        1.0  0.10103  0.36794999999999994  0.36789000000000005  1.0000
  H   H6        1.0  0.16674  0.37099999999999994  0.8143399999999998  1.0000
  H   H7        1.0  0.013589999999999968  0.4077599999999999  0.8011699999999999  1.0000
  H   H8        1.0  0.0671  0.585  0.90613  1.0000
  H   H9        1.0  0.11489999999999996  0.4873099999999999  0.9891599999999999  1.0000
  H   H10       1.0  0.22629  0.55424  0.9182000000000001  1.0000
  H   H11       1.0  0.81341  0.6371499999999998  0.38254  1.0000
  H   H12       1.0  0.11829999999999997  0.6656299999999998  0.49372  1.0000
  H   H13       1.0  0.87411  0.81518  0.3936299999999999  1.0000
  H   H14       1.0  0.98153  0.80849  0.51442  1.0000
  H   H15       1.0  0.81808  0.79848  0.53021  1.0000
  H   H16       1.0  0.51604  0.8877399999999999  0.20444999999999997  1.0000
  H   H17       1.0  0.30133  0.8562999999999997  0.25674  1.0000
  H   H18       1.0  0.31355  0.87396  0.10941999999999999  1.0000
  H   H19       1.0  0.26895  0.9802399999999999  0.21593  1.0000
  H   H20       1.0  0.37335  0.13918  0.21268  1.0000
  H   H21       1.0  0.57356  0.22398999999999994  0.13716  1.0000
  H   H22       1.0  0.50396  0.09749999999999998  0.07836  1.0000
  H   H23       1.0  0.47887  0.8062499999999998  0.35027  1.0000
  H   H24       1.0  0.63011  0.10874999999999996  0.18582999999999997  1.0000
  H   H25       1.0  0.34303  0.3747999999999999  0.6993  1.0000
  H   H26       1.0  0.5116  0.2566399999999999  0.81507  1.0000
  H   H27       1.0  0.35731999999999997  0.23215999999999995  0.85248  1.0000
  H   H28       1.0  0.38712  0.20777  0.70597  1.0000
  H   H29       1.0  0.20993999999999996  0.31922  0.53785  1.0000
  H   H30       1.0  0.1519  0.17236999999999994  0.59298  1.0000
  H   H31       1.0  0.9986699999999998  0.19305999999999995  0.54419  1.0000
  H   H32       1.0  0.05789  0.24548999999999999  0.69174  1.0000
  H   H33       1.0  0.63734  0.73014  0.80744  1.0000
  H   H34       1.0  0.5536  0.84872  0.71844  1.0000
  H   H35       1.0  0.81929  0.7225399999999997  0.9322900000000001  1.0000
  H   H36       1.0  0.8548500000000002  0.7161599999999999  0.7859800000000001  1.0000
  H   H37       1.0  0.84742  0.59745  0.84514  1.0000
  H   H38       1.0  0.29596  0.22410999999999995  0.06584  1.0000
  H   H39       1.0  0.17093  0.31262  0.06725  1.0000
  H   H40       1.0  0.06398  0.23081999999999994  0.17919000000000002  1.0000
  H   H41       1.0  0.16225999999999996  0.1259  0.14627  1.0000
  H   H42       1.0  0.19404  0.21858999999999995  0.27948  1.0000
  H   H43       1.0  0.7027499999999998  0.3383799999999999  0.66481  1.0000
  H   H44       1.0  0.8111499999999999  0.40842  0.77077  1.0000
  H   H45       1.0  0.5794099999999999  0.03672000000000002  0.7296000000000001  1.0000
  H   H46       1.0  0.9004399999999999  0.24640999999999993  0.80531  1.0000
  H   H47       1.0  0.73749  0.23172999999999994  0.80577  1.0000
  H   H48       1.0  0.8119800000000003  0.17174999999999996  0.68019  1.0000
  H   H49       1.0  0.08839  0.43192  0.20649999999999996  1.0000
  H   H50       1.0  0.09523  0.59853  0.17067  1.0000
  H   H51       1.0  0.08772  0.6536999999999998  0.31628  1.0000
  H   H52       1.0  0.95386  0.58329  0.23296  1.0000
  H   H53       1.0  0.9404699999999999  0.26964  0.30989  1.0000
  H   H54       1.0  0.76268  0.18970999999999996  0.33335  1.0000
  H   H55       1.0  0.7156899999999999  0.30839  0.2855  1.0000
  H   H56       1.0  0.57379  0.18656  0.63552  1.0000
  H   H57       1.0  0.72377  0.29565  0.43751  1.0000
  H   H58       1.0  0.30510999999999994  0.36643000000000003  0.9695900000000001  1.0000
  H   H59       1.0  0.67974  0.6571699999999999  0.03352  1.0000
  H   H60       1.0  0.61816  0.59649  0.21206999999999998  1.0000
  N   N1        1.0  0.52343  0.51936  0.79013  1.0000
  N   N2        1.0  0.8916399999999999  0.31450999999999996  0.36980999999999997  1.0000
  N   N3        1.0  0.47657  0.48064  0.20988  1.0000
  N   N4        1.0  0.8909799999999999  0.66559  0.43407000000000007  1.0000
  N   N5        1.0  0.45632999999999996  0.94621  0.22701000000000002  1.0000
  N   N6        1.0  0.46010999999999996  0.16223  0.2473  1.0000
  N   N7        1.0  0.38327  0.36685  0.77749  1.0000
  N   N8        1.0  0.12122  0.32378999999999997  0.56179  1.0000
  N   N9        1.0  0.67744  0.65975  0.80556  1.0000
  N   N10       1.0  0.0958  0.48847000000000007  0.27994  1.0000
  O   O1        1.0  0.50664  0.35446  0.582  1.0000
  O   O2        1.0  0.31086  0.35424  0.19954  1.0000
  O   O3        1.0  0.87436  0.34028  0.60583  1.0000
  O   O4        1.0  0.49084  0.3414099999999999  0.3862  1.0000
  O   O5        1.0  0.32559  0.50651  0.5979  1.0000
  O   O6        1.0  0.30979  0.4934499999999999  0.40209999999999996  1.0000
  O   O7        1.0  0.50916  0.6585899999999999  0.6138  1.0000
  O   O8        1.0  0.49336  0.64554  0.418  1.0000
  O   O9        1.0  0.69021  0.50655  0.5979  1.0000
  O   O10       1.0  0.6744099999999998  0.4934899999999999  0.40209999999999996  1.0000
  O   O11       1.0  0.13914  0.47907999999999995  0.70621  1.0000
