data_image0
_chemical_formula_structural       O4C2O4C2O2V2C4H4C4H2C36H18O4C2O4C2O2V2C3H7C3H7C3H7C3H7
_chemical_formula_sum              "O20 C64 V4 H52"
_cell_length_a       21.88574
_cell_length_b       7.23407
_cell_length_c       14.88166
_cell_angle_alpha    89.99945
_cell_angle_beta     106.78997
_cell_angle_gamma    90.00392

_symmetry_space_group_name_H-M    'P 1'
_symmetry_Int_Tables_number       1

loop_
  _symmetry_equiv_pos_as_xyz
  'x,y,z'

loop_
  _atom_site_type_symbol
  _atom_site_label
  _atom_site_symmetry_multiplicity
  _atom_site_fract_x
  _atom_site_fract_y
  _atom_site_fract_z
  _atom_site_occupancy
  O   O1        1.0  0.58477  0.5057699999999999  0.00209  1.0000
  O   O2        1.0  0.4152300000000001  0.00577  0.9979100000000002  1.0000
  O   O3        1.0  0.46706  0.17333999999999994  0.8619500000000002  1.0000
  O   O4        1.0  0.53294  0.6733399999999998  0.13805000000000003  1.0000
  C   C1        1.0  0.45409  0.34421  0.8262200000000002  1.0000
  C   C2        1.0  0.54591  0.84422  0.17378000000000005  1.0000
  O   O5        1.0  0.58751  0.17589  0.9932100000000003  1.0000
  O   O6        1.0  0.41249  0.67589  0.00679  1.0000
  O   O7        1.0  0.53654  0.00815  0.1301  1.0000
  O   O8        1.0  0.46346  0.50815  0.8699  1.0000
  C   C3        1.0  0.61177  0.3447999999999999  0.9931  1.0000
  C   C4        1.0  0.38822999999999996  0.84478  0.006900000000000002  1.0000
  O   O9        1.0  0.48314  0.34004  0.044760000000000015  1.0000
  O   O10       1.0  0.51686  0.8400399999999999  0.9552400000000001  1.0000
  V   V1        1.0  0.50313  0.06418999999999998  0.9917000000000002  1.0000
  V   V2        1.0  0.49687  0.56419  0.0083  1.0000
  C   C5        1.0  0.21354000000000006  0.7361999999999999  0.9955100000000002  1.0000
  C   C6        1.0  0.78643  0.23615999999999998  0.004380000000000002  1.0000
  C   C7        1.0  0.17748000000000003  0.8892  0.9853200000000002  1.0000
  C   C8        1.0  0.82254  0.38912999999999986  0.014740000000000003  1.0000
  H   H1        1.0  0.19398999999999997  0.60323  0.0068800000000000016  1.0000
  H   H2        1.0  0.80595  0.10325999999999998  0.9928400000000002  1.0000
  H   H3        1.0  0.19568  0.01814  0.96594  1.0000
  H   H4        1.0  0.80437  0.51798  0.03427  1.0000
  C   C9        1.0  0.2783  0.7389899999999998  0.9826600000000002  1.0000
  C   C10       1.0  0.72168  0.23889999999999995  0.01724  1.0000
  C   C11       1.0  0.32591  0.85609  0.02695  1.0000
  C   C12       1.0  0.6741  0.35616  0.97305  1.0000
  H   H5        1.0  0.28755  0.6355299999999998  0.9352800000000001  1.0000
  H   H6        1.0  0.71241  0.13527  0.06452000000000001  1.0000
  C   C13       1.0  0.9301299999999999  0.8865899999999998  0.7235000000000003  1.0000
  C   C14       1.0  0.06986  0.3866  0.27649  1.0000
  C   C15       1.0  0.57591  0.85368  0.27499000000000007  1.0000
  C   C16       1.0  0.42409000000000013  0.35365999999999986  0.7250100000000003  1.0000
  C   C17       1.0  0.9451800000000001  0.88404  0.5676000000000002  1.0000
  C   C18       1.0  0.05481  0.3840499999999999  0.4324  1.0000
  C   C19       1.0  0.9702499999999998  0.88862  0.66603  1.0000
  C   C20       1.0  0.029749999999999988  0.3886299999999999  0.33397  1.0000
  C   C21       1.0  0.86442  0.88231  0.68491  1.0000
  C   C22       1.0  0.13558000000000003  0.38229  0.31508000000000014  1.0000
  C   C23       1.0  0.83614  0.88527  0.58697  1.0000
  C   C24       1.0  0.16386000000000006  0.38524999999999987  0.4130300000000001  1.0000
  C   C25       1.0  0.87718  0.88173  0.52782  1.0000
  C   C26       1.0  0.12282000000000001  0.38173  0.4721800000000001  1.0000
  C   C27       1.0  0.76821  0.8896199999999997  0.54673  1.0000
  C   C28       1.0  0.23179000000000005  0.3895499999999999  0.4532600000000001  1.0000
  C   C29       1.0  0.7413300000000002  0.87665  0.4473700000000001  1.0000
  C   C30       1.0  0.25867  0.3766199999999999  0.55263  1.0000
  C   C31       1.0  0.78339  0.87043  0.39122  1.0000
  C   C32       1.0  0.21661000000000005  0.3704499999999999  0.6087800000000002  1.0000
  C   C33       1.0  0.8492699999999999  0.87535  0.43031  1.0000
  C   C34       1.0  0.15072999999999998  0.3753899999999999  0.56969  1.0000
  C   C35       1.0  0.72627  0.91027  0.60285  1.0000
  C   C36       1.0  0.27373000000000003  0.4100799999999999  0.39714  1.0000
  C   C37       1.0  0.66064  0.9082899999999998  0.5642100000000001  1.0000
  C   C38       1.0  0.33937  0.4080199999999999  0.4357800000000001  1.0000
  C   C39       1.0  0.63361  0.8878899999999998  0.46805  1.0000
  C   C40       1.0  0.36639000000000005  0.38771  0.5319400000000002  1.0000
  C   C41       1.0  0.67323  0.87286  0.4077200000000001  1.0000
  C   C42       1.0  0.32677  0.3727999999999999  0.59228  1.0000
  C   C43       1.0  0.56683  0.88501  0.43176  1.0000
  C   C44       1.0  0.43317  0.3847699999999999  0.56822  1.0000
  C   C45       1.0  0.53818  0.86835  0.3357400000000001  1.0000
  C   C46       1.0  0.46182  0.36819  0.66426  1.0000
  C   C47       1.0  0.64264  0.85511  0.31018  1.0000
  C   C48       1.0  0.3573500000000001  0.3551399999999999  0.6898200000000002  1.0000
  H   H7        1.0  0.87799  0.87255  0.38218000000000013  1.0000
  H   H8        1.0  0.12201  0.3726099999999999  0.61782  1.0000
  H   H9        1.0  0.66893  0.8424  0.25944  1.0000
  H   H10       1.0  0.33107000000000003  0.34254  0.7405600000000002  1.0000
  H   H11       1.0  0.48659  0.86843  0.30867  1.0000
  H   H12       1.0  0.51341  0.36822  0.69132  1.0000
  H   H13       1.0  0.63064  0.92376  0.61039  1.0000
  H   H14       1.0  0.36935999999999997  0.42337999999999987  0.3895900000000001  1.0000
  H   H15       1.0  0.02108000000000004  0.89266  0.6997200000000002  1.0000
  H   H16       1.0  0.9789200000000001  0.39268  0.30028  1.0000
  H   H17       1.0  0.83693  0.8747699999999999  0.7342300000000003  1.0000
  H   H18       1.0  0.16306000000000004  0.37475999999999987  0.26576  1.0000
  H   H19       1.0  0.76694  0.8646  0.31578  1.0000
  H   H20       1.0  0.23306000000000004  0.36464  0.6842200000000003  1.0000
  H   H21       1.0  0.74227  0.9325299999999997  0.67746  1.0000
  H   H22       1.0  0.25774  0.4322899999999999  0.32253  1.0000
  H   H23       1.0  0.53667  0.8969799999999999  0.47786  1.0000
  H   H24       1.0  0.46331999999999995  0.39662999999999987  0.5221200000000001  1.0000
  O   O11       1.0  0.03645  0.23307  0.13013  1.0000
  O   O12       1.0  0.96355  0.7330699999999998  0.8698700000000003  1.0000
  O   O13       1.0  0.9124699999999999  0.56057  0.00679  1.0000
  O   O14       1.0  0.08753000000000004  0.06057  0.9932100000000003  1.0000
  C   C49       1.0  0.8877  0.39211999999999997  0.00496  1.0000
  C   C50       1.0  0.11230000000000001  0.8921399999999998  0.9950500000000001  1.0000
  O   O15       1.0  0.032920000000000005  0.56294  0.13805000000000003  1.0000
  O   O16       1.0  0.9670799999999999  0.06293999999999998  0.8619500000000002  1.0000
  O   O17       1.0  0.08479  0.7305  0.00209  1.0000
  O   O18       1.0  0.91521  0.23049999999999995  0.9979100000000002  1.0000
  C   C51       1.0  0.04355  0.39428999999999986  0.17452  1.0000
  C   C52       1.0  0.95644  0.89429  0.8254800000000002  1.0000
  O   O19       1.0  0.01681999999999999  0.39617  0.95526  1.0000
  O   O20       1.0  0.9831799999999999  0.89617  0.044740000000000016  1.0000
  V   V3        1.0  0.99688  0.6720899999999997  0.0083  1.0000
  V   V4        1.0  0.003120000000000054  0.17208999999999994  0.9917000000000002  1.0000
  C   C53       1.0  0.32166  0.9852699999999998  0.10588000000000002  1.0000
  C   C54       1.0  0.31997  0.8768299999999998  0.19391000000000005  1.0000
  C   C55       1.0  0.31924  0.0067199999999999985  0.27441  1.0000
  H   H25       1.0  0.36284  0.09408  0.29351  1.0000
  H   H26       1.0  0.27635  0.09686999999999998  0.2539600000000001  1.0000
  H   H27       1.0  0.3179  0.9244999999999998  0.33684  1.0000
  H   H28       1.0  0.27684  0.78795  0.1787  1.0000
  H   H29       1.0  0.36274  0.78631  0.2166  1.0000
  H   H30       1.0  0.36427  0.07684  0.12574  1.0000
  H   H31       1.0  0.28019  0.07924999999999997  0.08330000000000003  1.0000
  C   C56       1.0  0.6784  0.48561  0.8942600000000003  1.0000
  C   C57       1.0  0.67994  0.3774799999999999  0.8060700000000002  1.0000
  C   C58       1.0  0.68118  0.5077  0.7259200000000002  1.0000
  H   H32       1.0  0.6379100000000001  0.5964799999999998  0.70702  1.0000
  H   H33       1.0  0.72442  0.59647  0.74663  1.0000
  H   H34       1.0  0.68222  0.42571  0.66328  1.0000
  H   H35       1.0  0.72282  0.2875799999999999  0.82124  1.0000
  H   H36       1.0  0.63692  0.28798  0.78305  1.0000
  H   H37       1.0  0.63585  0.5774599999999998  0.87454  1.0000
  H   H38       1.0  0.71993  0.57932  0.91689  1.0000
  C   C59       1.0  0.98979  0.8830599999999997  0.50488  1.0000
  C   C60       1.0  0.06223  0.8834999999999997  0.5548  1.0000
  C   C61       1.0  0.10059000000000004  0.88277  0.4838000000000001  1.0000
  H   H39       1.0  0.08934  0.75827  0.4387  1.0000
  H   H40       1.0  0.0892  0.00644  0.43807  1.0000
  H   H41       1.0  0.15243  0.88317  0.5213200000000002  1.0000
  H   H42       1.0  0.07599  0.007579999999999998  0.59987  1.0000
  H   H43       1.0  0.07592000000000002  0.7602299999999997  0.60054  1.0000
  H   H44       1.0  0.97906  0.76078  0.4588  1.0000
  H   H45       1.0  0.9786399999999998  0.0035199999999999993  0.4574800000000001  1.0000
  C   C62       1.0  0.010210000000000026  0.38306  0.4951200000000001  1.0000
  C   C63       1.0  0.93777  0.3834799999999999  0.4452000000000001  1.0000
  C   C64       1.0  0.89941  0.38274999999999987  0.5162  1.0000
  H   H46       1.0  0.9106599999999999  0.25826  0.56132  1.0000
  H   H47       1.0  0.9107999999999999  0.50643  0.5619300000000003  1.0000
  H   H48       1.0  0.8475700000000002  0.3831  0.4786900000000001  1.0000
  H   H49       1.0  0.92401  0.50756  0.4001300000000001  1.0000
  H   H50       1.0  0.92408  0.2602  0.39946  1.0000
  H   H51       1.0  0.020940000000000025  0.26079  0.5412100000000001  1.0000
  H   H52       1.0  0.021359999999999983  0.50353  0.54252  1.0000
