data_image0
_chemical_formula_structural       O12C12O12C30Zn6C60OHOHOHOHOHOHCH3CH3CH3CH3CH3CH3CH3CH3CH3CH3CH3CH3CH3CH3CH3CH3CH3CH3CH3CH3CH3CH3CH3CH3
_chemical_formula_sum              "O30 C126 Zn6 H78"
_cell_length_a       16.67688
_cell_length_b       16.87996
_cell_length_c       16.9011
_cell_angle_alpha    65.87974
_cell_angle_beta     65.92905
_cell_angle_gamma    65.93788

_space_group_name_H-M_alt    "P 1"
_space_group_IT_number       1

loop_
  _space_group_symop_operation_xyz
  'x, y, z'

loop_
  _atom_site_type_symbol
  _atom_site_label
  _atom_site_symmetry_multiplicity
  _atom_site_fract_x
  _atom_site_fract_y
  _atom_site_fract_z
  _atom_site_occupancy
  O   O1        1.0  0.98294  0.13895000000000002  0.51016  1.0000
  O   O2        1.0  0.017059999999999995  0.86105  0.4898399999999999  1.0000
  O   O3        1.0  0.13894999999999985  0.51016  0.98294  1.0000
  O   O4        1.0  0.86105  0.4898399999999999  0.017059999999999992  1.0000
  O   O5        1.0  0.5101600000000003  0.9829399999999997  0.13894999999999996  1.0000
  O   O6        1.0  0.4898399999999999  0.01706000000000002  0.86105  1.0000
  O   O7        1.0  0.4898400000000001  0.86105  0.017059999999999992  1.0000
  O   O8        1.0  0.5101599999999998  0.13895  0.98294  1.0000
  O   O9        1.0  0.017060000000000155  0.4898399999999998  0.86105  1.0000
  O   O10       1.0  0.98294  0.5101599999999998  0.13894999999999996  1.0000
  O   O11       1.0  0.8610499999999999  0.01706000000000002  0.4898399999999999  1.0000
  O   O12       1.0  0.13895000000000005  0.9829399999999999  0.51016  1.0000
  C   C1        1.0  0.32643000000000016  0.9494699999999996  0.45915  1.0000
  C   C2        1.0  0.66886  0.06508  0.53933  1.0000
  C   C3        1.0  0.94926  0.46086  0.32317  1.0000
  C   C4        1.0  0.01624000000000021  0.5575099999999997  0.6789999999999998  1.0000
  C   C5        1.0  0.4626500000000001  0.32694  0.939  1.0000
  C   C6        1.0  0.5632199999999999  0.6834  0.00458  1.0000
  C   C7        1.0  0.53807  0.05729999999999994  0.67421  1.0000
  C   C8        1.0  0.4339100000000001  0.0011600000000000312  0.3145599999999999  1.0000
  C   C9        1.0  0.67489  0.5392399999999998  0.04970999999999998  1.0000
  C   C10       1.0  0.33000000000000007  0.46061000000000013  0.9370799999999998  1.0000
  C   C11       1.0  0.04954999999999992  0.67741  0.53827  1.0000
  C   C12       1.0  0.9985099999999999  0.3170599999999999  0.4329599999999999  1.0000
  O   O13       1.0  0.8676999999999997  0.025880000000000014  0.61234  1.0000
  O   O14       1.0  0.13230000000000008  0.97412  0.3876599999999999  1.0000
  O   O15       1.0  0.025880000000000156  0.6123399999999998  0.8676999999999998  1.0000
  O   O16       1.0  0.9741199999999999  0.38766  0.13229999999999997  1.0000
  O   O17       1.0  0.61234  0.8677  0.02588  1.0000
  O   O18       1.0  0.3876600000000001  0.13230000000000008  0.9741199999999998  1.0000
  O   O19       1.0  0.38766000000000006  0.9741199999999998  0.13229999999999997  1.0000
  O   O20       1.0  0.6123400000000001  0.025880000000000045  0.8676999999999998  1.0000
  O   O21       1.0  0.13230000000000006  0.3876600000000001  0.9741199999999998  1.0000
  O   O22       1.0  0.8676999999999998  0.6123399999999998  0.02588  1.0000
  O   O23       1.0  0.9741200000000001  0.13230000000000003  0.3876599999999999  1.0000
  O   O24       1.0  0.02588000000000005  0.8676999999999999  0.61234  1.0000
  C   C13       1.0  0.97652  0.17751000000000003  0.4316299999999999  1.0000
  C   C14       1.0  0.038160000000000124  0.8208399999999997  0.56162  1.0000
  C   C15       1.0  0.1796399999999998  0.43821  0.96132  1.0000
  C   C16       1.0  0.8203999999999996  0.56075  0.03965999999999999  1.0000
  C   C17       1.0  0.43135000000000007  0.9771299999999998  0.17736  1.0000
  C   C18       1.0  0.56197  0.038370000000000015  0.82049  1.0000
  C   C19       1.0  0.5680599999999999  0.82204  0.024469999999999992  1.0000
  C   C20       1.0  0.43819999999999987  0.17965000000000003  0.9609599999999998  1.0000
  C   C21       1.0  0.02610999999999995  0.56709  0.82171  1.0000
  C   C22       1.0  0.96098  0.43862  0.17920999999999995  1.0000
  C   C23       1.0  0.8202599999999999  0.038590000000000055  0.5618699999999998  1.0000
  C   C24       1.0  0.17967000000000008  0.9608  0.43885999999999986  1.0000
  C   C25       1.0  0.40334000000000003  0.98204  0.4096299999999999  1.0000
  C   C26       1.0  0.58146  0.05172000000000006  0.5850099999999998  1.0000
  C   C27       1.0  0.9796699999999998  0.41228000000000004  0.4007799999999999  1.0000
  C   C28       1.0  0.02849999999999999  0.5946900000000002  0.5846899999999998  1.0000
  C   C29       1.0  0.41872  0.41509999999999986  0.9475  1.0000
  C   C30       1.0  0.5961799999999998  0.58861  0.02022  1.0000
  C   C31       1.0  0.27975000000000017  0.93943  0.4105899999999999  1.0000
  C   C32       1.0  0.7195700000000002  0.06468  0.5903199999999997  1.0000
  C   C33       1.0  0.93984  0.41074  0.27803  1.0000
  C   C34       1.0  0.034860000000000044  0.6010100000000002  0.72474  1.0000
  C   C35       1.0  0.41092000000000006  0.27934000000000003  0.9346199999999998  1.0000
  C   C36       1.0  0.6034  0.72605  0.030849999999999995  1.0000
  C   C37       1.0  0.5892  0.06351000000000002  0.72127  1.0000
  C   C38       1.0  0.39497  0.9727999999999999  0.27242  1.0000
  C   C39       1.0  0.7203999999999999  0.588  0.06145999999999999  1.0000
  C   C40       1.0  0.28013000000000005  0.41015999999999986  0.93499  1.0000
  C   C41       1.0  0.058980000000000046  0.7221099999999998  0.58898  1.0000
  C   C42       1.0  0.9713299999999999  0.27338  0.39479  1.0000
  Zn  Zn1       1.0  0.004879999999999997  0.004879999999999994  0.58359  1.0000
  Zn  Zn2       1.0  0.99512  0.9951199999999999  0.41641  1.0000
  Zn  Zn3       1.0  0.004880000000000052  0.5835899999999999  0.00488  1.0000
  Zn  Zn4       1.0  0.9951200000000004  0.41640999999999995  0.9951199999999998  1.0000
  Zn  Zn5       1.0  0.58359  0.004880000000000001  0.00488  1.0000
  Zn  Zn6       1.0  0.41641000000000006  0.9951199999999999  0.9951199999999998  1.0000
  C   C43       1.0  0.44288000000000005  0.06391999999999999  0.71003  1.0000
  C   C44       1.0  0.50477  0.04429  0.26669  1.0000
  C   C45       1.0  0.06051000000000014  0.7117599999999997  0.4429499999999999  1.0000
  C   C46       1.0  0.04252  0.27015  0.50289  1.0000
  C   C47       1.0  0.70581  0.4435599999999999  0.06493  1.0000
  C   C48       1.0  0.2964399999999999  0.5558  0.9245899999999998  1.0000
  C   C49       1.0  0.2994500000000002  0.9269299999999997  0.5550699999999997  1.0000
  C   C50       1.0  0.69899  0.08616000000000003  0.4434299999999999  1.0000
  C   C51       1.0  0.55902  0.2932199999999999  0.9260599999999998  1.0000
  C   C52       1.0  0.4901700000000001  0.7311100000000001  0.9646099999999997  1.0000
  C   C53       1.0  0.9291299999999998  0.55733  0.2937  1.0000
  C   C54       1.0  0.98957  0.4761099999999999  0.7216099999999998  1.0000
  C   C55       1.0  0.32415  0.93364  0.3233899999999999  1.0000
  C   C56       1.0  0.6751400000000001  0.07743999999999998  0.67505  1.0000
  C   C57       1.0  0.9335299999999999  0.3233999999999999  0.32322  1.0000
  C   C58       1.0  0.06717000000000022  0.6761799999999999  0.6757499999999997  1.0000
  C   C59       1.0  0.3249400000000002  0.32568999999999976  0.92082  1.0000
  C   C60       1.0  0.6751299999999997  0.6751  0.06855  1.0000
  C   C61       1.0  0.66039  0.06043000000000003  0.39950999999999987  1.0000
  C   C62       1.0  0.3300400000000002  0.9629799999999998  0.5972799999999998  1.0000
  C   C63       1.0  0.014250000000000129  0.4184499999999998  0.6688699999999997  1.0000
  C   C64       1.0  0.9641699999999999  0.59993  0.3249899999999999  1.0000
  C   C65       1.0  0.4307200000000001  0.6843599999999999  0.9769399999999998  1.0000
  C   C66       1.0  0.60071  0.3269200000000001  0.9597399999999998  1.0000
  C   C67       1.0  0.5644599999999999  0.03404999999999999  0.31232  1.0000
  C   C68       1.0  0.4054600000000001  0.025900000000000045  0.6768299999999998  1.0000
  C   C69       1.0  0.33404000000000006  0.5955599999999998  0.9553499999999998  1.0000
  C   C70       1.0  0.6766300000000001  0.40477  0.02424  1.0000
  C   C71       1.0  0.029560000000000034  0.31667999999999996  0.56273  1.0000
  C   C72       1.0  0.021459999999999903  0.68064  0.40434  1.0000
  C   C73       1.0  0.70383  0.05313  0.30931  1.0000
  C   C74       1.0  0.2844900000000002  0.9700799999999997  0.68719  1.0000
  C   C75       1.0  0.031869999999999996  0.32328  0.70491  1.0000
  C   C76       1.0  0.9725899999999996  0.68983  0.28045999999999993  1.0000
  C   C77       1.0  0.3366300000000001  0.7266799999999998  0.9826899999999997  1.0000
  C   C78       1.0  0.68889  0.28020000000000006  0.9748799999999997  1.0000
  C   C79       1.0  0.65624  0.03604999999999999  0.26747  1.0000
  C   C80       1.0  0.32264  0.0010199999999999953  0.72691  1.0000
  C   C81       1.0  0.28705000000000014  0.68062  0.9739899999999998  1.0000
  C   C82       1.0  0.72686  0.31964  0.006489999999999998  1.0000
  C   C83       1.0  0.037910000000000055  0.2722  0.6523099999999997  1.0000
  C   C84       1.0  0.9985999999999999  0.73089  0.32162  1.0000
  C   C85       1.0  0.5302100000000001  0.022670000000000037  0.4055499999999999  1.0000
  C   C86       1.0  0.45048  0.017360000000000007  0.58863  1.0000
  C   C87       1.0  0.012260000000000047  0.41136999999999996  0.52902  1.0000
  C   C88       1.0  0.009160000000000123  0.5940499999999997  0.4488199999999999  1.0000
  C   C89       1.0  0.42135000000000006  0.5481399999999998  0.9690299999999997  1.0000
  C   C90       1.0  0.5941400000000001  0.4534199999999999  0.00085  1.0000
  C   C91       1.0  0.57672  0.037759999999999995  0.44903  1.0000
  C   C92       1.0  0.40925999999999996  0.99294  0.5470499999999998  1.0000
  C   C93       1.0  0.46769000000000005  0.5918500000000001  0.9835799999999998  1.0000
  C   C94       1.0  0.55304  0.41237  0.9756  1.0000
  C   C95       1.0  0.014320000000000112  0.45964999999999995  0.5784499999999998  1.0000
  C   C96       1.0  0.98884  0.55108  0.40600999999999987  1.0000
  C   C97       1.0  0.4477199999999999  0.9988500000000001  0.45438  1.0000
  C   C98       1.0  0.53574  0.03671000000000001  0.54045  1.0000
  C   C99       1.0  0.9937000000000002  0.45834999999999987  0.44502999999999987  1.0000
  C   C100      1.0  0.01693999999999992  0.54971  0.53723  1.0000
  C   C101      1.0  0.4648700000000001  0.45894  0.9628699999999999  1.0000
  C   C102      1.0  0.55255  0.54422  0.00202  1.0000
  O   O25       1.0  0.29572999999999994  0.89484  0.28532  1.0000
  H   H1        1.0  0.26472999999999997  0.8503700000000001  0.33474  1.0000
  O   O26       1.0  0.7187799999999998  0.10033000000000003  0.7129099999999999  1.0000
  H   H2        1.0  0.6716000000000001  0.14545000000000002  0.7438299999999998  1.0000
  O   O27       1.0  0.8952600000000001  0.28439  0.2951  1.0000
  H   H3        1.0  0.8498800000000001  0.3333999999999999  0.26463  1.0000
  O   O28       1.0  0.10287000000000007  0.7063899999999997  0.71523  1.0000
  H   H4        1.0  0.14939000000000002  0.73546  0.6665399999999998  1.0000
  O   O29       1.0  0.28156000000000003  0.2881600000000001  0.8970499999999998  1.0000
  H   H5        1.0  0.32913000000000003  0.25423  0.85441  1.0000
  O   O30       1.0  0.7038999999999999  0.71339  0.10671  1.0000
  H   H6        1.0  0.7344999999999999  0.6637999999999997  0.15127  1.0000
  C   C103      1.0  0.27874999999999966  0.99885  0.82545  1.0000
  H   H7        1.0  0.25272999999999995  0.93923  0.8641699999999999  1.0000
  H   H8        1.0  0.3281000000000002  0.9902099999999999  0.8583199999999999  1.0000
  H   H9        1.0  0.22135000000000002  0.06150000000000001  0.83195  1.0000
  C   C104      1.0  0.70708  0.005729999999999995  0.18275  1.0000
  H   H10       1.0  0.76568  0.9444199999999998  0.19491999999999995  1.0000
  H   H11       1.0  0.66499  0.9855499999999998  0.16189999999999993  1.0000
  H   H12       1.0  0.73252  0.06068  0.12709  1.0000
  C   C105      1.0  0.98856  0.83165  0.28407  1.0000
  H   H13       1.0  0.92992  0.86841  0.25504  1.0000
  H   H14       1.0  0.9718299999999999  0.86178  0.33823  1.0000
  H   H15       1.0  0.052379999999999996  0.84406  0.23086  1.0000
  C   C106      1.0  0.04712000000000003  0.17219999999999996  0.69418  1.0000
  H   H16       1.0  0.01743000000000005  0.15371999999999994  0.7688299999999999  1.0000
  H   H17       1.0  0.008939999999999984  0.15088  0.66961  1.0000
  H   H18       1.0  0.12103999999999997  0.1349  0.6772  1.0000
  C   C107      1.0  0.82567  0.27667  0.00873  1.0000
  H   H19       1.0  0.8683500000000001  0.24991999999999998  0.95008  1.0000
  H   H20       1.0  0.8576  0.3262999999999999  0.00098  1.0000
  H   H21       1.0  0.83004  0.22101999999999994  0.07248999999999997  1.0000
  C   C108      1.0  0.18338000000000015  0.7152999999999998  0.9979399999999998  1.0000
  H   H22       1.0  0.15511  0.73317  0.06218999999999999  1.0000
  H   H23       1.0  0.16182000000000016  0.7756699999999997  0.9429199999999998  1.0000
  H   H24       1.0  0.15182999999999994  0.6627399999999999  0.011999999999999997  1.0000
  C   C109      1.0  0.19107000000000005  0.9532  0.7378  1.0000
  H   H25       1.0  0.14885  0.9906799999999999  0.7887999999999998  1.0000
  H   H26       1.0  0.14932000000000023  0.9786999999999997  0.6907799999999997  1.0000
  H   H27       1.0  0.19935000000000025  0.8799399999999999  0.7733099999999998  1.0000
  C   C110      1.0  0.8024099999999997  0.05620999999999999  0.26115  1.0000
  H   H28       1.0  0.83737  0.026380000000000018  0.20416999999999993  1.0000
  H   H29       1.0  0.80435  0.12752  0.23191  1.0000
  H   H30       1.0  0.84451  0.017100000000000008  0.309  1.0000
  C   C111      1.0  0.7405499999999999  0.18653000000000006  0.9620899999999998  1.0000
  H   H31       1.0  0.7946899999999999  0.14813  0.99665  1.0000
  H   H32       1.0  0.6930899999999999  0.1444  0.99134  1.0000
  H   H33       1.0  0.77521  0.19207000000000005  0.8892199999999998  1.0000
  C   C112      1.0  0.2859500000000001  0.8060899999999998  0.02224  1.0000
  H   H34       1.0  0.2668100000000001  0.7792599999999997  0.09726999999999997  1.0000
  H   H35       1.0  0.32764999999999994  0.85165  0.00197  1.0000
  H   H36       1.0  0.22216  0.84813  0.0027099999999999993  1.0000
  C   C113      1.0  0.96453  0.7383499999999997  0.18495999999999999  1.0000
  H   H37       1.0  0.003260000000000079  0.7891199999999998  0.14746  1.0000
  H   H38       1.0  0.99514  0.6896599999999998  0.14465999999999996  1.0000
  H   H39       1.0  0.8916499999999998  0.7741999999999998  0.18666  1.0000
  C   C114      1.0  0.05808000000000005  0.27490000000000003  0.7924699999999998  1.0000
  H   H40       1.0  0.12395000000000007  0.22060999999999992  0.78158  1.0000
  H   H41       1.0  0.06923000000000007  0.32028  0.8169199999999999  1.0000
  H   H42       1.0  0.0044600000000000655  0.24437000000000006  0.8460199999999998  1.0000
  C   C115      1.0  0.3791699999999999  0.14281000000000008  0.7481599999999998  1.0000
  H   H43       1.0  0.35121  0.12118000000000002  0.8226999999999998  1.0000
  H   H44       1.0  0.41548000000000007  0.1931499999999999  0.72965  1.0000
  H   H45       1.0  0.3205499999999999  0.17911000000000007  0.7188299999999997  1.0000
  C   C116      1.0  0.49571  0.12650999999999996  0.18445  1.0000
  H   H46       1.0  0.5548  0.11659999999999995  0.12414999999999997  1.0000
  H   H47       1.0  0.43132  0.14368999999999996  0.16827999999999996  1.0000
  H   H48       1.0  0.49273999999999996  0.1866  0.19854  1.0000
  C   C117      1.0  0.13929000000000008  0.7518299999999998  0.38097  1.0000
  H   H49       1.0  0.11560000000000006  0.8255999999999999  0.34862  1.0000
  H   H50       1.0  0.18600000000000003  0.73979  0.4189599999999999  1.0000
  H   H51       1.0  0.1809100000000001  0.7181099999999998  0.32662  1.0000
  C   C118      1.0  0.12897999999999998  0.19163  0.48926999999999987  1.0000
  H   H52       1.0  0.12051000000000002  0.12678000000000006  0.5404599999999998  1.0000
  H   H53       1.0  0.15000000000000005  0.18301999999999993  0.42117999999999994  1.0000
  H   H54       1.0  0.18677  0.20501  0.49363999999999997  1.0000
  C   C119      1.0  0.74071  0.38359  0.14671999999999993  1.0000
  H   H55       1.0  0.81637  0.35747  0.12862  1.0000
  H   H56       1.0  0.7174  0.4213599999999999  0.19646999999999995  1.0000
  H   H57       1.0  0.7123400000000001  0.3247799999999999  0.1821  1.0000
  C   C120      1.0  0.2493900000000002  0.6166199999999997  0.8508399999999999  1.0000
  H   H58       1.0  0.25382000000000016  0.5777100000000001  0.8090199999999997  1.0000
  H   H59       1.0  0.17614000000000016  0.6511299999999998  0.8779699999999998  1.0000
  H   H60       1.0  0.28439000000000003  0.66948  0.80415  1.0000
  C   C121      1.0  0.26532000000000017  0.8439599999999998  0.60898  1.0000
  H   H61       1.0  0.19002000000000013  0.8624799999999997  0.6388  1.0000
  H   H62       1.0  0.28368000000000004  0.8006600000000001  0.5657199999999998  1.0000
  H   H63       1.0  0.29885000000000017  0.8010699999999997  0.6635299999999997  1.0000
  C   C122      1.0  0.74385  0.16236  0.39042999999999994  1.0000
  H   H64       1.0  0.73473  0.20130000000000003  0.43442999999999987  1.0000
  H   H65       1.0  0.8183400000000001  0.13701999999999998  0.3588999999999999  1.0000
  H   H66       1.0  0.7105899999999999  0.21186  0.33712  1.0000
  C   C123      1.0  0.6165200000000001  0.2536599999999999  0.84748  1.0000
  H   H67       1.0  0.6466399999999997  0.17948  0.87091  1.0000
  H   H68       1.0  0.57485  0.26753  0.8035699999999998  1.0000
  H   H69       1.0  0.6721000000000001  0.28622999999999993  0.8034699999999998  1.0000
  C   C124      1.0  0.50253  0.8085200000000001  0.8780699999999999  1.0000
  H   H70       1.0  0.44930000000000003  0.8723999999999998  0.8860999999999998  1.0000
  H   H71       1.0  0.57079  0.81922  0.85606  1.0000
  H   H72       1.0  0.4983000000000001  0.7932099999999997  0.8221099999999998  1.0000
  C   C125      1.0  0.84802  0.6128599999999997  0.25594  1.0000
  H   H73       1.0  0.8698599999999999  0.6441  0.18187  1.0000
  H   H74       1.0  0.80473  0.57029  0.27034  1.0000
  H   H75       1.0  0.8031500000000001  0.6670699999999998  0.28927999999999987  1.0000
  C   C126      1.0  0.90284  0.47259999999999985  0.80031  1.0000
  H   H76       1.0  0.9175499999999998  0.4153999999999998  0.85994  1.0000
  H   H77       1.0  0.8699399999999996  0.5368600000000001  0.81922  1.0000
  H   H78       1.0  0.85163  0.46285000000000004  0.7815399999999998  1.0000
