data_image0
_chemical_formula_structural       O3CO2CO2VOCOCVOCH2C13H5C2H2C2H2C2H2C2H2CH3C13H5O3CO2CO2VOCOCVOCHO
_chemical_formula_sum              "O21 C45 V4 H24"
_cell_length_a       6.94558
_cell_length_b       13.63535
_cell_length_c       20.40606
_cell_angle_alpha    102.15115
_cell_angle_beta     89.9177
_cell_angle_gamma    90.68810000000002

_space_group_name_H-M_alt    "P 1"
_space_group_IT_number       1

loop_
  _space_group_symop_operation_xyz
  'x, y, z'

loop_
  _atom_site_type_symbol
  _atom_site_label
  _atom_site_symmetry_multiplicity
  _atom_site_fract_x
  _atom_site_fract_y
  _atom_site_fract_z
  _atom_site_occupancy
  O   O1        1.0  0.5068599999999999  0.5993900000000001  0.44924000000000003  1.0000
  O   O2        1.0  0.18022  0.5946  0.58678  1.0000
  O   O3        1.0  0.0045  0.40061  0.55076  1.0000
  C   C1        1.0  0.34905  0.6161100000000002  0.61344  1.0000
  O   O4        1.0  0.17749  0.61129  0.45197  1.0000
  O   O5        1.0  0.0017499999999999987  0.41742  0.4149900000000001  1.0000
  C   C2        1.0  0.34705999999999987  0.6381  0.43538  1.0000
  O   O6        1.0  0.50961  0.58258  0.58501  1.0000
  O   O7        1.0  0.33742  0.4363700000000001  0.48802000000000006  1.0000
  V   V1        1.0  0.06468  0.5118  0.50222  1.0000
  O   O8        1.0  0.67171  0.4054  0.41322  1.0000
  C   C3        1.0  0.8397899999999998  0.38406  0.38654  1.0000
  O   O9        1.0  0.67444  0.38871  0.54803  1.0000
  C   C4        1.0  0.84248  0.36203  0.56478  1.0000
  V   V2        1.0  0.56401  0.4882  0.49778  1.0000
  O   O10       1.0  0.84114  0.56363  0.51198  1.0000
  C   C5        1.0  0.84898  0.10769  0.60932  1.0000
  H   H1        1.0  0.84148  0.16413  0.51788  1.0000
  H   H2        1.0  0.83344  0.98272  0.6981  1.0000
  C   C6        1.0  0.84867  0.2840400000000001  0.60413  1.0000
  C   C7        1.0  0.87381  0.3148  0.92752  1.0000
  C   C8        1.0  0.87607  0.39036  0.8913600000000002  1.0000
  C   C9        1.0  0.87058  0.36685  0.82155  1.0000
  C   C10       1.0  0.8617099999999998  0.26573  0.78558  1.0000
  C   C11       1.0  0.85828  0.1888100000000001  0.8232000000000002  1.0000
  C   C12       1.0  0.8571  0.23864  0.7138  1.0000
  C   C13       1.0  0.85181  0.13508  0.68079  1.0000
  C   C14       1.0  0.8451  0.061769999999999985  0.72  1.0000
  C   C15       1.0  0.84911  0.08799000000000001  0.7894  1.0000
  C   C16       1.0  0.856  0.31152  0.67376  1.0000
  C   C17       1.0  0.84478  0.18334  0.57221  1.0000
  C   C18       1.0  0.8647199999999999  0.21433  0.89424  1.0000
  H   H3        1.0  0.85796  0.39083000000000007  0.6948400000000001  1.0000
  H   H4        1.0  0.88003  0.3346900000000001  0.98177  1.0000
  H   H5        1.0  0.87474  0.43003  0.79766  1.0000
  H   H6        1.0  0.8833799999999998  0.46806000000000003  0.9176700000000001  1.0000
  H   H7        1.0  0.8441999999999998  0.027710000000000033  0.8164900000000002  1.0000
  C   C19       1.0  0.005409999999999999  0.28877  0.28502  1.0000
  C   C20       1.0  0.84221  0.31565  0.31977  1.0000
  H   H8        1.0  0.1426  0.31739  0.30698  1.0000
  H   H9        1.0  0.70354  0.28749  0.29949  1.0000
  C   C21       1.0  0.01374  0.22066000000000002  0.2174  1.0000
  C   C22       1.0  0.8585699999999998  0.1833  0.18036000000000002  1.0000
  H   H10       1.0  0.1566  0.20144  0.19741  1.0000
  H   H11       1.0  0.71443  0.20172  0.19876  1.0000
  C   C23       1.0  0.20468999999999998  0.7912600000000002  0.78218  1.0000
  C   C24       1.0  0.36361999999999994  0.81576  0.8199000000000001  1.0000
  H   H12       1.0  0.06716  0.8217900000000002  0.8014500000000001  1.0000
  H   H13       1.0  0.50197  0.78561  0.80194  1.0000
  C   C25       1.0  0.20295  0.72276  0.71467  1.0000
  C   C26       1.0  0.36103  0.6844800000000001  0.68016  1.0000
  H   H14       1.0  0.06175999999999999  0.7040000000000001  0.69245  1.0000
  H   H15       1.0  0.5041  0.7029100000000001  0.70031  1.0000
  C   C27       1.0  0.40577999999999986  0.88766  0.38738000000000006  1.0000
  H   H16       1.0  0.40285  0.83738  0.48019  1.0000
  H   H17       1.0  0.4317099999999999  0.012259999999999988  0.30402  1.0000
  H   H18       1.0  0.42974  0.96526  0.41227  1.0000
  C   C28       1.0  0.35894  0.71493  0.3953  1.0000
  C   C29       1.0  0.32481  0.68569  0.07167  1.0000
  C   C30       1.0  0.30848999999999993  0.6100200000000001  0.10753  1.0000
  C   C31       1.0  0.32025  0.63241  0.17726000000000003  1.0000
  C   C32       1.0  0.3491899999999999  0.73237  0.21326  1.0000
  C   C33       1.0  0.3669499999999999  0.8096  0.17604  1.0000
  C   C34       1.0  0.36104  0.75826  0.2848  1.0000
  C   C35       1.0  0.39169999999999994  0.8603  0.31723000000000007  1.0000
  C   C36       1.0  0.4085999999999999  0.93438  0.27958  1.0000
  C   C37       1.0  0.39618  0.90967  0.21018  1.0000
  C   C38       1.0  0.34404  0.68652  0.32553  1.0000
  C   C39       1.0  0.39024  0.81526  0.42615000000000003  1.0000
  C   C40       1.0  0.3541899999999999  0.78511  0.10514000000000001  1.0000
  H   H19       1.0  0.32055  0.6078400000000003  0.30491000000000007  1.0000
  H   H20       1.0  0.31415999999999994  0.6667  0.017480000000000002  1.0000
  H   H21       1.0  0.30603  0.56955  0.20124  1.0000
  H   H22       1.0  0.28596  0.53316  0.08106000000000001  1.0000
  H   H23       1.0  0.4100999999999999  0.97008  0.18346  1.0000
  O   O11       1.0  0.20323  0.9173099999999998  0.91502  1.0000
  O   O12       1.0  0.5355  0.8886900000000002  0.04804  1.0000
  O   O13       1.0  0.71108  0.08261000000000003  0.085  1.0000
  C   C41       1.0  0.36603999999999987  0.86233  0.06502  1.0000
  O   O14       1.0  0.53263  0.9053700000000002  0.91323  1.0000
  O   O15       1.0  0.70819  0.09941000000000007  0.9492300000000001  1.0000
  C   C42       1.0  0.36439  0.88425  0.8865000000000001  1.0000
  O   O16       1.0  0.20612  0.90051  0.05079  1.0000
  O   O17       1.0  0.37535999999999997  0.06357  0.01199  1.0000
  V   V3        1.0  0.64817  0.9882  0.99778  1.0000
  O   O18       1.0  0.03824  0.11139000000000006  0.9519400000000001  1.0000
  C   C43       1.0  0.8702699999999998  0.13742000000000001  0.9347400000000001  1.0000
  O   O19       1.0  0.04112  0.09471  0.08675  1.0000
  C   C44       1.0  0.8724999999999999  0.11571  0.11353000000000002  1.0000
  V   V4        1.0  0.14880999999999997  0.011930000000000001  0.00218  1.0000
  O   O20       1.0  0.8717499999999998  0.93643  0.9880100000000002  1.0000
  C   C45       1.0  0.8547199999999999  0.001540000000000008  0.57159  1.0000
  H   H24       1.0  0.90717  0.94225  0.59445  1.0000
  O   O21       1.0  0.8035699999999999  0.9789400000000004  0.51303  1.0000
