data_image0
_chemical_formula_structural       C38Cr6H18N2O26
_chemical_formula_sum              "C38 Cr6 H18 N2 O26"
_cell_length_a       10.50114
_cell_length_b       10.64182
_cell_length_c       17.07299
_cell_angle_alpha    80.58968999999999
_cell_angle_beta     89.99172999999999
_cell_angle_gamma    119.13867

_space_group_name_H-M_alt    "P 1"
_space_group_IT_number       1

loop_
  _space_group_symop_operation_xyz
  'x, y, z'

loop_
  _atom_site_type_symbol
  _atom_site_label
  _atom_site_symmetry_multiplicity
  _atom_site_fract_x
  _atom_site_fract_y
  _atom_site_fract_z
  _atom_site_occupancy
  C   C1        1.0  0.27827000000000013  0.88846  0.13298  1.0000
  C   C2        1.0  0.68349  0.3996099999999999  0.7099600000000003  1.0000
  C   C3        1.0  0.5755  0.6874100000000001  0.80379  1.0000
  C   C4        1.0  0.6382300000000001  0.28248999999999996  0.08589  1.0000
  C   C5        1.0  0.5978599999999998  0.6640199999999999  0.72961  1.0000
  C   C6        1.0  0.7127200000000001  0.77188  0.67709  1.0000
  C   C7        1.0  0.8242700000000001  0.8955800000000002  0.70274  1.0000
  C   C8        1.0  0.80778  0.92075  0.77835  1.0000
  C   C9        1.0  0.6800200000000001  0.82266  0.82763  1.0000
  C   C10       1.0  0.23716999999999994  0.9670799999999998  0.7600000000000002  1.0000
  C   C11       1.0  0.22709999999999989  0.9548299999999998  0.68138  1.0000
  C   C12       1.0  0.8270000000000002  0.4646500000000001  0.2521  1.0000
  C   C13       1.0  0.16585  0.81672  0.6608200000000001  1.0000
  C   C14       1.0  0.13272000000000003  0.69111  0.71952  1.0000
  C   C15       1.0  0.1426300000000001  0.7050800000000002  0.79916  1.0000
  C   C16       1.0  0.6413  0.8583399999999998  0.12519000000000002  1.0000
  C   C17       1.0  0.19073000000000004  0.8418400000000001  0.81927  1.0000
  C   C18       1.0  0.68602  0.80998  0.35734  1.0000
  C   C19       1.0  0.7273000000000001  0.4602  0.38322  1.0000
  C   C20       1.0  0.10796000000000001  0.81208  0.35986000000000007  1.0000
  C   C21       1.0  0.7078200000000001  0.7566199999999998  0.59464  1.0000
  C   C22       1.0  0.71682  0.44522999999999996  0.62635  1.0000
  C   C23       1.0  0.8067600000000001  0.42812999999999996  0.17713000000000007  1.0000
  C   C24       1.0  0.10204999999999988  0.8022999999999998  0.58549  1.0000
  C   C25       1.0  0.22349000000000002  0.8634799999999999  0.8991500000000002  1.0000
  C   C26       1.0  0.6397799999999999  0.28972999999999993  0.8616900000000001  1.0000
  C   C27       1.0  0.6434100000000003  0.8634799999999999  0.8987100000000002  1.0000
  C   C28       1.0  0.5479999999999999  0.35002999999999995  0.19708000000000006  1.0000
  C   C29       1.0  0.56877  0.38862  0.2718  1.0000
  C   C30       1.0  0.7068100000000002  0.43771999999999994  0.30135  1.0000
  C   C31       1.0  0.19438000000000005  0.53271  0.66209  1.0000
  C   C32       1.0  0.37213999999999997  0.4330299999999999  0.8555300000000002  1.0000
  C   C33       1.0  0.6654400000000001  0.36195999999999995  0.15141  1.0000
  C   C34       1.0  0.66948  0.84898  0.20537  1.0000
  C   C35       1.0  0.67983  0.83897  0.2749600000000001  1.0000
  C   C36       1.0  0.2265000000000001  0.8534000000000002  0.2155  1.0000
  C   C37       1.0  0.17795000000000005  0.8335299999999999  0.28305000000000013  1.0000
  C   C38       1.0  0.66089  0.35555  0.7803  1.0000
  Cr  Cr1       1.0  0.4022399999999999  0.7838899999999999  0.01945  1.0000
  Cr  Cr2       1.0  0.38236  0.09790000000000001  0.9918  1.0000
  Cr  Cr3       1.0  0.7153800000000001  0.11816999999999998  0.9887  1.0000
  Cr  Cr4       1.0  0.9366500000000001  0.88242  0.46551  1.0000
  Cr  Cr5       1.0  0.60577  0.56562  0.4933600000000001  1.0000
  Cr  Cr6       1.0  0.9213400000000003  0.5504899999999999  0.49638000000000004  1.0000
  H   H1        1.0  0.43852000000000013  0.30109  0.17787  1.0000
  H   H2        1.0  0.019509999999999937  0.4636299999999998  0.7456100000000002  1.0000
  H   H3        1.0  0.27748999999999996  0.5411599999999998  0.7039400000000001  1.0000
  H   H4        1.0  0.24920000000000006  0.61772  0.60758  1.0000
  H   H5        1.0  0.14423999999999995  0.42339999999999994  0.64484  1.0000
  H   H6        1.0  0.9352200000000003  0.50804  0.27294  1.0000
  H   H7        1.0  0.35952  0.62622  0.83721  1.0000
  H   H8        1.0  0.35036999999999996  0.3842699999999999  0.9200100000000002  1.0000
  H   H9        1.0  0.4463400000000002  0.40399000000000007  0.82758  1.0000
  H   H10       1.0  0.26712  0.38502999999999993  0.8277200000000002  1.0000
  H   H11       1.0  0.25749999999999995  0.05263999999999992  0.6371200000000002  1.0000
  H   H12       1.0  0.11456000000000001  0.6101099999999999  0.84517  1.0000
  H   H13       1.0  0.47501999999999994  0.3715399999999999  0.30797  1.0000
  H   H14       1.0  0.89999  0.44201  0.14181  1.0000
  H   H15       1.0  0.5156  0.56724  0.70956  1.0000
  H   H16       1.0  0.9190100000000002  0.9773699999999999  0.66291  1.0000
  H   H17       1.0  0.88891  0.021080000000000012  0.79585  1.0000
  H   H18       1.0  0.28328  0.07573  0.7741  1.0000
  N   N1        1.0  0.08212999999999998  0.5502  0.69988  1.0000
  N   N2        1.0  0.4343  0.59012  0.84616  1.0000
  O   O1        1.0  0.52178  0.75711  0.1089  1.0000
  O   O2        1.0  0.80502  0.41004  0.42134  1.0000
  O   O3        1.0  0.049239999999999985  0.68545  0.40329  1.0000
  O   O4        1.0  0.27515999999999996  0.78381  0.10112  1.0000
  O   O5        1.0  0.07751999999999995  0.9030099999999999  0.5518000000000001  1.0000
  O   O6        1.0  0.8029800000000001  0.87278  0.54683  1.0000
  O   O7        1.0  0.57809  0.6813  0.56992  1.0000
  O   O8        1.0  0.6085299999999999  0.43636999999999987  0.5865300000000002  1.0000
  O   O9        1.0  0.7987700000000001  0.40188  0.5971  1.0000
  O   O10       1.0  0.04344999999999998  0.67789  0.56623  1.0000
  O   O11       1.0  0.8212500000000003  0.6661799999999999  0.4850900000000001  1.0000
  O   O12       1.0  0.5133300000000001  0.22832999999999995  0.8986600000000002  1.0000
  O   O13       1.0  0.23790000000000014  0.9726  0.09098  1.0000
  O   O14       1.0  0.51119  0.22053999999999999  0.06162  1.0000
  O   O15       1.0  0.73692  0.25772  0.06384  1.0000
  O   O16       1.0  0.7104500000000001  0.9840499999999999  0.08172000000000003  1.0000
  O   O17       1.0  0.5240900000000001  0.76552  0.9331100000000001  1.0000
  O   O18       1.0  0.2772999999999999  0.7915999999999997  0.9381600000000002  1.0000
  O   O19       1.0  0.24020999999999995  0.9810099999999999  0.91519  1.0000
  O   O20       1.0  0.73923  0.2661299999999999  0.8880500000000002  1.0000
  O   O21       1.0  0.71258  0.99185  0.91877  1.0000
  O   O22       1.0  0.49999  0.9999799999999999  0.9999799999999999  1.0000
  O   O23       1.0  0.08377  0.91117  0.37603  1.0000
  O   O24       1.0  0.8087700000000001  0.8803399999999999  0.38389  1.0000
  O   O25       1.0  0.58434  0.68946  0.3941600000000001  1.0000
  O   O26       1.0  0.6143200000000001  0.44394  0.42359000000000013  1.0000
