data_image0
_chemical_formula_structural       C70Cr6H42O29S
_chemical_formula_sum              "C70 Cr6 H42 O29 S1"
_cell_length_a       11.08348
_cell_length_b       10.9312
_cell_length_c       18.78728
_cell_angle_alpha    89.89476
_cell_angle_beta     90.34735
_cell_angle_gamma    59.79982000000001

_symmetry_space_group_name_H-M    'P 1'
_symmetry_Int_Tables_number       1

loop_
  _symmetry_equiv_pos_as_xyz
  'x,y,z'

loop_
  _atom_site_type_symbol
  _atom_site_label
  _atom_site_symmetry_multiplicity
  _atom_site_fract_x
  _atom_site_fract_y
  _atom_site_fract_z
  _atom_site_occupancy
  C   C1        1.0  0.24077  0.64381  0.61107  1.0000
  C   C2        1.0  0.55081  0.20619  0.71934  1.0000
  C   C3        1.0  0.56113  0.20458  0.79164  1.0000
  C   C4        1.0  0.65392  0.6227999999999999  0.6006  1.0000
  C   C5        1.0  0.92725  0.12947  0.81464  1.0000
  C   C6        1.0  0.04148  0.09978  0.77238  1.0000
  C   C7        1.0  0.03494  0.08715  0.69915  1.0000
  C   C8        1.0  0.9132400000000002  0.10644  0.66736  1.0000
  C   C9        1.0  0.66409  0.17899  0.67649  1.0000
  C   C10       1.0  0.19335000000000013  0.65682  0.83782  1.0000
  C   C11       1.0  0.19725  0.54277  0.80009  1.0000
  C   C12       1.0  0.66411  0.55853  0.80051  1.0000
  C   C13       1.0  0.19093000000000002  0.54716  0.72445  1.0000
  C   C14       1.0  0.22974000000000003  0.74716  0.72818  1.0000
  C   C15       1.0  0.22115000000000018  0.7508299999999998  0.8015  1.0000
  C   C16       1.0  0.6283800000000002  0.22789  0.60281  1.0000
  C   C17       1.0  0.20720999999999995  0.42458  0.836  1.0000
  C   C18       1.0  0.19739000000000007  0.32008  0.79901  1.0000
  C   C19       1.0  0.17421  0.33273  0.72592  1.0000
  C   C20       1.0  0.16922000000000004  0.44577999999999995  0.68888  1.0000
  C   C21       1.0  0.20811000000000002  0.65164  0.68787  1.0000
  C   C22       1.0  0.70447  0.69387  0.18309  1.0000
  C   C23       1.0  0.6996199999999999  0.67637  0.81154  1.0000
  C   C24       1.0  0.7820000000000001  0.55881  0.21722  1.0000
  C   C25       1.0  0.8079400000000003  0.55308  0.29115  1.0000
  C   C26       1.0  0.6199500000000001  0.79873  0.29934  1.0000
  C   C27       1.0  0.6327200000000001  0.8142699999999999  0.22618000000000002  1.0000
  C   C28       1.0  0.22767000000000004  0.64991  0.39885  1.0000
  C   C29       1.0  0.83133  0.42922  0.18085999999999997  1.0000
  C   C30       1.0  0.92441  0.30154  0.21294999999999997  1.0000
  C   C31       1.0  0.96584  0.2978  0.28286  1.0000
  C   C32       1.0  0.92169  0.42253  0.32079  1.0000
  C   C33       1.0  0.69905  0.66595  0.33146  1.0000
  C   C34       1.0  0.6701000000000003  0.6489  0.67586  1.0000
  C   C35       1.0  0.6587800000000001  0.16816999999999996  0.17355  1.0000
  C   C36       1.0  0.52766  0.23070999999999997  0.20396  1.0000
  C   C37       1.0  0.5219300000000001  0.20694  0.27672  1.0000
  C   C38       1.0  0.7668900000000001  0.13359  0.29037  1.0000
  C   C39       1.0  0.7788500000000003  0.11803999999999999  0.21735  1.0000
  C   C40       1.0  0.6505300000000003  0.62792  0.39673  1.0000
  C   C41       1.0  0.40521  0.29075  0.16179  1.0000
  C   C42       1.0  0.28749  0.2929  0.18725  1.0000
  C   C43       1.0  0.2903  0.24401999999999996  0.25556  1.0000
  C   C44       1.0  0.4053  0.20111  0.30013  1.0000
  C   C45       1.0  0.8187700000000001  0.6204899999999999  0.6907999999999999  1.0000
  C   C46       1.0  0.6379700000000001  0.17813999999999997  0.32128  1.0000
  C   C47       1.0  0.16350000000000003  0.65575  0.17878  1.0000
  C   C48       1.0  0.24235  0.71284  0.20541  1.0000
  C   C49       1.0  0.23035000000000003  0.7464  0.27785  1.0000
  C   C50       1.0  0.11999000000000001  0.6046  0.29672  1.0000
  C   C51       1.0  0.10259000000000004  0.6017  0.22451  1.0000
  C   C52       1.0  0.61479  0.22997  0.39449  1.0000
  C   C53       1.0  0.31183  0.75869  0.15914  1.0000
  C   C54       1.0  0.3418999999999999  0.86123  0.18105  1.0000
  C   C55       1.0  0.31062000000000006  0.91208  0.24997  1.0000
  C   C56       1.0  0.6445  0.54373  0.72067  1.0000
  C   C57       1.0  0.2575400000000001  0.85523  0.29835  1.0000
  C   C58       1.0  0.18396000000000007  0.67484  0.32463  1.0000
  C   C59       1.0  0.7019300000000002  0.10413000000000001  0.89671  1.0000
  C   C60       1.0  0.7243600000000001  0.68904  0.8877099999999999  1.0000
  C   C61       1.0  0.12161999999999996  0.70312  0.90685  1.0000
  C   C62       1.0  0.6768500000000002  0.10827999999999999  0.10301  1.0000
  C   C63       1.0  0.7278  0.71173  0.10677  1.0000
  C   C64       1.0  0.5790800000000003  0.81749  0.77979  1.0000
  C   C65       1.0  0.0978700000000001  0.7049199999999999  0.11063  1.0000
  C   C66       1.0  0.56455  0.80247  0.6992  1.0000
  C   C67       1.0  0.6877  0.1652  0.82534  1.0000
  C   C68       1.0  0.8354200000000002  0.63914  0.77046  1.0000
  C   C69       1.0  0.80327  0.14580999999999997  0.78396  1.0000
  C   C70       1.0  0.7936200000000001  0.14355  0.70847  1.0000
  Cr  Cr1       1.0  0.39294  0.39795  0.50223  1.0000
  Cr  Cr2       1.0  0.39840000000000003  0.7085  0.50126  1.0000
  Cr  Cr3       1.0  0.70864  0.3935299999999999  0.49646  1.0000
  Cr  Cr4       1.0  0.93788  0.9383199999999999  0.00762  1.0000
  Cr  Cr5       1.0  0.6255600000000003  0.9372199999999999  0.99451  1.0000
  Cr  Cr6       1.0  0.93808  0.62501  0.00119  1.0000
  H   H1        1.0  0.6005  0.90541  0.78896  1.0000
  H   H2        1.0  0.91535  0.089  0.61067  1.0000
  H   H3        1.0  0.2547600000000001  0.82022  0.70302  1.0000
  H   H4        1.0  0.47885000000000005  0.84607  0.80641  1.0000
  H   H5        1.0  0.22942  0.40825  0.89247  1.0000
  H   H6        1.0  0.22957  0.83248  0.8297  1.0000
  H   H7        1.0  0.20824  0.22961  0.82777  1.0000
  H   H8        1.0  0.16240000000000002  0.25379  0.69737  1.0000
  H   H9        1.0  0.14488  0.45304  0.63284  1.0000
  H   H10       1.0  0.54686  0.8884499999999999  0.33049  1.0000
  H   H11       1.0  0.7942500000000001  0.4232499999999999  0.12841  1.0000
  H   H12       1.0  0.71849  0.43282999999999994  0.70469  1.0000
  H   H13       1.0  0.57892  0.9190999999999999  0.2026  1.0000
  H   H14       1.0  0.96699  0.20491  0.18272  1.0000
  H   H15       1.0  0.037340000000000005  0.19632  0.30701  1.0000
  H   H16       1.0  0.4557  0.82966  0.68713  1.0000
  H   H17       1.0  0.85857  0.10529999999999999  0.32275  1.0000
  H   H18       1.0  0.40467  0.32347  0.10726  1.0000
  H   H19       1.0  0.88302  0.06017  0.19578  1.0000
  H   H20       1.0  0.19672999999999985  0.32675  0.15333  1.0000
  H   H21       1.0  0.20587  0.23419  0.27385  1.0000
  H   H22       1.0  0.40631000000000006  0.15228  0.35028999999999993  1.0000
  H   H23       1.0  0.9236800000000001  0.53899  0.79153  1.0000
  H   H24       1.0  0.0765  0.55974  0.331  1.0000
  H   H25       1.0  0.33136  0.72447  0.10421  1.0000
  H   H26       1.0  0.03666999999999998  0.5624  0.20462  1.0000
  H   H27       1.0  0.5842100000000002  0.8789799999999999  0.6696  1.0000
  H   H28       1.0  0.3845900000000001  0.9049099999999999  0.14388  1.0000
  H   H29       1.0  0.33079000000000003  0.99354  0.26691  1.0000
  H   H30       1.0  0.22904000000000013  0.9077099999999999  0.34902  1.0000
  H   H31       1.0  0.8624000000000003  0.72364  0.77805  1.0000
  H   H32       1.0  0.83965  0.6939399999999999  0.65913  1.0000
  H   H33       1.0  0.7495100000000001  0.45617  0.82203  1.0000
  H   H34       1.0  0.89634  0.51057  0.67515  1.0000
  H   H35       1.0  0.56684  0.58418  0.8294199999999999  1.0000
  H   H36       1.0  0.53711  0.56321  0.71068  1.0000
  H   H37       1.0  0.2172800000000001  0.30739  0.44717000000000007  1.0000
  H   H38       1.0  0.45014  0.23371  0.69722  1.0000
  H   H39       1.0  0.9367500000000001  0.14453  0.87065  1.0000
  H   H40       1.0  0.47091  0.22287  0.82151  1.0000
  H   H41       1.0  0.13734  0.08173  0.79681  1.0000
  H   H42       1.0  0.1252  0.06063  0.66676  1.0000
  O   O1        1.0  0.50734  0.25569  0.58143  1.0000
  O   O2        1.0  0.83729  0.5932399999999999  0.91524  1.0000
  O   O3        1.0  0.06532000000000004  0.63531  0.93158  1.0000
  O   O4        1.0  0.28036  0.52738  0.57891  1.0000
  O   O5        1.0  0.06847000000000007  0.82862  0.09185  1.0000
  O   O6        1.0  0.79915  0.057199999999999994  0.07934999999999999  1.0000
  O   O7        1.0  0.58522  0.08017999999999999  0.07676999999999999  1.0000
  O   O8        1.0  0.62717  0.80948  0.06705  1.0000
  O   O9        1.0  0.8162  0.59641  0.0765  1.0000
  O   O10       1.0  0.04576999999999998  0.63824  0.08107  1.0000
  O   O11       1.0  0.8338400000000001  0.8335199999999999  0.00111  1.0000
  O   O12       1.0  0.52451  0.69582  0.42405  1.0000
  O   O13       1.0  0.26059999999999994  0.73961  0.58458  1.0000
  O   O14       1.0  0.53237  0.69505  0.57383  1.0000
  O   O15       1.0  0.74485  0.5034299999999999  0.57638  1.0000
  O   O16       1.0  0.6990800000000001  0.2765  0.5719499999999998  1.0000
  O   O17       1.0  0.49886  0.25652  0.41986  1.0000
  O   O18       1.0  0.27249  0.52815  0.42914  1.0000
  O   O19       1.0  0.2521100000000001  0.74044  0.42301  1.0000
  O   O20       1.0  0.9506600000000002  0.54455  0.44203  1.0000
  O   O21       1.0  0.98465  0.305  0.45257  1.0000
  O   O22       1.0  0.17983000000000005  0.33264  0.39799  1.0000
  O   O23       1.0  0.73637  0.50426  0.41481  1.0000
  O   O24       1.0  0.6912200000000001  0.27727  0.42218  1.0000
  O   O25       1.0  0.4999900000000002  0.49998999999999993  0.49998  1.0000
  O   O26       1.0  0.08957  0.82545  0.9305899999999999  1.0000
  O   O27       1.0  0.8187  0.05426  0.9298599999999999  1.0000
  O   O28       1.0  0.60631  0.07701  0.91552  1.0000
  O   O29       1.0  0.6467300000000002  0.80654  0.9175599999999999  1.0000
  S   S1        1.0  0.007410000000000012  0.40359  0.40593  1.0000
