data_image0
_chemical_formula_structural       C136Cr12H84O68
_chemical_formula_sum              "C136 Cr12 H84 O68"
_cell_length_a       19.4301
_cell_length_b       11.05112
_cell_length_c       18.692539999999997
_cell_angle_alpha    90.2266
_cell_angle_beta     91.14479
_cell_angle_gamma    89.92692999999998

_symmetry_space_group_name_H-M    'P 1'
_symmetry_Int_Tables_number       1

loop_
  _symmetry_equiv_pos_as_xyz
  'x,y,z'

loop_
  _atom_site_type_symbol
  _atom_site_label
  _atom_site_symmetry_multiplicity
  _atom_site_fract_x
  _atom_site_fract_y
  _atom_site_fract_z
  _atom_site_occupancy
  C   C1        1.0  0.7596799999999999  0.53423  0.64645  1.0000
  C   C2        1.0  0.17626  0.07248  0.54675  1.0000
  C   C3        1.0  0.50795  0.9515400000000002  0.96162  1.0000
  C   C4        1.0  0.016769999999999997  0.23372  0.95708  1.0000
  C   C5        1.0  0.01869  0.23148  0.0319  1.0000
  C   C6        1.0  0.5167699999999998  0.73372  0.95708  1.0000
  C   C7        1.0  0.51869  0.73148  0.0319  1.0000
  C   C8        1.0  0.9628899999999999  0.55146  0.04393  1.0000
  C   C9        1.0  0.9591499999999998  0.55726  0.9634599999999999  1.0000
  C   C10       1.0  0.4629  0.05146  0.04393  1.0000
  C   C11       1.0  0.45915  0.05726  0.9634599999999999  1.0000
  C   C12       1.0  0.76088  0.5318  0.85204  1.0000
  C   C13       1.0  0.32143  0.55817  0.45588999999999996  1.0000
  C   C14       1.0  0.23733999999999997  0.52868  0.14622  1.0000
  C   C15       1.0  0.26087999999999995  0.0318  0.85204  1.0000
  C   C16       1.0  0.73734  0.02868  0.14622  1.0000
  C   C17       1.0  0.77264  0.12411  0.8518  1.0000
  C   C18       1.0  0.22717  0.12806  0.14669  1.0000
  C   C19       1.0  0.27263999999999994  0.62411  0.8518  1.0000
  C   C20       1.0  0.7271699999999998  0.62806  0.14669  1.0000
  C   C21       1.0  0.9710799999999999  0.34738  0.85261  1.0000
  C   C22       1.0  0.03128  0.34647  0.14563999999999994  1.0000
  C   C23       1.0  0.47107999999999994  0.84738  0.85261  1.0000
  C   C24       1.0  0.67626  0.57248  0.54675  1.0000
  C   C25       1.0  0.53128  0.84647  0.14563999999999994  1.0000
  C   C26       1.0  0.76394  0.10224  0.4175299999999999  1.0000
  C   C27       1.0  0.23798999999999998  0.10375999999999999  0.5826199999999999  1.0000
  C   C28       1.0  0.26394  0.60224  0.4175299999999999  1.0000
  C   C29       1.0  0.73798  0.60376  0.5826199999999999  1.0000
  C   C30       1.0  0.72643  0.19476  0.44875999999999994  1.0000
  C   C31       1.0  0.28094  0.18487  0.5486399999999999  1.0000
  C   C32       1.0  0.22642999999999996  0.69476  0.44875999999999994  1.0000
  C   C33       1.0  0.78093  0.68488  0.54865  1.0000
  C   C34       1.0  0.7394499999999998  0.22968  0.52016  1.0000
  C   C35       1.0  0.65169  0.19106000000000004  0.45954  1.0000
  C   C36       1.0  0.26872999999999997  0.21784  0.47727  1.0000
  C   C37       1.0  0.23943999999999993  0.7296800000000001  0.52016  1.0000
  C   C38       1.0  0.76873  0.71785  0.4772799999999999  1.0000
  C   C39       1.0  0.8982299999999999  0.20033  0.33485  1.0000
  C   C40       1.0  0.08257  0.1536  0.67127  1.0000
  C   C41       1.0  0.39823  0.70034  0.33485  1.0000
  C   C42       1.0  0.58257  0.6536  0.67128  1.0000
  C   C43       1.0  0.3554  0.17009  0.53704  1.0000
  C   C44       1.0  0.15169  0.69106  0.45954  1.0000
  C   C45       1.0  0.8554  0.67009  0.53704  1.0000
  C   C46       1.0  0.6651699999999999  0.23409999999999997  0.53545  1.0000
  C   C47       1.0  0.34257  0.2075  0.4599  1.0000
  C   C48       1.0  0.16515999999999997  0.7341  0.53545  1.0000
  C   C49       1.0  0.24052  0.53427  0.3535099999999999  1.0000
  C   C50       1.0  0.84257  0.70752  0.4599  1.0000
  C   C51       1.0  0.7893  0.16899  0.5615499999999999  1.0000
  C   C52       1.0  0.21333  0.16858  0.43833999999999995  1.0000
  C   C53       1.0  0.28929  0.66899  0.5615499999999999  1.0000
  C   C54       1.0  0.7133299999999999  0.66858  0.43833999999999995  1.0000
  C   C55       1.0  0.9984199999999999  0.34224  0.42579  1.0000
  C   C56       1.0  0.005799999999999998  0.33406  0.57692  1.0000
  C   C57       1.0  0.49842  0.84224  0.4258  1.0000
  C   C58       1.0  0.5058  0.83405  0.57692  1.0000
  C   C59       1.0  0.97574  0.12317000000000002  0.42193999999999987  1.0000
  C   C60       1.0  0.25967999999999997  0.03422  0.64645  1.0000
  C   C61       1.0  0.012499999999999997  0.10821  0.5696299999999999  1.0000
  C   C62       1.0  0.47574  0.62317  0.42193999999999987  1.0000
  C   C63       1.0  0.5124999999999998  0.6082  0.5696299999999999  1.0000
  C   C64       1.0  0.9856899999999998  0.01291  0.4549799999999999  1.0000
  C   C65       1.0  0.0031800000000000005  0.00538  0.52718  1.0000
  C   C66       1.0  0.48569  0.51292  0.4549799999999999  1.0000
  C   C67       1.0  0.50318  0.50538  0.52718  1.0000
  C   C68       1.0  0.00342  0.22436  0.53716  1.0000
  C   C69       1.0  0.99239  0.23036000000000004  0.46096  1.0000
  C   C70       1.0  0.50342  0.72436  0.53716  1.0000
  C   C71       1.0  0.74052  0.03427  0.3535099999999999  1.0000
  C   C72       1.0  0.49238999999999994  0.7303600000000001  0.46096  1.0000
  C   C73       1.0  0.015599999999999994  0.44272000000000006  0.5402999999999999  1.0000
  C   C74       1.0  0.9985899999999998  0.44917  0.46713999999999994  1.0000
  C   C75       1.0  0.51561  0.94271  0.5402999999999999  1.0000
  C   C76       1.0  0.4986  0.94917  0.46713999999999994  1.0000
  C   C77       1.0  0.7928599999999999  0.17519999999999997  0.64007  1.0000
  C   C78       1.0  0.20774  0.17461  0.36012  1.0000
  C   C79       1.0  0.29286  0.6752  0.64007  1.0000
  C   C80       1.0  0.70774  0.67461  0.36012  1.0000
  C   C81       1.0  0.03429999999999998  0.54907  0.57731  1.0000
  C   C82       1.0  0.83418  0.09118000000000001  0.52632  1.0000
  C   C83       1.0  0.98462  0.56408  0.43742  1.0000
  C   C84       1.0  0.5343  0.04907  0.57731  1.0000
  C   C85       1.0  0.48462999999999995  0.06408  0.43743  1.0000
  C   C86       1.0  0.0196  0.66069  0.54817  1.0000
  C   C87       1.0  0.99597  0.66842  0.47773999999999994  1.0000
  C   C88       1.0  0.51961  0.16069  0.54817  1.0000
  C   C89       1.0  0.49596999999999997  0.16843  0.47774999999999995  1.0000
  C   C90       1.0  0.7421  0.06371  0.07102  1.0000
  C   C91       1.0  0.25272  0.06737  0.92622  1.0000
  C   C92       1.0  0.2421  0.56371  0.07102  1.0000
  C   C93       1.0  0.16368999999999997  0.10529  0.47603  1.0000
  C   C94       1.0  0.7527199999999998  0.56737  0.92622  1.0000
  C   C95       1.0  0.8006  0.023099999999999996  0.03703  1.0000
  C   C96       1.0  0.21911  0.98313  0.9687899999999999  1.0000
  C   C97       1.0  0.3006  0.5231  0.03703  1.0000
  C   C98       1.0  0.7191099999999999  0.48313  0.9687899999999999  1.0000
  C   C99       1.0  0.8066299999999997  0.02862  0.9644699999999998  1.0000
  C   C100      1.0  0.21692  0.9946600000000001  0.04157999999999999  1.0000
  C   C101      1.0  0.30661999999999995  0.52862  0.9644699999999998  1.0000
  C   C102      1.0  0.7169199999999998  0.49466  0.04157999999999999  1.0000
  C   C103      1.0  0.68888  0.09534  0.95181  1.0000
  C   C104      1.0  0.33418  0.59118  0.52632  1.0000
  C   C105      1.0  0.29515  0.16407  0.03535  1.0000
  C   C106      1.0  0.18887999999999994  0.59534  0.95181  1.0000
  C   C107      1.0  0.79515  0.66407  0.03535  1.0000
  C   C108      1.0  0.68382  0.09641  0.027  1.0000
  C   C109      1.0  0.29252  0.15847  0.96025  1.0000
  C   C110      1.0  0.18381999999999996  0.59641  0.027  1.0000
  C   C111      1.0  0.79252  0.65847  0.96025  1.0000
  C   C112      1.0  0.87369  0.05689  0.0515  1.0000
  C   C113      1.0  0.14659999999999998  0.93882  0.96339  1.0000
  C   C114      1.0  0.37369  0.55689  0.0515  1.0000
  C   C115      1.0  0.66368  0.60528  0.47603  1.0000
  C   C116      1.0  0.6466  0.43882  0.96339  1.0000
  C   C117      1.0  0.8806099999999999  0.06474  0.9713199999999999  1.0000
  C   C118      1.0  0.14424  0.95179  0.043729999999999984  1.0000
  C   C119      1.0  0.38061  0.56474  0.9713199999999999  1.0000
  C   C120      1.0  0.64424  0.45179  0.043729999999999984  1.0000
  C   C121      1.0  0.75369  0.07461  0.92087  1.0000
  C   C122      1.0  0.25039  0.08933  0.0764  1.0000
  C   C123      1.0  0.2536900000000001  0.57461  0.92087  1.0000
  C   C124      1.0  0.7503899999999998  0.58934  0.0764  1.0000
  C   C125      1.0  0.97142  0.34497  0.6471999999999999  1.0000
  C   C126      1.0  0.82143  0.058170000000000006  0.45588999999999996  1.0000
  C   C127      1.0  0.030009999999999995  0.34713  0.3538899999999999  1.0000
  C   C128      1.0  0.47141999999999995  0.84497  0.6471999999999999  1.0000
  C   C129      1.0  0.53001  0.84713  0.3538899999999999  1.0000
  C   C130      1.0  0.012090000000000002  0.33958  0.07103  1.0000
  C   C131      1.0  0.004839999999999997  0.34387  0.9219099999999999  1.0000
  C   C132      1.0  0.51209  0.8395799999999999  0.07103  1.0000
  C   C133      1.0  0.50484  0.84387  0.9219099999999999  1.0000
  C   C134      1.0  0.01085  0.44821  0.03446  1.0000
  C   C135      1.0  0.00795  0.45154  0.96162  1.0000
  C   C136      1.0  0.5108499999999999  0.94821  0.03446  1.0000
  Cr  Cr1       1.0  0.8858599999999999  0.49168  0.74963  1.0000
  Cr  Cr2       1.0  0.11242999999999999  0.17931  0.24985  1.0000
  Cr  Cr3       1.0  0.38757  0.67931  0.7501499999999998  1.0000
  Cr  Cr4       1.0  0.61243  0.67931  0.24985  1.0000
  Cr  Cr5       1.0  0.11413999999999999  0.49168  0.25037  1.0000
  Cr  Cr6       1.0  0.38586  0.99168  0.74963  1.0000
  Cr  Cr7       1.0  0.61414  0.99168  0.25037  1.0000
  Cr  Cr8       1.0  0.73049  0.33297  0.74872  1.0000
  Cr  Cr9       1.0  0.26951  0.33297  0.25128  1.0000
  Cr  Cr10      1.0  0.23049  0.83297  0.74872  1.0000
  Cr  Cr11      1.0  0.7695099999999998  0.83297  0.25128  1.0000
  Cr  Cr12      1.0  0.88757  0.17931  0.7501499999999998  1.0000
  H   H1        1.0  0.8743299999999999  0.04372  0.55522  1.0000
  H   H2        1.0  0.14351  0.84366  0.9449099999999999  1.0000
  H   H3        1.0  0.40395  0.48151  0.07569999999999998  1.0000
  H   H4        1.0  0.64351  0.34366  0.9449099999999999  1.0000
  H   H5        1.0  0.8790599999999998  0.1457  0.07927  1.0000
  H   H6        1.0  0.11191  0.0026599999999999987  0.9342899999999997  1.0000
  H   H7        1.0  0.37906  0.6457  0.07927  1.0000
  H   H8        1.0  0.61191  0.50266  0.9342899999999997  1.0000
  H   H9        1.0  0.8884499999999997  0.1588  0.95263  1.0000
  H   H10       1.0  0.10783  0.02215  0.06078  1.0000
  H   H11       1.0  0.38844999999999996  0.6588  0.95263  1.0000
  H   H12       1.0  0.11868  0.06963  0.44881999999999994  1.0000
  H   H13       1.0  0.60783  0.52215  0.06078  1.0000
  H   H14       1.0  0.9158199999999999  0.99539  0.94904  1.0000
  H   H15       1.0  0.13996  0.86531  0.07240999999999999  1.0000
  H   H16       1.0  0.41582  0.49539  0.94904  1.0000
  H   H17       1.0  0.63996  0.36530999999999997  0.07240999999999999  1.0000
  H   H18       1.0  0.01644  0.14915  0.92768  1.0000
  H   H19       1.0  0.02195  0.14588  0.05913999999999999  1.0000
  H   H20       1.0  0.5164399999999999  0.64915  0.92768  1.0000
  H   H21       1.0  0.5219599999999999  0.64588  0.05913999999999999  1.0000
  H   H22       1.0  0.98799  0.63172  0.06903  1.0000
  H   H23       1.0  0.37433  0.54372  0.55522  1.0000
  H   H24       1.0  0.9072899999999999  0.53389  0.94198  1.0000
  H   H25       1.0  0.48799  0.13171  0.06903  1.0000
  H   H26       1.0  0.4072899999999999  0.03389  0.94198  1.0000
  H   H27       1.0  0.9139499999999999  0.52269  0.06847  1.0000
  H   H28       1.0  0.9820599999999999  0.6411  0.9415099999999998  1.0000
  H   H29       1.0  0.41395  0.02269  0.06847  1.0000
  H   H30       1.0  0.48205999999999993  0.1411  0.9415099999999998  1.0000
  H   H31       1.0  0.8534399999999999  0.98904  0.43366  1.0000
  H   H32       1.0  0.13980999999999996  0.013710000000000002  0.57134  1.0000
  H   H33       1.0  0.35344  0.48904000000000003  0.43366  1.0000
  H   H34       1.0  0.61868  0.56962  0.44881999999999994  1.0000
  H   H35       1.0  0.63981  0.51371  0.57134  1.0000
  H   H36       1.0  0.62253  0.25546  0.4248899999999999  1.0000
  H   H37       1.0  0.38665  0.23483999999999997  0.5696  1.0000
  H   H38       1.0  0.12252  0.75547  0.4248899999999999  1.0000
  H   H39       1.0  0.8866499999999999  0.73485  0.5696  1.0000
  H   H40       1.0  0.6462  0.32642  0.5447  1.0000
  H   H41       1.0  0.3657999999999999  0.29552  0.4468999999999999  1.0000
  H   H42       1.0  0.14619999999999994  0.82642  0.5447  1.0000
  H   H43       1.0  0.86579  0.79553  0.4469099999999999  1.0000
  H   H44       1.0  0.65177  0.16848  0.57753  1.0000
  H   H45       1.0  0.02922  0.73965  0.5805  1.0000
  H   H46       1.0  0.35186  0.13511  0.41987  1.0000
  H   H47       1.0  0.15177  0.66847  0.57753  1.0000
  H   H48       1.0  0.85186  0.63512  0.41987  1.0000
  H   H49       1.0  0.9766599999999999  0.93305  0.4233799999999999  1.0000
  H   H50       1.0  0.007649999999999998  0.91841  0.5514799999999999  1.0000
  H   H51       1.0  0.47664999999999996  0.43306  0.4233799999999999  1.0000
  H   H52       1.0  0.5076299999999999  0.41841  0.5514799999999999  1.0000
  H   H53       1.0  0.9633799999999999  0.57445  0.38388  1.0000
  H   H54       1.0  0.05691  0.54603  0.6307599999999998  1.0000
  H   H55       1.0  0.4633899999999999  0.07445  0.38388  1.0000
  H   H56       1.0  0.98651  0.7543200000000001  0.45402  1.0000
  H   H57       1.0  0.55692  0.04603  0.6307599999999998  1.0000
  H   H58       1.0  0.63735  0.09025  0.8619599999999997  1.0000
  H   H59       1.0  0.3611699999999999  0.21188  0.10796999999999998  1.0000
  H   H60       1.0  0.13735  0.59025  0.8619599999999997  1.0000
  H   H61       1.0  0.86117  0.71188  0.10796999999999998  1.0000
  H   H62       1.0  0.6294699999999999  0.17469  0.09927  1.0000
  H   H63       1.0  0.30995  0.24888  0.87353  1.0000
  H   H64       1.0  0.12946999999999997  0.67469  0.09927  1.0000
  H   H65       1.0  0.8099499999999997  0.7488800000000001  0.87353  1.0000
  H   H66       1.0  0.15361  0.51935  0.4895  1.0000
  H   H67       1.0  0.52923  0.23965  0.58051  1.0000
  H   H68       1.0  0.8477899999999999  0.49626000000000003  0.51279  1.0000
  H   H69       1.0  0.6536099999999999  0.01935  0.48951  1.0000
  H   H70       1.0  0.3478299999999999  0.99627  0.5127399999999999  1.0000
  H   H71       1.0  0.87583  0.24581999999999998  0.38224  1.0000
  H   H72       1.0  0.8568799999999998  0.15038  0.30604  1.0000
  H   H73       1.0  0.9155  0.26996  0.29672  1.0000
  H   H74       1.0  0.10917  0.2133  0.63304  1.0000
  H   H75       1.0  0.12008999999999999  0.08955  0.6947899999999998  1.0000
  H   H76       1.0  0.06553999999999999  0.2091  0.7171499999999998  1.0000
  H   H77       1.0  0.37583  0.74582  0.38224  1.0000
  H   H78       1.0  0.48650999999999994  0.25432  0.45403  1.0000
  H   H79       1.0  0.35689  0.65038  0.30604  1.0000
  H   H80       1.0  0.4155  0.76997  0.29672  1.0000
  H   H81       1.0  0.6091699999999999  0.7133  0.6330499999999998  1.0000
  H   H82       1.0  0.62009  0.58955  0.6947899999999998  1.0000
  H   H83       1.0  0.5655399999999999  0.7091  0.71716  1.0000
  H   H84       1.0  0.9039499999999998  0.9815100000000001  0.07569999999999998  1.0000
  O   O1        1.0  0.95702  0.45164000000000004  0.66992  1.0000
  O   O2        1.0  0.16804  0.09329  0.16986999999999994  1.0000
  O   O3        1.0  0.33196  0.59329  0.83013  1.0000
  O   O4        1.0  0.6680399999999997  0.59329  0.16986999999999994  1.0000
  O   O5        1.0  0.9456  0.25058  0.8248599999999998  1.0000
  O   O6        1.0  0.0544  0.25058  0.17514  1.0000
  O   O7        1.0  0.4456  0.75058  0.8248599999999998  1.0000
  O   O8        1.0  0.5544  0.75058  0.17514  1.0000
  O   O9        1.0  0.8346399999999998  0.33465  0.7495  1.0000
  O   O10       1.0  0.16536  0.33465  0.2505  1.0000
  O   O11       1.0  0.33463999999999994  0.8346500000000001  0.7495  1.0000
  O   O12       1.0  0.04297999999999999  0.45164000000000004  0.33008  1.0000
  O   O13       1.0  0.66536  0.8346500000000001  0.2505  1.0000
  O   O14       1.0  0.82145  0.54344  0.6746099999999998  1.0000
  O   O15       1.0  0.17855  0.54344  0.32538999999999996  1.0000
  O   O16       1.0  0.32144999999999996  0.04344  0.6746099999999998  1.0000
  O   O17       1.0  0.6785499999999998  0.04344  0.32538999999999996  1.0000
  O   O18       1.0  0.71532  0.45865  0.6680999999999998  1.0000
  O   O19       1.0  0.28467999999999993  0.45865  0.33189999999999986  1.0000
  O   O20       1.0  0.21532  0.95865  0.6680999999999998  1.0000
  O   O21       1.0  0.7846799999999999  0.95865  0.33189999999999986  1.0000
  O   O22       1.0  0.73717  0.20959000000000003  0.67453  1.0000
  O   O23       1.0  0.45702  0.95164  0.66992  1.0000
  O   O24       1.0  0.26283  0.20959000000000003  0.32546999999999987  1.0000
  O   O25       1.0  0.23717  0.70959  0.67453  1.0000
  O   O26       1.0  0.76283  0.70959  0.32546999999999987  1.0000
  O   O27       1.0  0.8327099999999998  0.09274  0.66958  1.0000
  O   O28       1.0  0.16728999999999994  0.09274  0.33042  1.0000
  O   O29       1.0  0.33271  0.59274  0.66958  1.0000
  O   O30       1.0  0.66729  0.59274  0.33042  1.0000
  O   O31       1.0  0.94629  0.25006  0.67604  1.0000
  O   O32       1.0  0.05371  0.25006  0.3239599999999999  1.0000
  O   O33       1.0  0.44628999999999996  0.7500600000000001  0.67604  1.0000
  O   O34       1.0  0.5429799999999999  0.95164  0.33008  1.0000
  O   O35       1.0  0.55371  0.7500600000000001  0.3239599999999999  1.0000
  O   O36       1.0  0.9562699999999998  0.45220000000000005  0.8304699999999998  1.0000
  O   O37       1.0  0.04373  0.45220000000000005  0.16953  1.0000
  O   O38       1.0  0.45626999999999995  0.9522000000000002  0.8304699999999998  1.0000
  O   O39       1.0  0.5437299999999999  0.9522000000000002  0.16953  1.0000
  O   O40       1.0  0.82076  0.54395  0.8234399999999997  1.0000
  O   O41       1.0  0.17924  0.54395  0.17656  1.0000
  O   O42       1.0  0.32076  0.04395  0.8234399999999997  1.0000
  O   O43       1.0  0.6792399999999998  0.04395  0.17656  1.0000
  O   O44       1.0  0.71457  0.45920999999999995  0.8286399999999998  1.0000
  O   O45       1.0  0.73647  0.2101  0.82336  1.0000
  O   O46       1.0  0.28543  0.45920999999999995  0.17135999999999996  1.0000
  O   O47       1.0  0.21456999999999998  0.9592100000000001  0.8286399999999998  1.0000
  O   O48       1.0  0.78543  0.9592100000000001  0.17135999999999996  1.0000
  O   O49       1.0  0.6306899999999999  0.12124  0.9111499999999999  1.0000
  O   O50       1.0  0.33813  0.24966  0.06592  1.0000
  O   O51       1.0  0.13069  0.62124  0.9111499999999999  1.0000
  O   O52       1.0  0.8381299999999999  0.74967  0.06592  1.0000
  O   O53       1.0  0.6212899999999999  0.12954  0.054299999999999994  1.0000
  O   O54       1.0  0.32946  0.24307  0.92273  1.0000
  O   O55       1.0  0.12129  0.62954  0.054299999999999994  1.0000
  O   O56       1.0  0.26353  0.2101  0.17663999999999994  1.0000
  O   O57       1.0  0.82946  0.7430699999999999  0.92273  1.0000
  O   O58       1.0  0.12749999999999997  0.57119  0.45503999999999994  1.0000
  O   O59       1.0  0.8767399999999999  0.54878  0.5444699999999999  1.0000
  O   O60       1.0  0.6274999999999998  0.07119  0.45503999999999994  1.0000
  O   O61       1.0  0.37673  0.04877000000000001  0.54448  1.0000
  O   O62       1.0  0.95275  0.11876000000000002  0.35066  1.0000
  O   O63       1.0  0.02631  0.08679  0.64215  1.0000
  O   O64       1.0  0.45275  0.61877  0.35066  1.0000
  O   O65       1.0  0.52631  0.58679  0.64215  1.0000
  O   O66       1.0  0.23646999999999999  0.7101  0.82336  1.0000
  O   O67       1.0  0.7635299999999998  0.7101  0.17663999999999994  1.0000
  O   O68       1.0  0.8319599999999999  0.09329  0.83013  1.0000
