data_image0
_chemical_formula_structural       O2CO2CZn2O4C3H2C13H4CHC2HCHC4HC2HCHC2HCHC2NCHCNSO3HSO3HNO2NO2SO3H
_chemical_formula_sum              "O21 C36 Zn2 H18 N4 S3"
_cell_length_a       9.93411
_cell_length_b       10.73942
_cell_length_c       13.083309999999999
_cell_angle_alpha    91.02415999999998
_cell_angle_beta     71.60268
_cell_angle_gamma    90.78791

_symmetry_space_group_name_H-M    'P 1'
_symmetry_Int_Tables_number       1

loop_
  _symmetry_equiv_pos_as_xyz
  'x,y,z'

loop_
  _atom_site_type_symbol
  _atom_site_label
  _atom_site_symmetry_multiplicity
  _atom_site_fract_x
  _atom_site_fract_y
  _atom_site_fract_z
  _atom_site_occupancy
  O   O1        1.0  0.38531  0.68322  0.5  1.0000
  O   O2        1.0  0.6146399999999999  0.68325  0.50001  1.0000
  C   C1        1.0  0.50461  0.73893  0.49029  1.0000
  O   O3        1.0  0.3284  0.49995  0.65361  1.0000
  O   O4        1.0  0.5577300000000001  0.49997  0.6536199999999999  1.0000
  C   C2        1.0  0.42411  0.47347999999999996  0.6992200000000001  1.0000
  Zn  Zn1       1.0  0.34688000000000013  0.49998  0.49999000000000005  1.0000
  Zn  Zn2       1.0  0.65312  0.50002  0.50001  1.0000
  O   O5        1.0  0.3853600000000001  0.31675  0.49999000000000005  1.0000
  O   O6        1.0  0.6146899999999998  0.31678  0.5  1.0000
  O   O7        1.0  0.44227  0.50003  0.34638  1.0000
  O   O8        1.0  0.6716  0.50005  0.34639000000000003  1.0000
  C   C3        1.0  0.49607  0.25965  0.5037  1.0000
  C   C4        1.0  0.57775  0.5082  0.29593  1.0000
  C   C5        1.0  0.8008100000000004  0.46592000000000006  0.00661  1.0000
  H   H1        1.0  0.8361200000000001  0.36944  0.81091  1.0000
  H   H2        1.0  0.9107  0.46279  0.95655  1.0000
  C   C6        1.0  0.6228700000000001  0.51074  0.17747  1.0000
  C   C7        1.0  0.24273999999999996  0.38397  0.8663500000000001  1.0000
  C   C8        1.0  0.20265  0.37499  0.97862  1.0000
  C   C9        1.0  0.29996  0.40307999999999994  0.0329  1.0000
  C   C10       1.0  0.44349000000000005  0.42607000000000006  0.97452  1.0000
  C   C11       1.0  0.48522  0.41308999999999996  0.86211  1.0000
  C   C12       1.0  0.54931  0.45194  0.023449999999999995  1.0000
  C   C13       1.0  0.6936100000000001  0.43377  0.9629500000000001  1.0000
  C   C14       1.0  0.7290800000000002  0.39117  0.85684  1.0000
  C   C15       1.0  0.6266600000000002  0.38167999999999996  0.8064  1.0000
  C   C16       1.0  0.51667  0.50445  0.12713  1.0000
  C   C17       1.0  0.76703  0.50738  0.1131  1.0000
  C   C18       1.0  0.38213000000000014  0.42338999999999993  0.8098100000000001  1.0000
  H   H3        1.0  0.26586  0.39129  0.11893  1.0000
  H   H4        1.0  0.09747000000000001  0.34288  0.02423  1.0000
  H   H5        1.0  0.6588  0.34594  0.72448  1.0000
  H   H6        1.0  0.69412  0.8910599999999999  0.5326  1.0000
  C   C19       1.0  0.31868000000000013  0.87324  0.39219  1.0000
  H   H7        1.0  0.34742  0.78336  0.35327  1.0000
  C   C20       1.0  0.19589000000000004  0.92953  0.38535  1.0000
  C   C21       1.0  0.15638000000000005  0.0447  0.4348  1.0000
  H   H8        1.0  0.057300000000000004  0.08679999999999999  0.43634  1.0000
  C   C22       1.0  0.24507  0.10789  0.48196  1.0000
  H   H9        1.0  0.2014  0.19193  0.52473  1.0000
  C   C23       1.0  0.37815  0.058030000000000005  0.47918  1.0000
  C   C24       1.0  0.40349000000000007  0.93306  0.44805000000000006  1.0000
  C   C25       1.0  0.5104000000000001  0.87128  0.47717  1.0000
  C   C26       1.0  0.61044  0.93731  0.51155  1.0000
  H   H10       1.0  0.6840700000000001  0.11355999999999998  0.54497  1.0000
  C   C27       1.0  0.60201  0.06405  0.52196  1.0000
  C   C28       1.0  0.48760000000000003  0.12565  0.50599  1.0000
  H   H11       1.0  0.91881  0.35068  0.38978  1.0000
  C   C29       1.0  0.8070800000000005  0.66757  0.63576  1.0000
  H   H12       1.0  0.6988500000000002  0.67084  0.6402  1.0000
  C   C30       1.0  0.84983  0.7507399999999999  0.70348  1.0000
  C   C31       1.0  0.98986  0.74799  0.70366  1.0000
  H   H13       1.0  0.025789999999999997  0.80974  0.75623  1.0000
  C   C32       1.0  0.08536999999999999  0.66463  0.63741  1.0000
  H   H14       1.0  0.1885499999999999  0.66566  0.6455800000000002  1.0000
  C   C33       1.0  0.04576  0.5822  0.5669  1.0000
  C   C34       1.0  0.9016799999999998  0.5828  0.56653  1.0000
  N   N1        1.0  0.85686  0.5012  0.50099  1.0000
  C   C35       1.0  0.9526900000000001  0.41812  0.43919  1.0000
  H   H15       1.0  0.16951  0.353  0.38749  1.0000
  C   C36       1.0  0.09586  0.41886999999999996  0.43846  1.0000
  N   N2        1.0  0.14245000000000005  0.50128  0.50102  1.0000
  S   S1        1.0  0.9034800000000001  0.57783  0.15471  1.0000
  O   O9        1.0  0.96063  0.48521  0.21477  1.0000
  O   O10       1.0  0.022609999999999998  0.62078  0.058660000000000004  1.0000
  O   O11       1.0  0.83806  0.70254  0.23369  1.0000
  H   H16       1.0  0.8404000000000001  0.68136  0.30638  1.0000
  S   S2        1.0  0.08793000000000001  0.85336  0.31975  1.0000
  O   O12       1.0  0.07106000000000001  0.71923  0.35192  1.0000
  O   O13       1.0  0.9442100000000001  0.91273  0.3499  1.0000
  O   O14       1.0  0.16503000000000004  0.8610000000000001  0.18571  1.0000
  H   H17       1.0  0.17914000000000005  0.9511699999999998  0.17051  1.0000
  N   N3        1.0  0.7506  0.83677  0.77278  1.0000
  O   O15       1.0  0.61891  0.83826  0.77446  1.0000
  O   O16       1.0  0.7912100000000001  0.9149600000000001  0.83459  1.0000
  N   N4        1.0  0.39862000000000003  0.58808  0.16334  1.0000
  O   O17       1.0  0.2817  0.55623  0.23698  1.0000
  O   O18       1.0  0.4036100000000001  0.69246  0.11334  1.0000
  S   S3        1.0  0.13681000000000001  0.30778  0.79836  1.0000
  O   O19       1.0  0.08024999999999999  0.40063000000000004  0.73845  1.0000
  O   O20       1.0  0.22735000000000002  0.21551999999999996  0.71963  1.0000
  O   O21       1.0  0.0014300000000000083  0.23111  0.88601  1.0000
  H   H18       1.0  0.9634  0.17454  0.84093  1.0000
