data_image0
_chemical_formula_structural       O3CO2CO2VOCOCVOCH3C13H5C2H2C2H2C2H2C2HCH3C13H5O3CO2CO2VOCOCVOCl
_chemical_formula_sum              "O20 C44 V4 H23 Cl1"
_cell_length_a       6.94349
_cell_length_b       13.63256
_cell_length_c       20.42528
_cell_angle_alpha    102.13378999999999
_cell_angle_beta     89.61725
_cell_angle_gamma    90.66425000000001

_symmetry_space_group_name_H-M    'P 1'
_symmetry_Int_Tables_number       1

loop_
  _symmetry_equiv_pos_as_xyz
  'x,y,z'

loop_
  _atom_site_type_symbol
  _atom_site_label
  _atom_site_symmetry_multiplicity
  _atom_site_fract_x
  _atom_site_fract_y
  _atom_site_fract_z
  _atom_site_occupancy
  O   O1        1.0  0.50686  0.59939  0.44924  1.0000
  O   O2        1.0  0.18021999999999996  0.5946  0.58678  1.0000
  O   O3        1.0  0.004499999999999998  0.40061  0.55076  1.0000
  C   C1        1.0  0.34736  0.61428  0.61425  1.0000
  O   O4        1.0  0.17748999999999998  0.61129  0.45197000000000004  1.0000
  O   O5        1.0  0.0017500000000000011  0.4174200000000001  0.41499  1.0000
  C   C2        1.0  0.3472599999999999  0.63789  0.43519  1.0000
  O   O6        1.0  0.50961  0.58258  0.58501  1.0000
  O   O7        1.0  0.3374199999999999  0.4363700000000001  0.48802  1.0000
  V   V1        1.0  0.06468  0.5118  0.50222  1.0000
  O   O8        1.0  0.6717099999999999  0.4054  0.41322000000000003  1.0000
  C   C3        1.0  0.84011  0.3841  0.38654  1.0000
  O   O9        1.0  0.67444  0.38871  0.54803  1.0000
  C   C4        1.0  0.8422  0.36224  0.56494  1.0000
  V   V2        1.0  0.56401  0.48820000000000013  0.49778  1.0000
  O   O10       1.0  0.84114  0.56363  0.51198  1.0000
  C   C5        1.0  0.8292  0.11126000000000003  0.61282  1.0000
  H   H1        1.0  0.82096  0.16151000000000001  0.52017  1.0000
  H   H2        1.0  0.8257  0.98594  0.69592  1.0000
  H   H3        1.0  0.8177999999999999  0.032969999999999985  0.58789  1.0000
  C   C6        1.0  0.84703  0.28529  0.60501  1.0000
  C   C7        1.0  0.87838  0.31546  0.92848  1.0000
  C   C8        1.0  0.8808899999999998  0.39161  0.89276  1.0000
  C   C9        1.0  0.87242  0.36891  0.82306  1.0000
  C   C10       1.0  0.8607799999999998  0.26815  0.78695  1.0000
  C   C11       1.0  0.8563299999999999  0.19038000000000002  0.8240600000000001  1.0000
  C   C12       1.0  0.85352  0.24197  0.71543  1.0000
  C   C13       1.0  0.8397199999999998  0.13905  0.68293  1.0000
  C   C14       1.0  0.8357  0.06447999999999998  0.72044  1.0000
  C   C15       1.0  0.8443399999999998  0.0895  0.7898  1.0000
  C   C16       1.0  0.8587  0.31419  0.67477  1.0000
  C   C17       1.0  0.8315  0.18405  0.57416  1.0000
  C   C18       1.0  0.8656199999999997  0.21518  0.89493  1.0000
  H   H4        1.0  0.86939  0.3935400000000001  0.69545  1.0000
  H   H5        1.0  0.8868599999999998  0.33476  0.98264  1.0000
  H   H6        1.0  0.8753499999999997  0.4321700000000001  0.79916  1.0000
  H   H7        1.0  0.89035  0.4691  0.91931  1.0000
  H   H8        1.0  0.84108  0.028670000000000036  0.8164000000000001  1.0000
  C   C19       1.0  0.005669999999999998  0.28874  0.28465  1.0000
  C   C20       1.0  0.8427099999999997  0.31577  0.31978  1.0000
  H   H9        1.0  0.143  0.31721  0.30625  1.0000
  H   H10       1.0  0.7039699999999999  0.28779  0.29976  1.0000
  C   C21       1.0  0.01335  0.22069  0.21702  1.0000
  C   C22       1.0  0.85795  0.18320000000000006  0.1804  1.0000
  H   H11       1.0  0.15618  0.20158000000000004  0.19663  1.0000
  H   H12       1.0  0.7137399999999999  0.20145  0.19916  1.0000
  C   C23       1.0  0.20361999999999997  0.7815100000000001  0.7871  1.0000
  C   C24       1.0  0.3650899999999999  0.81345  0.82098  1.0000
  H   H13       1.0  0.06593  0.8079700000000001  0.80913  1.0000
  H   H14       1.0  0.50403  0.78532  0.8015600000000002  1.0000
  C   C25       1.0  0.19793999999999998  0.70678  0.72236  1.0000
  C   C26       1.0  0.3535699999999999  0.68357  0.68099  1.0000
  H   H15       1.0  0.4921199999999999  0.7185500000000001  0.69528  1.0000
  C   C27       1.0  0.41545  0.88663  0.38668  1.0000
  H   H16       1.0  0.4128599999999999  0.83634  0.47941000000000006  1.0000
  H   H17       1.0  0.44584  0.01087  0.30325  1.0000
  H   H18       1.0  0.4439699999999999  0.96385  0.41136  1.0000
  C   C28       1.0  0.36003  0.71462  0.39501  1.0000
  C   C29       1.0  0.3178799999999999  0.68606  0.07188  1.0000
  C   C30       1.0  0.29891999999999996  0.61056  0.10779999999999999  1.0000
  C   C31       1.0  0.31328  0.63272  0.17738  1.0000
  C   C32       1.0  0.34769  0.73224  0.21316  1.0000
  C   C33       1.0  0.36860999999999977  0.80925  0.17585  1.0000
  C   C34       1.0  0.3618899999999999  0.75793  0.28455  1.0000
  C   C35       1.0  0.39838999999999997  0.8595  0.31672  1.0000
  C   C36       1.0  0.4183199999999999  0.93334  0.279  1.0000
  C   C37       1.0  0.4033599999999999  0.90887  0.20976  1.0000
  C   C38       1.0  0.3418199999999999  0.6864500000000002  0.32541  1.0000
  C   C39       1.0  0.39741  0.8144400000000004  0.42554000000000003  1.0000
  C   C40       1.0  0.35299  0.7850400000000001  0.10511  1.0000
  H   H19       1.0  0.31392  0.6081300000000001  0.30498  1.0000
  H   H20       1.0  0.3046999999999999  0.6673100000000001  0.01783  1.0000
  H   H21       1.0  0.29662  0.57004  0.20144  1.0000
  H   H22       1.0  0.27204  0.53405  0.08151  1.0000
  H   H23       1.0  0.41974  0.9691  0.18298  1.0000
  O   O11       1.0  0.20323  0.9173099999999998  0.9150199999999998  1.0000
  O   O12       1.0  0.5355  0.8886900000000002  0.04804  1.0000
  O   O13       1.0  0.71108  0.08261  0.085  1.0000
  C   C41       1.0  0.36579  0.86228  0.065  1.0000
  O   O14       1.0  0.53263  0.9053699999999999  0.9132299999999999  1.0000
  O   O15       1.0  0.70819  0.09941000000000007  0.94923  1.0000
  C   C42       1.0  0.36496  0.8838  0.88672  1.0000
  O   O16       1.0  0.20611999999999997  0.9005100000000001  0.05079000000000001  1.0000
  O   O17       1.0  0.37536  0.06357  0.01199  1.0000
  V   V3        1.0  0.64817  0.9882  0.99778  1.0000
  O   O18       1.0  0.03823999999999999  0.11138999999999999  0.95194  1.0000
  C   C43       1.0  0.87049  0.13765999999999995  0.93493  1.0000
  O   O19       1.0  0.04111999999999998  0.09471  0.08675  1.0000
  C   C44       1.0  0.8721699999999998  0.11569999999999998  0.11352999999999999  1.0000
  V   V4        1.0  0.14881  0.011930000000000001  0.00218  1.0000
  O   O20       1.0  0.8717499999999998  0.9364300000000003  0.98801  1.0000
  Cl  Cl1       1.0  0.9691799999999997  0.64965  0.7036600000000001  1.0000
