data_image0
_chemical_formula_structural       O2CO2CO2CO2CO2CO2CCr3OCH2CH4C3H2C3H3C4H4C4H4C4H4C4H4C4H4O2CO2CO2CO2CO2CO2CCr3ONO2
_chemical_formula_sum              "O28 C40 Cr6 H31 N1"
_cell_length_a       10.88429
_cell_length_b       10.90627
_cell_length_c       18.62913
_cell_angle_alpha    90.45802
_cell_angle_beta     89.97455
_cell_angle_gamma    60.769999999999996

_space_group_name_H-M_alt    "P 1"
_space_group_IT_number       1

loop_
  _space_group_symop_operation_xyz
  'x, y, z'

loop_
  _atom_site_type_symbol
  _atom_site_label
  _atom_site_symmetry_multiplicity
  _atom_site_fract_x
  _atom_site_fract_y
  _atom_site_fract_z
  _atom_site_occupancy
  O   O1        1.0  0.5071099999999998  0.25628  0.5803  1.0000
  O   O2        1.0  0.28083  0.52719  0.57794  1.0000
  C   C1        1.0  0.23726  0.64512  0.60914  1.0000
  O   O3        1.0  0.26136  0.73899  0.58427  1.0000
  O   O4        1.0  0.5325899999999998  0.69478  0.57437  1.0000
  C   C2        1.0  0.6525100000000001  0.62069  0.60224  1.0000
  O   O5        1.0  0.74447  0.50375  0.577  1.0000
  O   O6        1.0  0.6985200000000001  0.27723  0.57162  1.0000
  C   C3        1.0  0.62844  0.22693999999999998  0.6018  1.0000
  O   O7        1.0  0.4985299999999999  0.25692  0.4192800000000001  1.0000
  O   O8        1.0  0.27288  0.52778  0.42868000000000006  1.0000
  C   C4        1.0  0.21539000000000003  0.65144  0.40403  1.0000
  O   O9        1.0  0.25278000000000006  0.73963  0.42325  1.0000
  O   O10       1.0  0.5246400000000002  0.69537  0.4251  1.0000
  C   C5        1.0  0.64158  0.62117  0.39269  1.0000
  O   O11       1.0  0.73589  0.50439  0.4159800000000001  1.0000
  O   O12       1.0  0.69056  0.27782  0.42235  1.0000
  C   C6        1.0  0.57869  0.29732  0.38815  1.0000
  Cr  Cr1       1.0  0.3930100000000001  0.39805  0.50148  1.0000
  Cr  Cr2       1.0  0.39881999999999995  0.70798  0.50163  1.0000
  Cr  Cr3       1.0  0.70814  0.39394  0.49685000000000007  1.0000
  O   O13       1.0  0.4999899999999999  0.49999  0.49998000000000004  1.0000
  C   C7        1.0  0.5531900000000002  0.79452  0.7882  1.0000
  H   H1        1.0  0.5483  0.89799  0.79684  1.0000
  H   H2        1.0  0.4652900000000001  0.79531  0.81919  1.0000
  C   C8        1.0  0.5345600000000001  0.77655  0.7080300000000003  1.0000
  H   H3        1.0  0.43975000000000003  0.76385  0.70088  1.0000
  H   H4        1.0  0.51558  0.8728900000000002  0.67881  1.0000
  H   H5        1.0  0.81873  0.77758  0.78322  1.0000
  H   H6        1.0  0.7706699999999999  0.77248  0.66585  1.0000
  C   C9        1.0  0.81735  0.67809  0.77091  1.0000
  C   C10       1.0  0.70095  0.53169  0.8004000000000002  1.0000
  C   C11       1.0  0.69709  0.67283  0.8140000000000001  1.0000
  H   H7        1.0  0.80241  0.4424199999999999  0.81878  1.0000
  H   H8        1.0  0.6146199999999999  0.52795  0.83069  1.0000
  C   C12       1.0  0.6682699999999998  0.64567  0.67792  1.0000
  C   C13       1.0  0.7966599999999999  0.66917  0.6897400000000001  1.0000
  C   C14       1.0  0.68424  0.5153  0.72017  1.0000
  H   H9        1.0  0.5901599999999999  0.50192  0.71138  1.0000
  H   H10       1.0  0.77662  0.41716  0.7009700000000001  1.0000
  H   H11       1.0  0.92094  0.59081  0.78777  1.0000
  C   C15       1.0  0.6759  0.15453  0.67026  1.0000
  C   C16       1.0  0.69037  0.16634  0.8275400000000002  1.0000
  C   C17       1.0  0.80235  0.12016  0.7834200000000002  1.0000
  C   C18       1.0  0.78413  0.15161  0.70627  1.0000
  H   H12       1.0  0.90844  0.05451999999999999  0.8033  1.0000
  H   H13       1.0  0.85797  0.1765  0.67978  1.0000
  H   H14       1.0  0.58476  0.23304  0.80724  1.0000
  H   H15       1.0  0.60832  0.12050000000000001  0.6962500000000003  1.0000
  C   C19       1.0  0.18443  0.66114  0.68236  1.0000
  C   C20       1.0  0.19811000000000006  0.66132  0.8403  1.0000
  C   C21       1.0  0.19723  0.55868  0.80072  1.0000
  C   C22       1.0  0.2263  0.54686  0.7235800000000002  1.0000
  H   H16       1.0  0.16664000000000004  0.48645  0.8239  1.0000
  H   H17       1.0  0.2814999999999999  0.44173  0.70047  1.0000
  H   H18       1.0  0.23599000000000003  0.72825  0.8174700000000001  1.0000
  H   H19       1.0  0.12689999999999996  0.76632  0.70528  1.0000
  C   C23       1.0  0.6502  0.64665  0.31717000000000006  1.0000
  C   C24       1.0  0.63346  0.66415  0.15931000000000006  1.0000
  C   C25       1.0  0.7084900000000001  0.54505  0.19512  1.0000
  C   C26       1.0  0.69302  0.53611  0.272  1.0000
  H   H20       1.0  0.79493  0.45393999999999995  0.16939000000000004  1.0000
  H   H21       1.0  0.7304400000000001  0.43097  0.29262  1.0000
  H   H22       1.0  0.5416  0.75235  0.18342  1.0000
  H   H23       1.0  0.6120700000000001  0.75317  0.29857  1.0000
  C   C27       1.0  0.60004  0.26376  0.3129  1.0000
  C   C28       1.0  0.63168  0.21392000000000003  0.16062  1.0000
  C   C29       1.0  0.50849  0.25873  0.19452  1.0000
  C   C30       1.0  0.48955000000000004  0.30909  0.26877  1.0000
  H   H24       1.0  0.42582  0.2426  0.17137  1.0000
  H   H25       1.0  0.38292  0.37031  0.2896  1.0000
  H   H26       1.0  0.7108500000000001  0.23807  0.18123  1.0000
  H   H27       1.0  0.7075900000000002  0.19741  0.29465  1.0000
  C   C31       1.0  0.11493000000000003  0.68616  0.34624  1.0000
  C   C32       1.0  0.047089999999999986  0.72365  0.19499  1.0000
  C   C33       1.0  0.004840000000000014  0.83196  0.24099  1.0000
  C   C34       1.0  0.058730000000000074  0.81156  0.31439  1.0000
  H   H28       1.0  0.94697  0.93909  0.22145  1.0000
  H   H29       1.0  0.06852999999999995  0.8974900000000001  0.33838  1.0000
  H   H30       1.0  0.10843999999999997  0.61515  0.21155000000000002  1.0000
  H   H31       1.0  0.09731000000000005  0.60255  0.32592000000000004  1.0000
  O   O14       1.0  0.08918999999999996  0.82587  0.93232  1.0000
  O   O15       1.0  0.81907  0.05396000000000001  0.9314400000000002  1.0000
  C   C35       1.0  0.7035200000000001  0.10242  0.8975300000000002  1.0000
  O   O16       1.0  0.60707  0.07644  0.91646  1.0000
  O   O17       1.0  0.6471100000000001  0.80655  0.91769  1.0000
  C   C36       1.0  0.72149  0.68673  0.8895700000000001  1.0000
  O   O18       1.0  0.8370800000000002  0.59386  0.9153  1.0000
  O   O19       1.0  0.06477000000000002  0.63608  0.9325500000000001  1.0000
  C   C37       1.0  0.12027  0.70584  0.90777  1.0000
  O   O20       1.0  0.06825000000000007  0.8292  0.09294  1.0000
  O   O21       1.0  0.79965  0.05704  0.08033  1.0000
  C   C38       1.0  0.67263  0.11523  0.10128  1.0000
  O   O22       1.0  0.58613  0.07976000000000001  0.07708  1.0000
  O   O23       1.0  0.6276999999999999  0.80963  0.06658  1.0000
  C   C39       1.0  0.6921100000000002  0.68831  0.0945  1.0000
  O   O24       1.0  0.8161400000000001  0.59718  0.07592  1.0000
  O   O25       1.0  0.045360000000000004  0.63917  0.08144  1.0000
  C   C40       1.0  0.022789999999999977  0.74888  0.11916  1.0000
  Cr  Cr4       1.0  0.93795  0.9384499999999999  0.00894  1.0000
  Cr  Cr5       1.0  0.6261799999999998  0.93703  0.99475  1.0000
  Cr  Cr6       1.0  0.93779  0.62576  0.0014100000000000004  1.0000
  O   O26       1.0  0.8339799999999998  0.83375  0.0017  1.0000
  N   N1        1.0  0.92608  0.56077  0.65504  1.0000
  O   O27       1.0  0.97282  0.59125  0.59741  1.0000
  O   O28       1.0  0.9929100000000001  0.43320999999999993  0.6795300000000002  1.0000
