data_image0
_chemical_formula_structural       O4C2O4C2Cu2C4O4N2C22H4C12N2OHOHOHOHCO2HCO2HCO2HCO2HOHOHOHOH
_chemical_formula_sum              "O28 C46 Cu2 N4 H16"
_cell_length_a       27.81154
_cell_length_b       9.38891
_cell_length_c       7.76063
_cell_angle_alpha    90.00095
_cell_angle_beta     90.00374000000001
_cell_angle_gamma    88.09687

_space_group_name_H-M_alt    "P 1"
_space_group_IT_number       1

loop_
  _space_group_symop_operation_xyz
  'x, y, z'

loop_
  _atom_site_type_symbol
  _atom_site_label
  _atom_site_symmetry_multiplicity
  _atom_site_fract_x
  _atom_site_fract_y
  _atom_site_fract_z
  _atom_site_occupancy
  O   O1        1.0  0.5  0.28839  0.6427600000000001  1.0000
  O   O2        1.0  0.5  0.7116099999999999  0.35724  1.0000
  O   O3        1.0  0.5  0.7116099999999999  0.6427600000000001  1.0000
  O   O4        1.0  0.5  0.28839  0.35724  1.0000
  C   C1        1.0  0.50006  0.21946999999999997  0.5  1.0000
  C   C2        1.0  0.49994  0.78053  0.5  1.0000
  O   O5        1.0  0.43026  0.5  0.64277  1.0000
  O   O6        1.0  0.5697400000000002  0.5  0.35723  1.0000
  O   O7        1.0  0.5697400000000002  0.5  0.64277  1.0000
  O   O8        1.0  0.43026  0.5  0.35723  1.0000
  C   C3        1.0  0.4071300000000001  0.50383  0.49979  1.0000
  C   C4        1.0  0.59287  0.49617  0.49980000000000013  1.0000
  Cu  Cu1       1.0  0.5  0.5  0.6690800000000002  1.0000
  Cu  Cu2       1.0  0.5  0.5  0.33092  1.0000
  C   C5        1.0  0.17917000000000002  0.38512  0.49603000000000014  1.0000
  C   C6        1.0  0.8208200000000002  0.615  0.49612  1.0000
  C   C7        1.0  0.17524  0.6358  0.45073000000000013  1.0000
  C   C8        1.0  0.8247600000000003  0.36431  0.45092  1.0000
  O   O9        1.0  0.20566  0.26782999999999996  0.54058  1.0000
  O   O10       1.0  0.79433  0.73227  0.5407  1.0000
  O   O11       1.0  0.19777  0.76051  0.4400900000000001  1.0000
  O   O12       1.0  0.80225  0.23958  0.44037  1.0000
  N   N1        1.0  0.20115000000000005  0.51278  0.4842  1.0000
  N   N2        1.0  0.79885  0.48732  0.48434  1.0000
  C   C9        1.0  0.27656  0.58697  0.61902  1.0000
  C   C10       1.0  0.72345  0.41312  0.61913  1.0000
  C   C11       1.0  0.27937  0.43996999999999997  0.36319  1.0000
  C   C12       1.0  0.72063  0.5600699999999998  0.36327  1.0000
  C   C13       1.0  0.32678  0.58913  0.6224600000000002  1.0000
  C   C14       1.0  0.67322  0.41093  0.6225400000000002  1.0000
  C   C15       1.0  0.32978  0.4357  0.36676  1.0000
  C   C16       1.0  0.67022  0.5643  0.3668  1.0000
  C   C17       1.0  0.25278  0.51391  0.48928  1.0000
  C   C18       1.0  0.74722  0.48616  0.4894  1.0000
  C   C19       1.0  0.10165  0.50369  0.4488700000000001  1.0000
  C   C20       1.0  0.8983500000000002  0.49648  0.4488900000000001  1.0000
  C   C21       1.0  0.12929  0.37656  0.46343  1.0000
  C   C22       1.0  0.87069  0.6236  0.46345  1.0000
  C   C23       1.0  0.12505  0.63291  0.43074  1.0000
  C   C24       1.0  0.87495  0.36723  0.4308800000000001  1.0000
  C   C25       1.0  0.10712000000000002  0.24756999999999998  0.42549  1.0000
  C   C26       1.0  0.8928600000000001  0.7526  0.42547  1.0000
  C   C27       1.0  0.09749000000000001  0.7527099999999999  0.38026  1.0000
  C   C28       1.0  0.90251  0.24742  0.3804400000000001  1.0000
  C   C29       1.0  0.35398  0.51002  0.49734000000000006  1.0000
  C   C30       1.0  0.64602  0.49  0.4973800000000001  1.0000
  H   H1        1.0  0.26046  0.3841  0.26302  1.0000
  H   H2        1.0  0.73954  0.61592  0.2631  1.0000
  H   H3        1.0  0.25583  0.64509  0.7158400000000003  1.0000
  H   H4        1.0  0.74417  0.35503  0.71598  1.0000
  C   C31       1.0  0.97662  0.36861  0.43313  1.0000
  C   C32       1.0  0.02337  0.6316  0.4329800000000001  1.0000
  C   C33       1.0  0.97217  0.63007  0.4273  1.0000
  C   C34       1.0  0.027820000000000008  0.37012999999999996  0.42743  1.0000
  C   C35       1.0  0.9493300000000001  0.49877  0.43839  1.0000
  C   C36       1.0  0.05066000000000001  0.50143  0.4383800000000001  1.0000
  C   C37       1.0  0.9509000000000001  0.24173999999999998  0.43272  1.0000
  C   C38       1.0  0.04909  0.75845  0.43242  1.0000
  C   C39       1.0  0.9427  0.75167  0.38862  1.0000
  C   C40       1.0  0.05727  0.24851  0.38883  1.0000
  C   C41       1.0  0.50002  0.06476  0.5  1.0000
  C   C42       1.0  0.49998  0.9352399999999998  0.50001  1.0000
  N   N3        1.0  0.5  0.5  0.07682  1.0000
  N   N4        1.0  0.5  0.5  0.9231800000000002  1.0000
  O   O13       1.0  0.35596  0.35733  0.24616000000000005  1.0000
  H   H5        1.0  0.3335700000000001  0.31215  0.16482  1.0000
  O   O14       1.0  0.64404  0.64264  0.24616000000000005  1.0000
  H   H6        1.0  0.6664300000000002  0.6878199999999999  0.16482  1.0000
  O   O15       1.0  0.34741  0.67219  0.74721  1.0000
  H   H7        1.0  0.37870000000000004  0.70461  0.70437  1.0000
  O   O16       1.0  0.6526  0.32788  0.74729  1.0000
  H   H8        1.0  0.62131  0.29543  0.7044300000000001  1.0000
  C   C43       1.0  0.1368  0.11687  0.39718  1.0000
  O   O17       1.0  0.13885  0.0248  0.5083  1.0000
  O   O18       1.0  0.16625  0.10678  0.25149  1.0000
  H   H9        1.0  0.18939  0.02125  0.25569  1.0000
  C   C44       1.0  0.8631600000000003  0.88334  0.39746  1.0000
  O   O19       1.0  0.86119  0.97538  0.50863  1.0000
  O   O20       1.0  0.8336200000000001  0.8934999999999998  0.252  1.0000
  H   H10       1.0  0.8104700000000001  0.9789799999999999  0.25648  1.0000
  C   C45       1.0  0.10879000000000004  0.81833  0.21068000000000006  1.0000
  O   O21       1.0  0.07739  0.88461  0.13142  1.0000
  O   O22       1.0  0.15353  0.79251  0.13229000000000005  1.0000
  H   H11       1.0  0.15586  0.83884  0.014680000000000004  1.0000
  C   C46       1.0  0.8913  0.18209999999999998  0.21060000000000006  1.0000
  O   O23       1.0  0.92284  0.11694999999999998  0.13071000000000005  1.0000
  O   O24       1.0  0.8464400000000002  0.20702999999999996  0.1327  1.0000
  H   H12       1.0  0.84417  0.16107  0.01486  1.0000
  O   O25       1.0  0.9714500000000003  0.11825  0.49889  1.0000
  H   H13       1.0  0.94608  0.04801  0.51375  1.0000
  O   O26       1.0  0.028560000000000002  0.88198  0.49851  1.0000
  H   H14       1.0  0.05394999999999999  0.95213  0.51361  1.0000
  O   O27       1.0  0.96103  0.8555699999999999  0.2850800000000001  1.0000
  H   H15       1.0  0.9377400000000002  0.87105  0.18992  1.0000
  O   O28       1.0  0.03895  0.14461  0.28529  1.0000
  H   H16       1.0  0.06195  0.13068  0.18892  1.0000
