data_image0
_chemical_formula_structural       O3CO2CO2VOCOCVOCH2C13H5C3HCHC4H4C3HCHC4H4CH3C13H5O3CO2CO2VOCOCVOC2H5
_chemical_formula_sum              "O20 C54 V4 H32"
_cell_length_a       6.9588
_cell_length_b       13.51255
_cell_length_c       20.283489999999997
_cell_angle_alpha    103.05895
_cell_angle_beta     90.10227
_cell_angle_gamma    90.46686

_space_group_name_H-M_alt    "P 1"
_space_group_IT_number       1

loop_
  _space_group_symop_operation_xyz
  'x, y, z'

loop_
  _atom_site_type_symbol
  _atom_site_label
  _atom_site_symmetry_multiplicity
  _atom_site_fract_x
  _atom_site_fract_y
  _atom_site_fract_z
  _atom_site_occupancy
  O   O1        1.0  0.5067699999999999  0.5997  0.44954999999999995  1.0000
  O   O2        1.0  0.17998  0.59574  0.58796  1.0000
  O   O3        1.0  0.004579999999999999  0.4003  0.55045  1.0000
  C   C1        1.0  0.34840999999999994  0.6177699999999999  0.6150599999999999  1.0000
  O   O4        1.0  0.17738  0.6117  0.45238  1.0000
  O   O5        1.0  0.0019699999999999982  0.41637  0.41389999999999993  1.0000
  C   C2        1.0  0.3463499999999999  0.63879  0.43598  1.0000
  O   O6        1.0  0.50939  0.58363  0.5861  1.0000
  O   O7        1.0  0.3375299999999999  0.43589000000000006  0.48753  1.0000
  V   V1        1.0  0.06465999999999997  0.51189  0.50231  1.0000
  O   O8        1.0  0.6719499999999998  0.40425999999999995  0.41203999999999996  1.0000
  C   C3        1.0  0.84015  0.38496  0.38406  1.0000
  O   O9        1.0  0.67454  0.3883  0.5476199999999999  1.0000
  C   C4        1.0  0.8433399999999998  0.35828  0.5621  1.0000
  V   V2        1.0  0.56403  0.48811  0.49769  1.0000
  O   O10       1.0  0.84103  0.56411  0.51247  1.0000
  C   C5        1.0  0.8626799999999999  0.10132000000000004  0.61065  1.0000
  H   H1        1.0  0.8730199999999999  0.9787299999999999  0.6949999999999998  1.0000
  H   H2        1.0  0.8672899999999999  0.02055999999999999  0.58763  1.0000
  C   C6        1.0  0.85118  0.27664999999999995  0.5998399999999999  1.0000
  C   C7        1.0  0.85622  0.31849  0.92888  1.0000
  C   C8        1.0  0.8498099999999997  0.394  0.89237  1.0000
  C   C9        1.0  0.84964  0.36887  0.8217699999999999  1.0000
  C   C10       1.0  0.8559499999999998  0.26622999999999997  0.7855099999999999  1.0000
  C   C11       1.0  0.86195  0.18915999999999997  0.8235299999999999  1.0000
  C   C12       1.0  0.8565199999999998  0.23722  0.71302  1.0000
  C   C13       1.0  0.8625399999999998  0.13266  0.68109  1.0000
  C   C14       1.0  0.8682899999999998  0.05885000000000003  0.71939  1.0000
  C   C15       1.0  0.8680399999999998  0.08644999999999993  0.7893599999999997  1.0000
  C   C16       1.0  0.8513099999999998  0.30787999999999993  0.6709799999999999  1.0000
  C   C17       1.0  0.8567199999999999  0.17068999999999998  0.5687699999999999  1.0000
  C   C18       1.0  0.8621199999999998  0.21625  0.89524  1.0000
  H   H3        1.0  0.84677  0.38856  0.69205  1.0000
  H   H4        1.0  0.8565099999999999  0.33982999999999985  0.9836899999999997  1.0000
  H   H5        1.0  0.8444399999999997  0.43166  0.7972499999999999  1.0000
  H   H6        1.0  0.84503  0.47299  0.9190399999999999  1.0000
  H   H7        1.0  0.8725999999999998  0.02614999999999997  0.8164999999999999  1.0000
  C   C19       1.0  0.7135699999999998  0.25467  0.2024  1.0000
  C   C20       1.0  0.8674099999999998  0.18845  0.18263  1.0000
  C   C21       1.0  0.0213  0.1944  0.22864  1.0000
  H   H8        1.0  0.14274  0.14457  0.21575999999999998  1.0000
  C   C22       1.0  0.013539999999999996  0.25925000000000004  0.29363  1.0000
  H   H9        1.0  0.12994  0.258  0.32877  1.0000
  C   C23       1.0  0.85076  0.31933  0.31484  1.0000
  C   C24       1.0  0.7052499999999998  0.3182400000000001  0.2669099999999999  1.0000
  C   C25       1.0  0.49514999999999987  0.30036  0.27241  1.0000
  C   C26       1.0  0.5040499999999998  0.23155  0.20204  1.0000
  H   H10       1.0  0.4105799999999999  0.37043  0.27446  1.0000
  H   H11       1.0  0.4620299999999999  0.2588299999999999  0.31254  1.0000
  H   H12       1.0  0.42503  0.2619  0.16331  1.0000
  H   H13       1.0  0.47543999999999986  0.15033  0.20133  1.0000
  C   C27       1.0  0.49997999999999987  0.67892  0.7299999999999999  1.0000
  C   C28       1.0  0.35191  0.68385  0.68418  1.0000
  C   C29       1.0  0.19638  0.7484499999999998  0.70807  1.0000
  H   H14       1.0  0.07771  0.7541999999999999  0.67473  1.0000
  C   C30       1.0  0.19781  0.8112  0.7737799999999999  1.0000
  H   H15       1.0  0.08129  0.86373  0.78892  1.0000
  C   C31       1.0  0.3550399999999999  0.81146  0.8175099999999998  1.0000
  C   C32       1.0  0.50202  0.74159  0.79485  1.0000
  C   C33       1.0  0.7133899999999997  0.75916  0.79241  1.0000
  C   C34       1.0  0.7109599999999998  0.69071  0.72184  1.0000
  H   H16       1.0  0.793  0.72638  0.8298899999999999  1.0000
  H   H17       1.0  0.7488299999999998  0.8396399999999999  0.79286  1.0000
  H   H18       1.0  0.7886699999999999  0.61819  0.71853  1.0000
  H   H19       1.0  0.7451699999999998  0.73137  0.68135  1.0000
  C   C35       1.0  0.35733999999999994  0.8925  0.38981  1.0000
  H   H20       1.0  0.35324999999999995  0.84259  0.4829899999999999  1.0000
  H   H21       1.0  0.35863  0.01846  0.30676  1.0000
  H   H22       1.0  0.3576799999999999  0.9720699999999999  0.41561999999999993  1.0000
  C   C36       1.0  0.35498  0.7162899999999999  0.39621  1.0000
  C   C37       1.0  0.3564599999999999  0.68207  0.06965999999999999  1.0000
  C   C38       1.0  0.35357999999999995  0.60546  0.10518  1.0000
  C   C39       1.0  0.35335999999999995  0.62926  0.1757  1.0000
  C   C40       1.0  0.3554699999999999  0.7316500000000001  0.21285999999999997  1.0000
  C   C41       1.0  0.35671999999999987  0.80989  0.176  1.0000
  C   C42       1.0  0.35659999999999986  0.75901  0.28519  1.0000
  C   C43       1.0  0.35759999999999986  0.86359  0.3188  1.0000
  C   C44       1.0  0.3581  0.9386399999999999  0.28148  1.0000
  C   C45       1.0  0.3577699999999999  0.91238  0.21127  1.0000
  C   C46       1.0  0.35622  0.6863  0.32559  1.0000
  C   C47       1.0  0.3552499999999999  0.81918  0.42826999999999993  1.0000
  C   C48       1.0  0.35786  0.78392  0.10429  1.0000
  H   H23       1.0  0.3551799999999999  0.6057199999999999  0.30409  1.0000
  H   H24       1.0  0.3581199999999999  0.6619  0.014819999999999998  1.0000
  H   H25       1.0  0.3516199999999999  0.5655  0.19933  1.0000
  H   H26       1.0  0.3522999999999999  0.52673  0.07782999999999998  1.0000
  H   H27       1.0  0.3579299999999999  0.97344  0.18475999999999998  1.0000
  O   O11       1.0  0.20344999999999996  0.91632  0.91391  1.0000
  O   O12       1.0  0.5355199999999999  0.8883  0.04762  1.0000
  O   O13       1.0  0.71086  0.08365  0.0861  1.0000
  C   C49       1.0  0.36664  0.86173  0.06443999999999998  1.0000
  O   O14       1.0  0.53286  0.90425  0.91204  1.0000
  O   O15       1.0  0.70819  0.09971000000000005  0.94955  1.0000
  C   C50       1.0  0.36424  0.8826500000000002  0.88479  1.0000
  O   O16       1.0  0.20611999999999994  0.90026  0.05046  1.0000
  O   O17       1.0  0.37527999999999995  0.06408  0.01247  1.0000
  V   V3        1.0  0.6481799999999998  0.9881099999999998  0.9976899999999997  1.0000
  O   O18       1.0  0.03821999999999999  0.11173999999999995  0.95237  1.0000
  C   C51       1.0  0.86971  0.13896000000000003  0.9359199999999999  1.0000
  O   O19       1.0  0.04087999999999999  0.09579  0.08794  1.0000
  C   C52       1.0  0.87279  0.11724  0.11524999999999999  1.0000
  V   V4        1.0  0.1488  0.01195  0.0023  1.0000
  O   O20       1.0  0.8718199999999998  0.9359200000000001  0.98753  1.0000
  C   C53       1.0  0.8575399999999997  0.12029999999999998  0.4934299999999999  1.0000
  C   C54       1.0  0.8505899999999998  0.18704999999999997  0.4427499999999999  1.0000
  H   H28       1.0  0.7145499999999998  0.23010000000000003  0.44819  1.0000
  H   H29       1.0  0.9790299999999997  0.23732999999999996  0.4487499999999999  1.0000
  H   H30       1.0  0.8532699999999998  0.13825  0.39074  1.0000
  H   H31       1.0  0.9893  0.07337999999999997  0.48256  1.0000
  H   H32       1.0  0.7323699999999997  0.06725999999999999  0.48262  1.0000
