data_image0
_chemical_formula_structural       O8C4O8C4O4V4C36H16C10H5C2H5C2H5C2H5
_chemical_formula_sum              "O20 C60 V4 H36"
_cell_length_a       23.2361
_cell_length_b       7.2988100000000005
_cell_length_c       15.093190000000002
_cell_angle_alpha    90.25257
_cell_angle_beta     108.22201
_cell_angle_gamma    89.79383999999999

_symmetry_space_group_name_H-M    'P 1'
_symmetry_Int_Tables_number       1

loop_
  _symmetry_equiv_pos_as_xyz
  'x,y,z'

loop_
  _atom_site_type_symbol
  _atom_site_label
  _atom_site_symmetry_multiplicity
  _atom_site_fract_x
  _atom_site_fract_y
  _atom_site_fract_z
  _atom_site_occupancy
  O   O1        1.0  0.7110000000000002  0.6486100000000002  0.34117  1.0000
  O   O2        1.0  0.289  0.35139  0.6588300000000001  1.0000
  O   O3        1.0  0.789  0.14861  0.15883  1.0000
  O   O4        1.0  0.211  0.85139  0.84117  1.0000
  O   O5        1.0  0.82965  0.32203  0.33665  1.0000
  O   O6        1.0  0.17035  0.67797  0.66335  1.0000
  O   O7        1.0  0.67035  0.8220300000000001  0.16335  1.0000
  O   O8        1.0  0.32965000000000005  0.17797000000000004  0.8366500000000002  1.0000
  C   C1        1.0  0.85425  0.48575  0.35686  1.0000
  C   C2        1.0  0.14575  0.51425  0.64314  1.0000
  C   C3        1.0  0.64575  0.9858500000000002  0.14313  1.0000
  C   C4        1.0  0.35425  0.014150000000000003  0.8568800000000002  1.0000
  O   O9        1.0  0.71395  0.31928000000000006  0.3520700000000001  1.0000
  O   O10       1.0  0.2860500000000001  0.68072  0.6479300000000002  1.0000
  O   O11       1.0  0.78605  0.8192800000000002  0.14793000000000006  1.0000
  O   O12       1.0  0.21395  0.18072  0.85207  1.0000
  O   O13       1.0  0.67247  0.14287000000000005  0.17436  1.0000
  O   O14       1.0  0.32753  0.85713  0.82564  1.0000
  O   O15       1.0  0.8275300000000001  0.64287  0.32564  1.0000
  O   O16       1.0  0.17247000000000007  0.35713  0.67436  1.0000
  C   C5        1.0  0.70213  0.48804000000000003  0.37639  1.0000
  C   C6        1.0  0.29787  0.51196  0.62361  1.0000
  C   C7        1.0  0.79789  0.9870600000000003  0.12358000000000002  1.0000
  C   C8        1.0  0.20211000000000004  0.012940000000000004  0.8764200000000001  1.0000
  O   O17       1.0  0.7365300000000001  0.47865  0.19168  1.0000
  O   O18       1.0  0.26347000000000004  0.52135  0.80832  1.0000
  O   O19       1.0  0.76347  0.9786500000000002  0.30832  1.0000
  O   O20       1.0  0.23653000000000002  0.02135  0.69168  1.0000
  V   V1        1.0  0.7525  0.20617  0.26082  1.0000
  V   V2        1.0  0.2475  0.79383  0.73918  1.0000
  V   V3        1.0  0.7475000000000002  0.7061700000000001  0.23918  1.0000
  V   V4        1.0  0.2525  0.29383  0.76082  1.0000
  C   C9        1.0  0.82633  0.9932000000000002  0.049720000000000014  1.0000
  C   C10       1.0  0.17368  0.006830000000000001  0.95029  1.0000
  C   C11       1.0  0.67363  0.4987200000000001  0.45012  1.0000
  C   C12       1.0  0.32636000000000004  0.50126  0.54988  1.0000
  C   C13       1.0  0.8224400000000001  0.98357  0.8879300000000001  1.0000
  C   C14       1.0  0.17756000000000002  0.01681  0.11207000000000002  1.0000
  C   C15       1.0  0.6771600000000002  0.5428100000000001  0.6104500000000003  1.0000
  C   C16       1.0  0.32284  0.45704  0.3895600000000001  1.0000
  C   C17       1.0  0.7916400000000001  0.9842200000000002  0.95466  1.0000
  C   C18       1.0  0.20836000000000005  0.01603  0.04535  1.0000
  C   C19       1.0  0.7080600000000001  0.52846  0.54412  1.0000
  C   C20       1.0  0.29194  0.47141  0.45589  1.0000
  C   C21       1.0  0.88953  0.0012000000000000003  0.07671  1.0000
  C   C22       1.0  0.11048  0.99875  0.92329  1.0000
  C   C23       1.0  0.61058  0.48439  0.4237400000000001  1.0000
  C   C24       1.0  0.38941000000000003  0.51564  0.57626  1.0000
  C   C25       1.0  0.9209500000000002  0.9983900000000002  0.0104  1.0000
  C   C26       1.0  0.07905  0.0018199999999999996  0.98961  1.0000
  C   C27       1.0  0.5790299999999999  0.50086  0.48953  1.0000
  C   C28       1.0  0.42097  0.49908  0.51047  1.0000
  C   C29       1.0  0.8859900000000003  0.98936  0.91495  1.0000
  C   C30       1.0  0.11402000000000002  0.011010000000000004  0.08506000000000001  1.0000
  C   C31       1.0  0.61373  0.53038  0.58394  1.0000
  C   C32       1.0  0.38627  0.46949000000000013  0.41607  1.0000
  C   C33       1.0  0.9857200000000002  0.0027600000000000007  0.03567  1.0000
  C   C34       1.0  0.014290000000000046  0.99754  0.9643400000000001  1.0000
  C   C35       1.0  0.51437  0.4902100000000001  0.46466  1.0000
  C   C36       1.0  0.48563  0.5097100000000001  0.53534  1.0000
  C   C37       1.0  0.97713  0.9885900000000002  0.87022  1.0000
  C   C38       1.0  0.02287000000000001  0.011890000000000003  0.12979  1.0000
  C   C39       1.0  0.5225300000000002  0.53879  0.6284500000000002  1.0000
  C   C40       1.0  0.47747  0.46106  0.37156000000000006  1.0000
  C   C41       1.0  0.9145  0.9849300000000001  0.84643  1.0000
  C   C42       1.0  0.08550000000000003  0.01559  0.15358  1.0000
  C   C43       1.0  0.58507  0.54854  0.65186  1.0000
  C   C44       1.0  0.41493  0.4512800000000001  0.34814000000000006  1.0000
  H   H1        1.0  0.88805  0.97777  0.7732200000000002  1.0000
  H   H2        1.0  0.11195000000000002  0.02292  0.22679  1.0000
  H   H3        1.0  0.6113100000000001  0.5713400000000002  0.7242700000000002  1.0000
  H   H4        1.0  0.38869000000000004  0.42842  0.27574  1.0000
  H   H5        1.0  0.08744000000000002  0.9928300000000002  0.84939  1.0000
  H   H6        1.0  0.9125600000000001  0.006830000000000001  0.15061  1.0000
  H   H7        1.0  0.4122600000000001  0.53767  0.6494000000000002  1.0000
  H   H8        1.0  0.58774  0.46249  0.3505900000000001  1.0000
  H   H9        1.0  0.79752  0.9772800000000003  0.8143000000000002  1.0000
  H   H10       1.0  0.20248  0.02324  0.1857  1.0000
  H   H11       1.0  0.7018900000000001  0.56486  0.6833100000000001  1.0000
  H   H12       1.0  0.29812  0.4349200000000001  0.3167  1.0000
  H   H13       1.0  0.99475  0.98391  0.8123000000000001  1.0000
  H   H14       1.0  0.0052600000000000095  0.01679  0.18772000000000005  1.0000
  H   H15       1.0  0.50478  0.55509  0.68582  1.0000
  H   H16       1.0  0.49523000000000006  0.44469000000000003  0.3142  1.0000
  C   C45       1.0  0.41674000000000017  0.006860000000000001  0.9188400000000002  1.0000
  C   C46       1.0  0.58327  0.99314  0.08116  1.0000
  C   C47       1.0  0.08327  0.5071  0.58116  1.0000
  C   C48       1.0  0.91673  0.4929  0.41884  1.0000
  C   C49       1.0  0.46913000000000005  0.002340000000000001  0.9700200000000002  1.0000
  C   C50       1.0  0.53087  0.99766  0.02998  1.0000
  C   C51       1.0  0.030869999999999998  0.50246  0.52999  1.0000
  C   C52       1.0  0.9691300000000002  0.49754  0.47002  1.0000
  C   C53       1.0  0.27726  0.02514  0.07226000000000002  1.0000
  C   C54       1.0  0.31141  0.03258  0.17688  1.0000
  H   H17       1.0  0.29844  0.15711000000000006  0.20876  1.0000
  H   H18       1.0  0.30218  0.9077700000000002  0.21205000000000004  1.0000
  H   H19       1.0  0.36089  0.03873  0.18766  1.0000
  H   H20       1.0  0.29365  0.90302  0.04287  1.0000
  H   H21       1.0  0.28989  0.14874  0.03981  1.0000
  C   C55       1.0  0.72274  0.9752000000000002  0.92774  1.0000
  C   C56       1.0  0.6885900000000001  0.96794  0.8231200000000001  1.0000
  H   H22       1.0  0.6978300000000001  0.09280000000000002  0.78801  1.0000
  H   H23       1.0  0.70155  0.84346  0.79119  1.0000
  H   H24       1.0  0.6391100000000001  0.96183  0.8123400000000001  1.0000
  H   H25       1.0  0.7101  0.85155  0.96014  1.0000
  H   H26       1.0  0.70637  0.09728000000000003  0.95719  1.0000
  C   C57       1.0  0.22321000000000002  0.4555700000000001  0.42968  1.0000
  C   C58       1.0  0.18938000000000005  0.4232800000000001  0.32622  1.0000
  H   H27       1.0  0.19684  0.53924  0.28368000000000004  1.0000
  H   H28       1.0  0.20425  0.29265  0.30214  1.0000
  H   H29       1.0  0.14002  0.41355  0.31591  1.0000
  H   H30       1.0  0.21216  0.34037  0.4694500000000001  1.0000
  H   H31       1.0  0.20515000000000003  0.5834700000000003  0.45142  1.0000
  C   C59       1.0  0.77679  0.54424  0.57033  1.0000
  C   C60       1.0  0.81063  0.5763900000000002  0.6738  1.0000
  H   H32       1.0  0.79578  0.707  0.69792  1.0000
  H   H33       1.0  0.8031500000000003  0.46039  0.7163000000000003  1.0000
  H   H34       1.0  0.85999  0.5860600000000002  0.68412  1.0000
  H   H35       1.0  0.79484  0.41636  0.54855  1.0000
  H   H36       1.0  0.78786  0.65948  0.5306  1.0000
