data_image0
_chemical_formula_structural       O2CO2CO2CO2CO2CO2CCr3OCHCH3C3HC3H3C8H6C8H6C8H5C8H6C8H6O2CO2CO2CO2CO2CO2CCr3OCHONO2NO2CHONO2
_chemical_formula_sum              "O34 C62 Cr6 H39 N3"
_cell_length_a       11.0043
_cell_length_b       11.02433
_cell_length_c       18.803179999999998
_cell_angle_alpha    90.40286000000002
_cell_angle_beta     90.11026999999999
_cell_angle_gamma    60.439890000000005

_symmetry_space_group_name_H-M    'P 1'
_symmetry_Int_Tables_number       1

loop_
  _symmetry_equiv_pos_as_xyz
  'x,y,z'

loop_
  _atom_site_type_symbol
  _atom_site_label
  _atom_site_symmetry_multiplicity
  _atom_site_fract_x
  _atom_site_fract_y
  _atom_site_fract_z
  _atom_site_occupancy
  O   O1        1.0  0.5073800000000002  0.2557  0.58144  1.0000
  O   O2        1.0  0.28031999999999996  0.52735  0.57893  1.0000
  C   C1        1.0  0.23730999999999997  0.64591  0.6098  1.0000
  O   O3        1.0  0.26051  0.73959  0.58459  1.0000
  O   O4        1.0  0.5323  0.69508  0.57382  1.0000
  C   C2        1.0  0.65654  0.62546  0.59899  1.0000
  O   O5        1.0  0.7448399999999998  0.5035  0.57637  1.0000
  O   O6        1.0  0.69912  0.27656  0.57196  1.0000
  C   C3        1.0  0.6288600000000002  0.22706  0.60195  1.0000
  O   O7        1.0  0.49894000000000005  0.2565  0.41986  1.0000
  O   O8        1.0  0.27249999999999996  0.52808  0.42915000000000003  1.0000
  C   C4        1.0  0.21960000000000005  0.65063  0.40244  1.0000
  O   O9        1.0  0.25206  0.74038  0.42301  1.0000
  O   O10       1.0  0.5244799999999998  0.69581  0.42404  1.0000
  C   C5        1.0  0.6405099999999999  0.62024  0.39118  1.0000
  O   O11       1.0  0.7363900000000001  0.50429  0.41479  1.0000
  O   O12       1.0  0.6913  0.27729  0.42217  1.0000
  C   C6        1.0  0.61717  0.22648000000000001  0.39637000000000006  1.0000
  Cr  Cr1       1.0  0.39296  0.39792  0.50224  1.0000
  Cr  Cr2       1.0  0.39834  0.7084800000000001  0.50125  1.0000
  Cr  Cr3       1.0  0.7086700000000001  0.39357  0.49646  1.0000
  O   O13       1.0  0.49999000000000005  0.49999000000000005  0.49998000000000004  1.0000
  C   C7        1.0  0.58784  0.82622  0.78032  1.0000
  H   H1        1.0  0.63184  0.89618  0.78962  1.0000
  C   C8        1.0  0.5797999999999999  0.81232  0.6979  1.0000
  H   H2        1.0  0.6237200000000002  0.8736799999999999  0.67281  1.0000
  H   H3        1.0  0.86935  0.71927  0.78108  1.0000
  H   H4        1.0  0.84639  0.69949  0.66413  1.0000
  C   C9        1.0  0.8398800000000001  0.63711  0.77204  1.0000
  C   C10       1.0  0.64739  0.57468  0.79866  1.0000
  C   C11       1.0  0.6985199999999999  0.68058  0.81182  1.0000
  H   H5        1.0  0.5395200000000001  0.6169  0.81876  1.0000
  C   C12       1.0  0.67523  0.65431  0.6743900000000002  1.0000
  C   C13       1.0  0.8280699999999999  0.62035  0.69123  1.0000
  C   C14       1.0  0.6397799999999999  0.55525  0.7184200000000001  1.0000
  H   H6        1.0  0.53301  0.57488  0.70474  1.0000
  H   H7        1.0  0.71157  0.44506000000000007  0.70366  1.0000
  H   H8        1.0  0.9273400000000002  0.54101  0.79461  1.0000
  C   C15       1.0  0.68231  0.15213  0.82222  1.0000
  C   C16       1.0  0.7832299999999999  0.16477  0.78357  1.0000
  C   C17       1.0  0.77381  0.17939  0.70951  1.0000
  C   C18       1.0  0.57411  0.14625  0.71064  1.0000
  C   C19       1.0  0.57229  0.15287  0.78373  1.0000
  C   C20       1.0  0.9336499999999999  0.0638  0.78127  1.0000
  C   C21       1.0  0.9254500000000001  0.08047  0.70145  1.0000
  C   C22       1.0  0.66991  0.16784  0.67239  1.0000
  H   H9        1.0  0.49054  0.13859  0.68441  1.0000
  H   H10       1.0  0.48885999999999996  0.14604  0.80978  1.0000
  H   H11       1.0  0.9488899999999999  0.9619  0.79917  1.0000
  H   H12       1.0  0.99868  0.10208  0.80776  1.0000
  H   H13       1.0  0.98335  0.1315  0.6808  1.0000
  H   H14       1.0  0.9438700000000001  0.9855299999999999  0.67152  1.0000
  C   C23       1.0  0.17680000000000007  0.67022  0.83406  1.0000
  C   C24       1.0  0.16355000000000003  0.56873  0.79518  1.0000
  C   C25       1.0  0.17410999999999996  0.56346  0.72103  1.0000
  C   C26       1.0  0.18386999999999998  0.77476  0.7228  1.0000
  C   C27       1.0  0.19361000000000006  0.76974  0.79641  1.0000
  C   C28       1.0  0.25766  0.4158  0.80076  1.0000
  C   C29       1.0  0.27215  0.41145  0.72074  1.0000
  C   C30       1.0  0.18570999999999993  0.66604  0.68331  1.0000
  H   H15       1.0  0.17801999999999996  0.86376  0.69665  1.0000
  H   H16       1.0  0.1956  0.8553  0.82367  1.0000
  H   H17       1.0  0.20174  0.36173  0.82036  1.0000
  H   H18       1.0  0.35485  0.39116  0.83003  1.0000
  H   H19       1.0  0.37578  0.39194  0.70255  1.0000
  H   H20       1.0  0.23038000000000003  0.3501  0.69357  1.0000
  C   C31       1.0  0.64744  0.67469  0.16687  1.0000
  C   C32       1.0  0.70941  0.54384  0.1979  1.0000
  C   C33       1.0  0.70712  0.52811  0.27014  1.0000
  C   C34       1.0  0.56539  0.77667  0.28484  1.0000
  C   C35       1.0  0.56529  0.79177  0.2106  1.0000
  C   C36       1.0  0.85314  0.42214  0.1902  1.0000
  C   C37       1.0  0.85019  0.40212  0.26983  1.0000
  C   C38       1.0  0.6463  0.64437  0.31556  1.0000
  H   H21       1.0  0.50697  0.86818  0.31804  1.0000
  H   H22       1.0  0.5121199999999999  0.89572  0.18857  1.0000
  H   H23       1.0  0.93312  0.44848  0.17405  1.0000
  H   H24       1.0  0.8484900000000001  0.30655  0.28469000000000005  1.0000
  H   H25       1.0  0.92772  0.4199  0.29937  1.0000
  C   C39       1.0  0.6672  0.12386999999999998  0.18205000000000002  1.0000
  C   C40       1.0  0.55237  0.13424  0.21775000000000003  1.0000
  C   C41       1.0  0.54309  0.15024  0.29014  1.0000
  C   C42       1.0  0.77793  0.11259000000000001  0.29587  1.0000
  C   C43       1.0  0.78516  0.10017  0.22209000000000004  1.0000
  C   C44       1.0  0.40125000000000005  0.23329  0.20599  1.0000
  C   C45       1.0  0.38981  0.25344  0.28578  1.0000
  C   C46       1.0  0.65052  0.15379  0.32917  1.0000
  H   H26       1.0  0.86648  0.10345999999999998  0.32553  1.0000
  H   H27       1.0  0.8812000000000001  0.0768  0.19626  1.0000
  H   H28       1.0  0.3449100000000001  0.18008  0.18521  1.0000
  H   H29       1.0  0.38226000000000004  0.32823  0.17655  1.0000
  H   H30       1.0  0.36589999999999995  0.35994  0.30212  1.0000
  H   H31       1.0  0.32448  0.21452000000000002  0.31111  1.0000
  C   C47       1.0  0.06398  0.72164  0.19467  1.0000
  C   C48       1.0  0.07843999999999995  0.82289  0.23229  1.0000
  C   C49       1.0  0.11076999999999998  0.80772  0.303  1.0000
  C   C50       1.0  0.10337999999999999  0.59247  0.30454  1.0000
  C   C51       1.0  0.07029  0.60883  0.23200000000000004  1.0000
  C   C52       1.0  0.17177999999999988  0.8827000000000002  0.21681  1.0000
  C   C53       1.0  0.2048399999999999  0.8694500000000001  0.29476  1.0000
  C   C54       1.0  0.13530999999999999  0.68686  0.33875  1.0000
  H   H32       1.0  0.11827  0.49949  0.33131  1.0000
  H   H33       1.0  0.06311000000000003  0.52758  0.20416  1.0000
  H   H34       1.0  0.11526999999999996  0.99256  0.19945  1.0000
  H   H35       1.0  0.26356  0.81259  0.18335  1.0000
  H   H36       1.0  0.31615  0.79363  0.30534  1.0000
  H   H37       1.0  0.16342000000000004  0.97166  0.32257  1.0000
  O   O14       1.0  0.08940000000000001  0.82569  0.9305700000000001  1.0000
  O   O15       1.0  0.81846  0.05444  0.92985  1.0000
  C   C55       1.0  0.70243  0.09909  0.8951600000000001  1.0000
  O   O16       1.0  0.60606  0.07715  0.9155100000000002  1.0000
  O   O17       1.0  0.64655  0.80668  0.91757  1.0000
  C   C56       1.0  0.72428  0.68987  0.88806  1.0000
  O   O18       1.0  0.83717  0.59341  0.91525  1.0000
  O   O19       1.0  0.06520000000000001  0.63553  0.93157  1.0000
  C   C57       1.0  0.11758000000000002  0.70658  0.90563  1.0000
  O   O20       1.0  0.06825999999999997  0.82889  0.09184  1.0000
  O   O21       1.0  0.7988699999999999  0.057409999999999996  0.07934  1.0000
  C   C58       1.0  0.6793  0.09706  0.10660999999999998  1.0000
  O   O22       1.0  0.5849300000000001  0.08035  0.07678  1.0000
  O   O23       1.0  0.6269599999999999  0.8096500000000001  0.06706  1.0000
  C   C59       1.0  0.69579  0.69165  0.09763  1.0000
  O   O24       1.0  0.8160400000000002  0.59661  0.07651  1.0000
  O   O25       1.0  0.04560999999999999  0.6385  0.08106  1.0000
  C   C60       1.0  0.033870000000000004  0.74316  0.11928  1.0000
  Cr  Cr4       1.0  0.9376499999999999  0.93854  0.00761  1.0000
  Cr  Cr5       1.0  0.62533  0.9373700000000001  0.99452  1.0000
  Cr  Cr6       1.0  0.93794  0.62523  0.00119  1.0000
  O   O26       1.0  0.83364  0.83371  0.0011  1.0000
  C   C61       1.0  0.9441699999999998  0.48152000000000006  0.66421  1.0000
  H   H38       1.0  0.005660000000000039  0.47930999999999996  0.61863  1.0000
  O   O27       1.0  0.96848  0.37171  0.69136  1.0000
  N   N1        1.0  0.4482600000000001  0.8938399999999999  0.81553  1.0000
  O   O28       1.0  0.4178  0.83547  0.86719  1.0000
  O   O29       1.0  0.35814  0.02273  0.8008  1.0000
  N   N2        1.0  0.8568299999999999  0.31114  0.14594  1.0000
  O   O30       1.0  0.7481  0.33435  0.1083  1.0000
  O   O31       1.0  0.9780300000000001  0.20815  0.12758  1.0000
  C   C62       1.0  0.4318399999999999  0.8781300000000001  0.67279  1.0000
  H   H39       1.0  0.37826000000000004  0.82156  0.6812  1.0000
  O   O32       1.0  0.37622  0.9890400000000001  0.64126  1.0000
  N   N3        1.0  0.73244  0.44292  0.83609  1.0000
  O   O33       1.0  0.86577  0.36765  0.82419  1.0000
  O   O34       1.0  0.67821  0.41107000000000005  0.88929  1.0000
