data_image0
_chemical_formula_structural       C48Cr6H17O26NH2
_chemical_formula_sum              "C48 Cr6 H19 O26 N1"
_cell_length_a       10.70466
_cell_length_b       10.75612
_cell_length_c       17.100200000000005
_cell_angle_alpha    99.56597
_cell_angle_beta     99.85666
_cell_angle_gamma    60.69155

_space_group_name_H-M_alt    "P 1"
_space_group_IT_number       1

loop_
  _space_group_symop_operation_xyz
  'x, y, z'

loop_
  _atom_site_type_symbol
  _atom_site_label
  _atom_site_symmetry_multiplicity
  _atom_site_fract_x
  _atom_site_fract_y
  _atom_site_fract_z
  _atom_site_occupancy
  C   C1        1.0  0.35649  0.76889  0.39774  1.0000
  C   C2        1.0  0.85647  0.20444000000000004  0.19765  1.0000
  C   C3        1.0  0.86692  0.21454  0.28155  1.0000
  C   C4        1.0  0.7790299999999999  0.47147  0.28445  1.0000
  C   C5        1.0  0.7847900000000001  0.45921  0.20405  1.0000
  C   C6        1.0  0.8760900000000001  0.07243  0.15495  1.0000
  C   C7        1.0  0.9288400000000001  0.95014  0.19425  1.0000
  C   C8        1.0  0.9550800000000002  0.9580599999999999  0.27692  1.0000
  C   C9        1.0  0.92283  0.08922  0.32058  1.0000
  C   C10       1.0  0.8198800000000002  0.35041  0.32403  1.0000
  C   C11       1.0  0.35584999999999994  0.81508  0.15718  1.0000
  C   C12       1.0  0.36933  0.34665  0.35742  1.0000
  C   C13       1.0  0.45077000000000017  0.84607  0.2157  1.0000
  C   C14       1.0  0.43648000000000003  0.8526499999999998  0.29708  1.0000
  C   C15       1.0  0.28224  0.74045  0.25691  1.0000
  C   C16       1.0  0.28277000000000013  0.75049  0.17799  1.0000
  C   C17       1.0  0.55949  0.86953  0.19583  1.0000
  C   C18       1.0  0.6430900000000002  0.90977  0.25468  1.0000
  C   C19       1.0  0.62145  0.92861  0.33464  1.0000
  C   C20       1.0  0.5143500000000001  0.90528  0.35548  1.0000
  C   C21       1.0  0.34893000000000013  0.8007799999999998  0.31727  1.0000
  C   C22       1.0  0.29881  0.2781199999999999  0.79958  1.0000
  C   C23       1.0  0.7744700000000001  0.37856999999999996  0.40299  1.0000
  C   C24       1.0  0.42409  0.17675  0.76242  1.0000
  C   C25       1.0  0.47783000000000003  0.22458  0.71203  1.0000
  C   C26       1.0  0.25014999999999993  0.44748  0.70731  1.0000
  C   C27       1.0  0.21160000000000004  0.41238  0.77055  1.0000
  C   C28       1.0  0.50139  0.030650000000000004  0.77699  1.0000
  C   C29       1.0  0.63959  0.9423499999999999  0.75444  1.0000
  C   C30       1.0  0.7034100000000001  0.9984999999999998  0.71713  1.0000
  C   C31       1.0  0.6235900000000002  0.13834  0.69613  1.0000
  C   C32       1.0  0.38192  0.35352  0.67661  1.0000
  C   C33       1.0  0.8181700000000001  0.34215  0.70902  1.0000
  C   C34       1.0  0.3811  0.71549  0.63159  1.0000
  C   C35       1.0  0.8452000000000002  0.3139399999999999  0.7767  1.0000
  C   C36       1.0  0.35822999999999994  0.7653100000000002  0.71373  1.0000
  C   C37       1.0  0.3255800000000001  0.81186  0.78061  1.0000
  C   C38       1.0  0.89114  0.3085999999999999  0.08703  1.0000
  C   C39       1.0  0.31942  0.29971  0.12012000000000002  1.0000
  C   C40       1.0  0.29872000000000015  0.8866499999999999  0.08392  1.0000
  C   C41       1.0  0.8863700000000001  0.2974399999999999  0.85898  1.0000
  C   C42       1.0  0.27873000000000003  0.25347  0.87711  1.0000
  C   C43       1.0  0.2809800000000002  0.8810099999999997  0.85771  1.0000
  C   C44       1.0  0.40796000000000016  0.37509000000000003  0.59998  1.0000
  C   C45       1.0  0.7733900000000001  0.3807  0.62979  1.0000
  C   C46       1.0  0.34296  0.33675  0.27408  1.0000
  C   C47       1.0  0.332  0.32643  0.20335  1.0000
  C   C48       1.0  0.8297999999999999  0.32611000000000007  0.16039  1.0000
  Cr  Cr1       1.0  0.6081000000000001  0.61086  0.52225  1.0000
  Cr  Cr2       1.0  0.28889000000000004  0.5999899999999999  0.48841999999999997  1.0000
  Cr  Cr3       1.0  0.60304  0.2891899999999999  0.48939  1.0000
  Cr  Cr4       1.0  0.05395999999999999  0.05224999999999994  0.9673799999999999  1.0000
  Cr  Cr5       1.0  0.05989  0.37316  0.99271  1.0000
  Cr  Cr6       1.0  0.37337  0.061689999999999974  0.99171  1.0000
  H   H1        1.0  0.7392400000000002  0.5781999999999998  0.31526  1.0000
  H   H2        1.0  0.7249100000000003  0.9263  0.23752  1.0000
  H   H3        1.0  0.49484000000000017  0.9263699999999998  0.41745  1.0000
  H   H4        1.0  0.1770500000000002  0.5481599999999996  0.68255  1.0000
  H   H5        1.0  0.45617000000000013  0.9842899999999999  0.80634  1.0000
  H   H6        1.0  0.11413000000000004  0.4903699999999999  0.79687  1.0000
  H   H7        1.0  0.69832  0.83181  0.76797  1.0000
  H   H8        1.0  0.8131800000000001  0.9327999999999999  0.70246  1.0000
  H   H9        1.0  0.67663  0.17711  0.66671  1.0000
  H   H10       1.0  0.84703  0.06210999999999999  0.09147  1.0000
  H   H11       1.0  0.7603900000000002  0.55355  0.17662  1.0000
  H   H12       1.0  0.9463400000000001  0.84936  0.16059  1.0000
  H   H13       1.0  0.99466  0.86335  0.3075  1.0000
  H   H14       1.0  0.94339  0.09135999999999997  0.38486  1.0000
  H   H15       1.0  0.22704  0.6861499999999998  0.27045  1.0000
  H   H16       1.0  0.58744  0.8491399999999999  0.13555  1.0000
  H   H17       1.0  0.21791999999999997  0.71616  0.13344  1.0000
  O   O1        1.0  0.74981  0.49979  0.43804  1.0000
  O   O2        1.0  0.29897  0.4688  0.55739  1.0000
  O   O3        1.0  0.4894000000000003  0.25593  0.56191  1.0000
  O   O4        1.0  0.72389  0.30605  0.58461  1.0000
  O   O5        1.0  0.5000100000000002  0.50001  0.50002  1.0000
  O   O6        1.0  0.17110000000000009  0.9146799999999998  0.0531  1.0000
  O   O7        1.0  0.9416800000000001  0.18484  0.05071  1.0000
  O   O8        1.0  0.9220800000000001  0.4034199999999999  0.07261  1.0000
  O   O9        1.0  0.19688  0.36915  0.08385  1.0000
  O   O10       1.0  0.4117300000000001  0.18101999999999996  0.09153  1.0000
  O   O11       1.0  0.3650100000000001  0.9443599999999999  0.06332  1.0000
  O   O12       1.0  0.47766000000000025  0.72626  0.43929  1.0000
  O   O13       1.0  0.15938000000000005  0.9066699999999999  0.87621  1.0000
  O   O14       1.0  0.9308200000000001  0.17742  0.88673  1.0000
  O   O15       1.0  0.91036  0.3954199999999999  0.89572  1.0000
  O   O16       1.0  0.18601000000000004  0.36172999999999994  0.91987  1.0000
  O   O17       1.0  0.40000000000000013  0.17301  0.91463  1.0000
  O   O18       1.0  0.35414000000000007  0.93694  0.89934  1.0000
  O   O19       1.0  0.16241  0.16237  0.98393  1.0000
  O   O20       1.0  0.26015  0.743  0.41227  1.0000
  O   O21       1.0  0.29774  0.46654999999999996  0.39472  1.0000
  O   O22       1.0  0.48808  0.2535  0.38643  1.0000
  O   O23       1.0  0.72267  0.30379999999999996  0.42194  1.0000
  O   O24       1.0  0.75113  0.50222  0.61352  1.0000
  O   O25       1.0  0.47889000000000015  0.7285099999999999  0.60196  1.0000
  O   O26       1.0  0.26147  0.74543  0.58775  1.0000
  N   N1        1.0  0.71183  0.96738  0.39408  1.0000
  H   H18       1.0  0.67954  0.9818100000000001  0.45071  1.0000
  H   H19       1.0  0.8159400000000004  0.8807899999999999  0.39482  1.0000
