data_image0
_chemical_formula_structural       O6C2O4C2O4V2O2C2O2C2V2O2H2C14H4C2H2C2H2C4H2C2H2C4H2C6H5C2H5Cl2
_chemical_formula_sum              "O20 C44 V4 H26 Cl2"
_cell_length_a       6.96026
_cell_length_b       14.65121
_cell_length_c       15.976380000000002
_cell_angle_alpha    90.02564999999998
_cell_angle_beta     90.68735
_cell_angle_gamma    89.45443

_space_group_name_H-M_alt    "P 1"
_space_group_IT_number       1

loop_
  _space_group_symop_operation_xyz
  'x, y, z'

loop_
  _atom_site_type_symbol
  _atom_site_label
  _atom_site_symmetry_multiplicity
  _atom_site_fract_x
  _atom_site_fract_y
  _atom_site_fract_z
  _atom_site_occupancy
  O   O1        1.0  0.63818  0.33392  0.16332  1.0000
  O   O2        1.0  0.3618199999999999  0.6660799999999998  0.8366800000000002  1.0000
  O   O3        1.0  0.30847  0.34496  0.33608  1.0000
  O   O4        1.0  0.6915299999999999  0.6550399999999997  0.66392  1.0000
  O   O5        1.0  0.13813999999999999  0.16610999999999995  0.3366800000000001  1.0000
  O   O6        1.0  0.86186  0.8338899999999998  0.6633200000000002  1.0000
  C   C1        1.0  0.4776799999999999  0.36779  0.3644300000000001  1.0000
  C   C2        1.0  0.52232  0.63227  0.6355000000000002  1.0000
  O   O7        1.0  0.30846  0.3449499999999999  0.16393000000000005  1.0000
  O   O8        1.0  0.69154  0.6550499999999998  0.8360700000000002  1.0000
  O   O9        1.0  0.13813999999999999  0.1661  0.16331000000000007  1.0000
  O   O10       1.0  0.86186  0.8339  0.8366900000000003  1.0000
  C   C3        1.0  0.47689999999999994  0.3712199999999999  0.13833  1.0000
  C   C4        1.0  0.52432  0.63796  0.8690600000000003  1.0000
  O   O11       1.0  0.63818  0.33393  0.3367  1.0000
  O   O12       1.0  0.3618199999999999  0.6660699999999998  0.6633  1.0000
  O   O13       1.0  0.47167  0.19133999999999998  0.25  1.0000
  O   O14       1.0  0.52833  0.8086599999999998  0.75  1.0000
  V   V1        1.0  0.19682999999999995  0.2608999999999999  0.25  1.0000
  V   V2        1.0  0.8031699999999999  0.7391  0.75  1.0000
  O   O15       1.0  0.80842  0.15506999999999996  0.16392  1.0000
  O   O16       1.0  0.19158  0.8449299999999998  0.8360800000000003  1.0000
  C   C5        1.0  0.9773399999999998  0.13284999999999997  0.13507000000000005  1.0000
  C   C6        1.0  0.022579999999999992  0.8673699999999998  0.8647200000000003  1.0000
  O   O17       1.0  0.80842  0.15508  0.33607  1.0000
  O   O18       1.0  0.19158  0.8449199999999998  0.6639300000000002  1.0000
  C   C7        1.0  0.97818  0.13517  0.36619  1.0000
  C   C8        1.0  0.021839999999999995  0.8645799999999998  0.6336  1.0000
  V   V3        1.0  0.69683  0.23912999999999995  0.25  1.0000
  V   V4        1.0  0.30317000000000005  0.76087  0.75  1.0000
  O   O19       1.0  0.9718499999999999  0.30869  0.25001  1.0000
  O   O20       1.0  0.02815  0.69131  0.7499900000000003  1.0000
  H   H1        1.0  0.03575  0.8374299999999998  0.24069000000000004  1.0000
  H   H2        1.0  0.9627099999999997  0.16219  0.7589000000000002  1.0000
  C   C9        1.0  0.9696099999999997  0.18854999999999994  0.5478200000000002  1.0000
  C   C10       1.0  0.029720000000000003  0.8111399999999998  0.4518000000000001  1.0000
  C   C11       1.0  0.9618199999999998  0.21082999999999993  0.6327  1.0000
  C   C12       1.0  0.03688000000000001  0.7888099999999998  0.36691  1.0000
  C   C13       1.0  0.9687999999999998  0.14369999999999994  0.6933400000000002  1.0000
  C   C14       1.0  0.03002  0.8559499999999998  0.3062600000000001  1.0000
  C   C15       1.0  0.9843599999999998  0.05286  0.6703400000000003  1.0000
  C   C16       1.0  0.015049999999999996  0.94683  0.3293000000000001  1.0000
  C   C17       1.0  0.9926199999999997  0.02623  0.58508  1.0000
  C   C18       1.0  0.00714  0.97345  0.4145800000000001  1.0000
  C   C19       1.0  0.9841099999999998  0.09496999999999998  0.52143  1.0000
  C   C20       1.0  0.01563  0.9047199999999997  0.4782400000000001  1.0000
  C   C21       1.0  0.009230000000000006  0.9321999999999998  0.5641300000000002  1.0000
  C   C22       1.0  0.9907499999999998  0.06748999999999997  0.4355700000000001  1.0000
  H   H3        1.0  0.9506699999999998  0.2815199999999999  0.6521600000000002  1.0000
  H   H4        1.0  0.047500000000000014  0.7181  0.3474200000000001  1.0000
  H   H5        1.0  0.98958  0.003829999999999999  0.7209000000000002  1.0000
  H   H6        1.0  0.00989  0.9958799999999998  0.27876  1.0000
  C   C23       1.0  0.17835999999999994  0.97599  0.9666400000000003  1.0000
  C   C24       1.0  0.82146  0.024269999999999993  0.03306  1.0000
  H   H7        1.0  0.3183500000000001  0.95829  0.9422700000000003  1.0000
  H   H8        1.0  0.6814999999999998  0.04176999999999999  0.05757000000000002  1.0000
  C   C25       1.0  0.16717  0.03928  0.03215  1.0000
  C   C26       1.0  0.8326699999999998  0.9608899999999998  0.9676200000000003  1.0000
  H   H9        1.0  0.29915999999999987  0.06864999999999997  0.05592  1.0000
  H   H10       1.0  0.70075  0.93128  0.94402  1.0000
  C   C27       1.0  0.98854  0.06443  0.06622  1.0000
  C   C28       1.0  0.01127000000000001  0.9359299999999998  0.9334200000000002  1.0000
  C   C29       1.0  0.32204  0.4663199999999999  0.47405000000000014  1.0000
  C   C30       1.0  0.67793  0.53425  0.5253600000000003  1.0000
  H   H11       1.0  0.18232  0.4415999999999999  0.4552000000000001  1.0000
  H   H12       1.0  0.81764  0.5588999999999997  0.54425  1.0000
  C   C31       1.0  0.33352  0.52793  0.5408200000000002  1.0000
  C   C32       1.0  0.6664499999999999  0.4726699999999999  0.4585500000000001  1.0000
  H   H13       1.0  0.20251999999999998  0.5471399999999997  0.5723400000000002  1.0000
  H   H14       1.0  0.7974099999999997  0.45345  0.42698000000000014  1.0000
  C   C33       1.0  0.5114  0.5635999999999998  0.5668600000000003  1.0000
  C   C34       1.0  0.4886  0.4368299999999999  0.43268  1.0000
  C   C35       1.0  0.32321  0.49027  0.042400000000000014  1.0000
  C   C36       1.0  0.68018  0.5454799999999997  0.9871300000000002  1.0000
  H   H15       1.0  0.18488  0.46782  0.06234000000000001  1.0000
  H   H16       1.0  0.8188599999999998  0.5659999999999997  0.9653800000000002  1.0000
  C   C37       1.0  0.33776  0.56538  0.98729  1.0000
  C   C38       1.0  0.6655599999999999  0.4921699999999999  0.060760000000000015  1.0000
  C   C39       1.0  0.51397  0.5791899999999998  0.9461100000000002  1.0000
  C   C40       1.0  0.4888999999999999  0.4493899999999999  0.07762  1.0000
  C   C41       1.0  0.18378000000000003  0.6398099999999998  0.9875100000000002  1.0000
  C   C42       1.0  0.26225999999999994  0.73077  0.019870000000000006  1.0000
  H   H17       1.0  0.3365199999999999  0.72067  0.08118  1.0000
  H   H18       1.0  0.36417  0.76144  0.9754300000000002  1.0000
  H   H19       1.0  0.14150999999999994  0.77962  0.02907  1.0000
  H   H20       1.0  0.10957999999999998  0.64758  0.9262500000000002  1.0000
  H   H21       1.0  0.07086  0.62372  0.030830000000000007  1.0000
  C   C43       1.0  0.82467  0.49422  0.12663  1.0000
  C   C44       1.0  0.75712  0.53327  0.21045000000000005  1.0000
  H   H22       1.0  0.69793  0.6033099999999998  0.20128000000000004  1.0000
  H   H23       1.0  0.6456599999999999  0.4907499999999999  0.23946000000000006  1.0000
  H   H24       1.0  0.8809399999999997  0.53691  0.25483  1.0000
  H   H25       1.0  0.8960699999999998  0.42697  0.13409000000000004  1.0000
  H   H26       1.0  0.9368099999999998  0.54019  0.10827  1.0000
  Cl  Cl1       1.0  0.9626899999999998  0.28446  0.4816900000000001  1.0000
  Cl  Cl2       1.0  0.036890000000000006  0.7153399999999998  0.51799  1.0000
