data_image0
_chemical_formula_structural       O4C2O4C2Cu2C2O2N2C22H4C10O2C2H8C2N3O2NO2NO2NO2NO2NO2NO2NO2
_chemical_formula_sum              "O28 C42 Cu2 N12 H12"
_cell_length_a       27.7763
_cell_length_b       8.65062
_cell_length_c       7.50224
_cell_angle_alpha    101.65383999999999
_cell_angle_beta     95.50451
_cell_angle_gamma    92.74697

_space_group_name_H-M_alt    "P 1"
_space_group_IT_number       1

loop_
  _space_group_symop_operation_xyz
  'x, y, z'

loop_
  _atom_site_type_symbol
  _atom_site_label
  _atom_site_symmetry_multiplicity
  _atom_site_fract_x
  _atom_site_fract_y
  _atom_site_fract_z
  _atom_site_occupancy
  O   O1        1.0  0.5035  0.28612  0.6197800000000002  1.0000
  O   O2        1.0  0.4965  0.7138800000000001  0.3802200000000001  1.0000
  O   O3        1.0  0.49441  0.25678  0.30836  1.0000
  O   O4        1.0  0.50559  0.74322  0.6916400000000003  1.0000
  C   C1        1.0  0.4960299999999999  0.20100000000000007  0.4562000000000001  1.0000
  C   C2        1.0  0.50397  0.799  0.5438  1.0000
  O   O5        1.0  0.43480999999999986  0.5147  0.6556900000000002  1.0000
  O   O6        1.0  0.5651899999999997  0.48530000000000006  0.34431  1.0000
  O   O7        1.0  0.42572  0.48535  0.34428  1.0000
  O   O8        1.0  0.57428  0.51465  0.65572  1.0000
  C   C3        1.0  0.40764  0.5005  0.50052  1.0000
  C   C4        1.0  0.59236  0.49952  0.49948  1.0000
  Cu  Cu1       1.0  0.50538  0.51738  0.68438  1.0000
  Cu  Cu2       1.0  0.49462  0.48261999999999994  0.31562  1.0000
  C   C5        1.0  0.17477  0.36222  0.42896  1.0000
  C   C6        1.0  0.8252499999999999  0.63883  0.57106  1.0000
  O   O9        1.0  0.19646  0.23726  0.34093  1.0000
  O   O10       1.0  0.80355  0.76392  0.65872  1.0000
  N   N1        1.0  0.20239  0.49862000000000006  0.50596  1.0000
  N   N2        1.0  0.79764  0.50232  0.49443  1.0000
  C   C7        1.0  0.18243  0.6306400000000001  0.5917600000000002  1.0000
  C   C8        1.0  0.8175999999999998  0.3702  0.40892  1.0000
  C   C9        1.0  0.27569  0.54465  0.35213  1.0000
  C   C10       1.0  0.72434  0.45633  0.64822  1.0000
  C   C11       1.0  0.3263  0.5424600000000002  0.35449000000000014  1.0000
  C   C12       1.0  0.67373  0.45807  0.64572  1.0000
  C   C13       1.0  0.3325599999999999  0.46487  0.6482300000000002  1.0000
  C   C14       1.0  0.66743  0.53529  0.35176  1.0000
  C   C15       1.0  0.28246  0.463  0.64637  1.0000
  C   C16       1.0  0.71754  0.53748  0.35373  1.0000
  C   C17       1.0  0.25381  0.50196  0.5000500000000002  1.0000
  C   C18       1.0  0.74621  0.49899000000000004  0.5003  1.0000
  C   C19       1.0  0.10238  0.4939299999999999  0.51336  1.0000
  C   C20       1.0  0.8976399999999998  0.50702  0.48693  1.0000
  C   C21       1.0  0.12404  0.3545  0.4363300000000001  1.0000
  C   C22       1.0  0.87598  0.64651  0.56377  1.0000
  C   C23       1.0  0.09423  0.21422  0.3666  1.0000
  C   C24       1.0  0.9058  0.7868000000000002  0.6333800000000003  1.0000
  C   C25       1.0  0.13215999999999997  0.63139  0.5955300000000002  1.0000
  C   C26       1.0  0.86787  0.36949  0.40501  1.0000
  C   C27       1.0  0.3548  0.50262  0.50133  1.0000
  C   C28       1.0  0.6452099999999998  0.49757999999999997  0.4987100000000001  1.0000
  H   H1        1.0  0.35377999999999993  0.43439  0.76331  1.0000
  H   H2        1.0  0.6462  0.56546  0.23652000000000004  1.0000
  H   H3        1.0  0.26562  0.43108000000000013  0.7594200000000002  1.0000
  H   H4        1.0  0.73437  0.56922  0.24056000000000005  1.0000
  C   C29       1.0  0.96995  0.36278  0.4138  1.0000
  C   C30       1.0  0.030069999999999996  0.63814  0.58651  1.0000
  C   C31       1.0  0.9787399999999998  0.64252  0.57515  1.0000
  C   C32       1.0  0.021289999999999996  0.35843  0.42504  1.0000
  C   C33       1.0  0.94896  0.50421  0.4920200000000001  1.0000
  C   C34       1.0  0.05105999999999999  0.49671999999999994  0.50824  1.0000
  C   C35       1.0  0.9385499999999999  0.23073  0.32346  1.0000
  C   C36       1.0  0.06147  0.77014  0.67703  1.0000
  C   C37       1.0  0.88868  0.23406  0.3204800000000001  1.0000
  C   C38       1.0  0.11133999999999997  0.76679  0.68014  1.0000
  O   O11       1.0  0.7888199999999997  0.2393  0.3302100000000001  1.0000
  O   O12       1.0  0.21122  0.7614300000000002  0.6708400000000002  1.0000
  C   C39       1.0  0.043989999999999994  0.21818  0.36073  1.0000
  C   C40       1.0  0.95603  0.78281  0.63929  1.0000
  H   H5        1.0  0.65638  0.42735000000000006  0.7583300000000002  1.0000
  H   H6        1.0  0.34368  0.5732200000000001  0.24196000000000006  1.0000
  H   H7        1.0  0.8664  0.12872  0.25163  1.0000
  H   H8        1.0  0.13362  0.87208  0.74912  1.0000
  H   H9        1.0  0.95104  0.12228  0.25103  1.0000
  H   H10       1.0  0.048970000000000014  0.8785400000000001  0.7495500000000003  1.0000
  H   H11       1.0  0.023790000000000002  0.10603000000000003  0.31086000000000014  1.0000
  H   H12       1.0  0.9762399999999998  0.89497  0.6890400000000002  1.0000
  C   C41       1.0  0.48604  0.03598  0.44411  1.0000
  C   C42       1.0  0.51396  0.9640199999999999  0.5558800000000003  1.0000
  N   N3        1.0  0.48651  0.45643  0.038510000000000016  1.0000
  N   N4        1.0  0.51349  0.54357  0.9614900000000002  1.0000
  N   N5        1.0  0.47313  0.3058100000000001  0.9370300000000003  1.0000
  O   O13       1.0  0.50181  0.19289000000000006  0.9479000000000002  1.0000
  O   O14       1.0  0.42791  0.26887000000000005  0.8741200000000001  1.0000
  N   N6        1.0  0.52687  0.69419  0.06297  1.0000
  O   O15       1.0  0.49819  0.80711  0.052100000000000014  1.0000
  O   O16       1.0  0.57209  0.73113  0.12588  1.0000
  N   N7        1.0  0.11389999999999999  0.06388000000000003  0.3093800000000001  1.0000
  O   O17       1.0  0.09619000000000001  0.9709  0.15595  1.0000
  O   O18       1.0  0.14178  0.006800000000000001  0.42623  1.0000
  N   N8        1.0  0.88613  0.9371600000000001  0.69056  1.0000
  O   O19       1.0  0.90384  0.030140000000000007  0.844  1.0000
  O   O20       1.0  0.8582699999999999  0.9942499999999999  0.5736700000000002  1.0000
  N   N9        1.0  0.75218  0.40926  0.7988600000000002  1.0000
  O   O21       1.0  0.79898  0.43747  0.82911  1.0000
  O   O22       1.0  0.73048  0.33873000000000003  0.9098200000000002  1.0000
  N   N10       1.0  0.24789  0.5920999999999998  0.20163  1.0000
  O   O23       1.0  0.26971  0.65989  0.08870000000000003  1.0000
  O   O24       1.0  0.20095  0.56776  0.17403  1.0000
  N   N11       1.0  0.44062999999999997  0.9639300000000001  0.34411  1.0000
  O   O25       1.0  0.4236199999999999  0.01021  0.19723  1.0000
  O   O26       1.0  0.41189  0.87797  0.41826000000000013  1.0000
  N   N12       1.0  0.55938  0.036070000000000026  0.6559000000000003  1.0000
  O   O27       1.0  0.57638  0.98979  0.8027600000000003  1.0000
  O   O28       1.0  0.58811  0.12205000000000002  0.58176  1.0000
