data_image0
_chemical_formula_structural       O4C2O4C2O2V2C2H6C26H8C2H2C2H2C4H2C2H2C2O4C2O4C2O2V2CH3CH3
_chemical_formula_sum              "O20 C50 V4 H28"
_cell_length_a       20.16274
_cell_length_b       7.25651
_cell_length_c       13.555870000000002
_cell_angle_alpha    90.22353999999999
_cell_angle_beta     103.03068999999999
_cell_angle_gamma    89.79699000000001

_symmetry_space_group_name_H-M    'P 1'
_symmetry_Int_Tables_number       1

loop_
  _symmetry_equiv_pos_as_xyz
  'x,y,z'

loop_
  _atom_site_type_symbol
  _atom_site_label
  _atom_site_symmetry_multiplicity
  _atom_site_fract_x
  _atom_site_fract_y
  _atom_site_fract_z
  _atom_site_occupancy
  O   O1        1.0  0.44956  0.50681  0.5997  1.0000
  O   O2        1.0  0.55044  0.00681  0.4003  1.0000
  O   O3        1.0  0.58796  0.18006  0.59576  1.0000
  O   O4        1.0  0.41204  0.68006  0.40423999999999993  1.0000
  C   C1        1.0  0.61492  0.34415  0.61751  1.0000
  C   C2        1.0  0.38508  0.84424  0.38246  1.0000
  O   O5        1.0  0.45237999999999995  0.17743  0.6117  1.0000
  O   O6        1.0  0.54762  0.67743  0.3883  1.0000
  O   O7        1.0  0.41389999999999993  0.00189  0.41635  1.0000
  O   O8        1.0  0.5861  0.50189  0.58365  1.0000
  C   C3        1.0  0.43627  0.34614  0.63747  1.0000
  C   C4        1.0  0.56374  0.84519  0.3625  1.0000
  O   O9        1.0  0.48752999999999996  0.33749  0.43589  1.0000
  O   O10       1.0  0.51247  0.83749  0.56411  1.0000
  V   V1        1.0  0.50231  0.06466  0.51189  1.0000
  V   V2        1.0  0.49769  0.56466  0.48811  1.0000
  C   C5        1.0  0.60998  0.8411699999999999  0.10968  1.0000
  C   C6        1.0  0.38967000000000007  0.4015199999999999  0.88853  1.0000
  H   H1        1.0  0.5164  0.8350599999999998  0.15974999999999995  1.0000
  H   H2        1.0  0.48327  0.39708  0.8384399999999999  1.0000
  H   H3        1.0  0.69311  0.83926  0.9837899999999998  1.0000
  H   H4        1.0  0.30634  0.42915  0.013509999999999996  1.0000
  H   H5        1.0  0.58398  0.8344399999999997  0.030509999999999995  1.0000
  H   H6        1.0  0.41550999999999993  0.4241  0.9668399999999999  1.0000
  C   C7        1.0  0.60367  0.85108  0.28517999999999993  1.0000
  C   C8        1.0  0.39629  0.3565299999999999  0.71465  1.0000
  C   C9        1.0  0.9321299999999999  0.87094  0.3173299999999999  1.0000
  C   C10       1.0  0.06807999999999996  0.32851  0.6838999999999997  1.0000
  C   C11       1.0  0.8969199999999999  0.87202  0.3948899999999999  1.0000
  C   C12       1.0  0.1034  0.31156  0.60689  1.0000
  C   C13       1.0  0.82569  0.8664499999999999  0.37103  1.0000
  C   C14       1.0  0.17454999999999998  0.3223299999999999  0.6302599999999999  1.0000
  C   C15       1.0  0.7881  0.85954  0.26915  1.0000
  C   C16       1.0  0.21192999999999995  0.35035999999999995  0.7310899999999998  1.0000
  C   C17       1.0  0.8248899999999999  0.85699  0.19089  1.0000
  C   C18       1.0  0.17502000000000004  0.3685599999999999  0.80873  1.0000
  C   C19       1.0  0.7152999999999999  0.85543  0.24228  1.0000
  C   C20       1.0  0.28465  0.3605199999999999  0.75754  1.0000
  C   C21       1.0  0.68135  0.84744  0.13821  1.0000
  C   C22       1.0  0.31839  0.38953999999999994  0.86052  1.0000
  C   C23       1.0  0.71868  0.84508  0.06319  1.0000
  C   C24       1.0  0.28093999999999997  0.40705  0.9349399999999998  1.0000
  C   C25       1.0  0.7892199999999999  0.85006  0.08887  1.0000
  C   C26       1.0  0.21047999999999997  0.3966  0.9096999999999997  1.0000
  C   C27       1.0  0.67468  0.85832  0.31484999999999996  1.0000
  C   C28       1.0  0.32538  0.34351  0.68555  1.0000
  C   C29       1.0  0.5714  0.84197  0.18284  1.0000
  C   C30       1.0  0.42836  0.38583  0.81587  1.0000
  C   C31       1.0  0.89689  0.8629499999999998  0.21614  1.0000
  C   C32       1.0  0.10311  0.35711  0.784  1.0000
  H   H7        1.0  0.69629  0.86412  0.3950799999999999  1.0000
  H   H8        1.0  0.30393  0.32182  0.6061199999999998  1.0000
  H   H9        1.0  0.9872900000000001  0.87691  0.3355799999999999  1.0000
  H   H10       1.0  0.013000000000000005  0.3187999999999999  0.66612  1.0000
  H   H11       1.0  0.80145  0.8679199999999998  0.43414  1.0000
  H   H12       1.0  0.19889  0.30788  0.56764  1.0000
  H   H13       1.0  0.8155900000000001  0.84818  0.027579999999999997  1.0000
  H   H14       1.0  0.18399999999999994  0.41097  0.97049  1.0000
  C   C33       1.0  0.21684999999999996  0.02299  0.22482  1.0000
  C   C34       1.0  0.7822699999999999  0.52329  0.77731  1.0000
  H   H15       1.0  0.19251  0.15576  0.20699  1.0000
  H   H16       1.0  0.8059  0.6562599999999998  0.7968899999999998  1.0000
  C   C35       1.0  0.28207  0.018609999999999995  0.28818  1.0000
  C   C36       1.0  0.7170799999999999  0.51878  0.7138699999999998  1.0000
  H   H17       1.0  0.30564  0.14759  0.31724  1.0000
  H   H18       1.0  0.69281  0.64792  0.68649  1.0000
  C   C37       1.0  0.31611  0.85021  0.3138  1.0000
  C   C38       1.0  0.6839  0.35009  0.68615  1.0000
  C   C39       1.0  0.28312  0.68628  0.27404  1.0000
  C   C40       1.0  0.71775  0.18602  0.72387  1.0000
  H   H19       1.0  0.30756  0.55363  0.29186  1.0000
  H   H20       1.0  0.69402  0.05316  0.70433  1.0000
  C   C41       1.0  0.21791  0.69061  0.21064999999999998  1.0000
  C   C42       1.0  0.78294  0.19048  0.7873  1.0000
  H   H21       1.0  0.19445  0.56155  0.18152  1.0000
  H   H22       1.0  0.8070999999999999  0.061239999999999996  0.81472  1.0000
  C   C43       1.0  0.18374  0.85901  0.18525  1.0000
  C   C44       1.0  0.81624  0.35916  0.8148099999999999  1.0000
  O   O11       1.0  0.91392  0.20337  0.91626  1.0000
  O   O12       1.0  0.08608  0.70337  0.08373999999999997  1.0000
  O   O13       1.0  0.04762000000000001  0.53554  0.88829  1.0000
  O   O14       1.0  0.9523799999999999  0.03554  0.11170999999999998  1.0000
  C   C45       1.0  0.06353  0.36775  0.86211  1.0000
  C   C46       1.0  0.93643  0.86878  0.13789  1.0000
  O   O15       1.0  0.91204  0.53278  0.9042199999999998  1.0000
  O   O16       1.0  0.08796000000000001  0.03278  0.09578  1.0000
  O   O17       1.0  0.94955  0.70816  0.09971999999999998  1.0000
  O   O18       1.0  0.050450000000000016  0.20816  0.90028  1.0000
  C   C47       1.0  0.88543  0.3649799999999999  0.88303  1.0000
  C   C48       1.0  0.11456  0.86487  0.11699999999999998  1.0000
  O   O19       1.0  0.012479999999999996  0.3753  0.06405999999999999  1.0000
  O   O20       1.0  0.9875199999999998  0.8753  0.93594  1.0000
  V   V3        1.0  0.99769  0.6481799999999998  0.9881099999999999  1.0000
  V   V4        1.0  0.00231  0.14817999999999998  0.01189  1.0000
  C   C49       1.0  0.93484  0.88006  0.5038  1.0000
  H   H23       1.0  0.99082  0.88333  0.51109  1.0000
  H   H24       1.0  0.91975  0.00604  0.54015  1.0000
  H   H25       1.0  0.9223899999999999  0.75693  0.54448  1.0000
  C   C50       1.0  0.06571  0.2809199999999999  0.49914  1.0000
  H   H26       1.0  0.009780000000000011  0.27554  0.49211  1.0000
  H   H27       1.0  0.07688  0.3950399999999999  0.45105  1.0000
  H   H28       1.0  0.08220999999999999  0.14855  0.47080999999999995  1.0000
