data_image0
_chemical_formula_structural       C60Cr6H29O26F2BrFBr3FBr3F2
_chemical_formula_sum              "C60 Cr6 H29 O26 F6 Br7"
_cell_length_a       11.07882
_cell_length_b       11.01205
_cell_length_c       18.82745
_cell_angle_alpha    90.26676
_cell_angle_beta     89.97385
_cell_angle_gamma    60.84148

_symmetry_space_group_name_H-M    'P 1'
_symmetry_Int_Tables_number       1

loop_
  _symmetry_equiv_pos_as_xyz
  'x,y,z'

loop_
  _atom_site_type_symbol
  _atom_site_label
  _atom_site_symmetry_multiplicity
  _atom_site_fract_x
  _atom_site_fract_y
  _atom_site_fract_z
  _atom_site_occupancy
  C   C1        1.0  0.24076  0.64577  0.61071  1.0000
  C   C2        1.0  0.70659  0.53007  0.7997  1.0000
  C   C3        1.0  0.70074  0.67116  0.81284  1.0000
  C   C4        1.0  0.67094  0.64178  0.67729  1.0000
  C   C5        1.0  0.7910199999999998  0.67193  0.68677  1.0000
  C   C6        1.0  0.7017299999999999  0.50832  0.7193  1.0000
  C   C7        1.0  0.6733800000000002  0.16807  0.82579  1.0000
  C   C8        1.0  0.7638  0.19759  0.78734  1.0000
  C   C9        1.0  0.75597  0.20437  0.71328  1.0000
  C   C10       1.0  0.5683  0.15603999999999998  0.71379  1.0000
  C   C11       1.0  0.56543  0.16449  0.78702  1.0000
  C   C12       1.0  0.65175  0.61829  0.6020400000000001  1.0000
  C   C13       1.0  0.9172500000000001  0.12707000000000002  0.7853400000000001  1.0000
  C   C14       1.0  0.90715  0.12882  0.70505  1.0000
  C   C15       1.0  0.66239  0.17917  0.67535  1.0000
  C   C16       1.0  0.18430999999999997  0.6672000000000001  0.83608  1.0000
  C   C17       1.0  0.15927000000000002  0.57598  0.7950000000000002  1.0000
  C   C18       1.0  0.16823000000000005  0.57434  0.72128  1.0000
  C   C19       1.0  0.20735999999999993  0.77196  0.72689  1.0000
  C   C20       1.0  0.21541999999999992  0.7606100000000001  0.80088  1.0000
  C   C21       1.0  0.23388999999999996  0.42191000000000006  0.79909  1.0000
  C   C22       1.0  0.24622999999999998  0.41994  0.71887  1.0000
  C   C23       1.0  0.62696  0.22951  0.6028100000000001  1.0000
  C   C24       1.0  0.19505999999999998  0.6694  0.6853  1.0000
  C   C25       1.0  0.6752  0.68614  0.17443  1.0000
  C   C26       1.0  0.7504800000000001  0.55779  0.20589000000000002  1.0000
  C   C27       1.0  0.75113  0.54213  0.27726000000000006  1.0000
  C   C28       1.0  0.60841  0.78885  0.29335  1.0000
  C   C29       1.0  0.6156599999999999  0.80452  0.21945000000000003  1.0000
  C   C30       1.0  0.7629600000000001  0.42005000000000003  0.18938  1.0000
  C   C31       1.0  0.76846  0.39938000000000007  0.2693  1.0000
  C   C32       1.0  0.66832  0.65436  0.32183  1.0000
  C   C33       1.0  0.6640399999999999  0.14291  0.17777  1.0000
  C   C34       1.0  0.22553000000000006  0.64792  0.40089  1.0000
  C   C35       1.0  0.5381000000000001  0.24151000000000003  0.20587  1.0000
  C   C36       1.0  0.52462  0.25849  0.2782  1.0000
  C   C37       1.0  0.7628  0.0858  0.29677  1.0000
  C   C38       1.0  0.77746  0.06606  0.22354000000000002  1.0000
  C   C39       1.0  0.39598000000000005  0.25844  0.19823000000000005  1.0000
  C   C40       1.0  0.38595  0.26751  0.27824000000000004  1.0000
  C   C41       1.0  0.6352200000000001  0.1827  0.32394  1.0000
  C   C42       1.0  0.14023  0.67149  0.18319  1.0000
  C   C43       1.0  0.22318  0.7213  0.21121000000000006  1.0000
  C   C44       1.0  0.25273  0.70951  0.28203  1.0000
  C   C45       1.0  0.64361  0.62265  0.39323000000000013  1.0000
  C   C46       1.0  0.10453999999999997  0.60697  0.30099  1.0000
  C   C47       1.0  0.08453000000000002  0.60884  0.22784000000000001  1.0000
  C   C48       1.0  0.20632999999999993  0.8643400000000001  0.20726  1.0000
  C   C49       1.0  0.25172  0.84639  0.28372  1.0000
  C   C50       1.0  0.18628999999999998  0.66119  0.32811  1.0000
  C   C51       1.0  0.69979  0.10508  0.89706  1.0000
  C   C52       1.0  0.72374  0.6873100000000001  0.88883  1.0000
  C   C53       1.0  0.12002  0.70543  0.9066000000000001  1.0000
  C   C54       1.0  0.67811  0.10158  0.10482  1.0000
  C   C55       1.0  0.70229  0.69534  0.10011  1.0000
  C   C56       1.0  0.6159000000000001  0.22820999999999997  0.39623  1.0000
  C   C57       1.0  0.08744999999999999  0.71209  0.11337  1.0000
  C   C58       1.0  0.5573099999999999  0.7854000000000001  0.78731  1.0000
  C   C59       1.0  0.53861  0.7614700000000001  0.70905  1.0000
  C   C60       1.0  0.81713  0.67573  0.76717  1.0000
  Cr  Cr1       1.0  0.39296000000000003  0.39792  0.50224  1.0000
  Cr  Cr2       1.0  0.39834000000000014  0.70848  0.50125  1.0000
  Cr  Cr3       1.0  0.7086699999999999  0.39357000000000003  0.49646  1.0000
  Cr  Cr4       1.0  0.9376499999999999  0.9385400000000002  0.0076100000000000004  1.0000
  Cr  Cr5       1.0  0.62533  0.93737  0.99452  1.0000
  Cr  Cr6       1.0  0.93794  0.62523  0.00119  1.0000
  H   H1        1.0  0.8031799999999999  0.42232  0.70179  1.0000
  H   H2        1.0  0.91667  0.58215  0.77997  1.0000
  H   H3        1.0  0.8858  0.58885  0.66116  1.0000
  H   H4        1.0  0.48982  0.14065  0.6874000000000001  1.0000
  H   H5        1.0  0.4845599999999999  0.15267000000000003  0.81269  1.0000
  H   H6        1.0  0.96463  0.18786  0.80654  1.0000
  H   H7        1.0  0.94703  0.19234  0.67885  1.0000
  H   H8        1.0  0.94003  0.02533  0.68043  1.0000
  H   H9        1.0  0.47608000000000006  0.78068  0.8195400000000002  1.0000
  H   H10       1.0  0.16625999999999996  0.38128000000000006  0.81939  1.0000
  H   H11       1.0  0.33282  0.38452000000000003  0.82788  1.0000
  H   H12       1.0  0.35186000000000006  0.3845100000000001  0.6990500000000001  1.0000
  H   H13       1.0  0.55243  0.87957  0.32695  1.0000
  H   H14       1.0  0.57319  0.90756  0.19761  1.0000
  H   H15       1.0  0.86084  0.3501  0.16107000000000002  1.0000
  H   H16       1.0  0.66772  0.42913  0.16473  1.0000
  H   H17       1.0  0.6792  0.39279  0.29115  1.0000
  H   H18       1.0  0.4612199999999999  0.7261500000000001  0.7060300000000002  1.0000
  H   H19       1.0  0.87393  0.98346  0.20299000000000003  1.0000
  H   H20       1.0  0.3231  0.35599  0.17073  1.0000
  H   H21       1.0  0.30619  0.36802  0.29888  1.0000
  H   H22       1.0  0.3872300000000001  0.17569  0.30349  1.0000
  H   H23       1.0  0.01666999999999998  0.57241  0.20696000000000003  1.0000
  H   H24       1.0  0.09737999999999997  0.94734  0.20108  1.0000
  H   H25       1.0  0.5040600000000001  0.85884  0.67819  1.0000
  H   H26       1.0  0.3564599999999999  0.83241  0.29133  1.0000
  H   H27       1.0  0.1729400000000001  0.9248500000000001  0.31979  1.0000
  H   H28       1.0  0.61756  0.52827  0.82616  1.0000
  H   H29       1.0  0.6204699999999999  0.4792100000000001  0.708  1.0000
  O   O1        1.0  0.50738  0.2557  0.58144  1.0000
  O   O2        1.0  0.52448  0.69581  0.42404  1.0000
  O   O3        1.0  0.73639  0.50429  0.41479  1.0000
  O   O4        1.0  0.6913  0.27729  0.4221700000000001  1.0000
  O   O5        1.0  0.49998999999999993  0.49999  0.49998  1.0000
  O   O6        1.0  0.08939999999999998  0.8256900000000001  0.93057  1.0000
  O   O7        1.0  0.8184600000000001  0.05444000000000001  0.92985  1.0000
  O   O8        1.0  0.60606  0.07715000000000001  0.9155100000000002  1.0000
  O   O9        1.0  0.64655  0.80668  0.9175700000000001  1.0000
  O   O10       1.0  0.83717  0.59341  0.9152500000000001  1.0000
  O   O11       1.0  0.06520000000000002  0.63553  0.93157  1.0000
  O   O12       1.0  0.28032  0.52735  0.57893  1.0000
  O   O13       1.0  0.06825999999999997  0.82889  0.09184  1.0000
  O   O14       1.0  0.7988700000000001  0.05741000000000001  0.07934  1.0000
  O   O15       1.0  0.58493  0.08035  0.07678000000000001  1.0000
  O   O16       1.0  0.6269599999999997  0.80965  0.06706  1.0000
  O   O17       1.0  0.81604  0.59661  0.07651  1.0000
  O   O18       1.0  0.045610000000000005  0.6385  0.08106  1.0000
  O   O19       1.0  0.8336400000000003  0.8337099999999998  0.0011000000000000003  1.0000
  O   O20       1.0  0.26051  0.73959  0.58459  1.0000
  O   O21       1.0  0.5323  0.69508  0.5738200000000001  1.0000
  O   O22       1.0  0.74484  0.5035  0.57637  1.0000
  O   O23       1.0  0.69912  0.27656  0.57196  1.0000
  O   O24       1.0  0.49894  0.2565  0.41986  1.0000
  O   O25       1.0  0.2725  0.52808  0.42915  1.0000
  O   O26       1.0  0.25206000000000006  0.74038  0.42301  1.0000
  F   F1        1.0  0.54133  0.9167400000000001  0.7956000000000001  1.0000
  F   F2        1.0  0.9746200000000003  0.99651  0.8131800000000001  1.0000
  Br  Br1       1.0  0.2158499999999999  0.9320000000000002  0.68904  1.0000
  F   F3        1.0  0.23870000000000008  0.8524599999999999  0.83885  1.0000
  Br  Br2       1.0  0.14720999999999998  0.33836000000000005  0.67137  1.0000
  Br  Br3       1.0  0.95042  0.25921  0.30094  1.0000
  Br  Br4       1.0  0.90788  0.96749  0.35936  1.0000
  F   F4        1.0  0.39332  0.14191  0.17281  1.0000
  Br  Br5       1.0  0.016949999999999993  0.5352  0.36256000000000005  1.0000
  Br  Br6       1.0  0.3291899999999999  0.87659  0.13859  1.0000
  Br  Br7       1.0  0.84192  0.8330399999999999  0.78945  1.0000
  F   F5        1.0  0.75991  0.79591  0.65333  1.0000
  F   F6        1.0  0.8264599999999998  0.42301  0.8274100000000001  1.0000
