data_image0
_chemical_formula_structural       C60Cr6H12O27HOHOHF2OHF2OHF2OHOHOHFOHOHF3
_chemical_formula_sum              "C60 Cr6 H22 O36 F10"
_cell_length_a       11.03293
_cell_length_b       11.087319999999998
_cell_length_c       18.79002
_cell_angle_alpha    90.06765
_cell_angle_beta     90.20397
_cell_angle_gamma    59.28304

_space_group_name_H-M_alt    "P 1"
_space_group_IT_number       1

loop_
  _space_group_symop_operation_xyz
  'x, y, z'

loop_
  _atom_site_type_symbol
  _atom_site_label
  _atom_site_symmetry_multiplicity
  _atom_site_fract_x
  _atom_site_fract_y
  _atom_site_fract_z
  _atom_site_occupancy
  C   C1        1.0  0.36046  0.77184  0.39752  1.0000
  C   C2        1.0  0.57073  0.08244  0.20299999999999999  1.0000
  C   C3        1.0  0.3192299999999999  0.28522  0.17890999999999996  1.0000
  C   C4        1.0  0.39436  0.18756  0.29759  1.0000
  C   C5        1.0  0.41903  0.17536  0.22365  1.0000
  C   C6        1.0  0.11060999999999997  0.67858  0.32647  1.0000
  C   C7        1.0  0.01489000000000002  0.79184  0.36936999999999987  1.0000
  C   C8        1.0  0.6180299999999999  0.96865  0.15658  1.0000
  C   C9        1.0  0.7614  0.8768299999999999  0.14422  1.0000
  C   C10       1.0  0.21360000000000007  0.41189  0.21040999999999996  1.0000
  C   C11       1.0  0.20673000000000002  0.43139  0.28414999999999996  1.0000
  C   C12       1.0  0.37604  0.3504  0.39187  1.0000
  C   C13       1.0  0.89603  0.79677  0.39672  1.0000
  C   C14       1.0  0.8609699999999998  0.70074  0.37260999999999994  1.0000
  C   C15       1.0  0.94884  0.59738  0.32397  1.0000
  C   C16       1.0  0.08912999999999997  0.56758  0.31398999999999994  1.0000
  C   C17       1.0  0.3156599999999999  0.32224  0.32676999999999995  1.0000
  C   C18       1.0  0.9170099999999999  0.31322  0.3085799999999999  1.0000
  C   C19       1.0  0.9578599999999998  0.29809  0.23789999999999997  1.0000
  C   C20       1.0  0.85897  0.33617  0.183  1.0000
  C   C21       1.0  0.71702  0.38966  0.19785999999999998  1.0000
  C   C22       1.0  0.6731299999999999  0.41322  0.26821  1.0000
  C   C23       1.0  0.71873  0.41233  0.3949299999999999  1.0000
  C   C24       1.0  0.77176  0.37698  0.32341  1.0000
  C   C25       1.0  0.47825000000000006  0.76423  0.28357  1.0000
  C   C26       1.0  0.46597999999999995  0.78516  0.20962  1.0000
  C   C27       1.0  0.33273  0.8752  0.18171  1.0000
  C   C28       1.0  0.21743999999999997  0.9506599999999998  0.22719999999999999  1.0000
  C   C29       1.0  0.23118999999999995  0.93217  0.29978999999999995  1.0000
  C   C30       1.0  0.3573399999999999  0.82904  0.3274199999999999  1.0000
  C   C31       1.0  0.3779199999999999  0.19518  0.69012  1.0000
  C   C32       1.0  0.37103  0.18152  0.76334  1.0000
  C   C33       1.0  0.29469  0.3014  0.8066299999999997  1.0000
  C   C34       1.0  0.34499999999999986  0.76726  0.6049699999999999  1.0000
  C   C35       1.0  0.2131699999999999  0.43328999999999995  0.7757799999999999  1.0000
  C   C36       1.0  0.21652000000000002  0.44817999999999997  0.7027299999999999  1.0000
  C   C37       1.0  0.31086  0.32998  0.66078  1.0000
  C   C38       1.0  0.8347099999999997  0.43738  0.72186  1.0000
  C   C39       1.0  0.8113  0.45058999999999994  0.79497  1.0000
  C   C40       1.0  0.82189  0.33543  0.83306  1.0000
  C   C41       1.0  0.81491  0.22949  0.7960099999999999  1.0000
  C   C42       1.0  0.79961  0.23787000000000003  0.7221099999999998  1.0000
  C   C43       1.0  0.81157  0.34131  0.6843299999999999  1.0000
  C   C44       1.0  0.18966999999999998  0.86357  0.7103699999999997  1.0000
  C   C45       1.0  0.3666899999999999  0.35033  0.59456  1.0000
  C   C46       1.0  0.17921  0.87656  0.7840199999999999  1.0000
  C   C47       1.0  0.29751  0.8454100000000001  0.8254899999999998  1.0000
  C   C48       1.0  0.42801999999999996  0.79703  0.79374  1.0000
  C   C49       1.0  0.4406099999999999  0.78186  0.7206699999999998  1.0000
  C   C50       1.0  0.32211  0.81481  0.67845  1.0000
  C   C51       1.0  0.9095599999999999  0.31635  0.11106  1.0000
  C   C52       1.0  0.30499999999999994  0.26098  0.10249  1.0000
  C   C53       1.0  0.30582999999999994  0.9024  0.10617  1.0000
  C   C54       1.0  0.8800099999999998  0.31182  0.90537  1.0000
  C   C55       1.0  0.29062000000000004  0.28168  0.88271  1.0000
  C   C56       1.0  0.7639299999999998  0.37598  0.61041  1.0000
  C   C57       1.0  0.27527000000000007  0.8943199999999999  0.89819  1.0000
  C   C58       1.0  0.8610699999999998  0.8943600000000002  0.18082  1.0000
  C   C59       1.0  0.81707  0.0031599999999999996  0.22986999999999996  1.0000
  C   C60       1.0  0.67297  0.09771  0.23980999999999994  1.0000
  Cr  Cr1       1.0  0.60177  0.60686  0.50586  1.0000
  Cr  Cr2       1.0  0.2913799999999999  0.60166  0.49507  1.0000
  Cr  Cr3       1.0  0.60688  0.29151  0.49912  1.0000
  Cr  Cr4       1.0  0.06244  0.06309  0.00821  1.0000
  Cr  Cr5       1.0  0.06288  0.37517  0.99892  1.0000
  Cr  Cr6       1.0  0.3746999999999999  0.06171999999999999  0.9924699999999999  1.0000
  H   H1        1.0  0.82417  0.88299  0.43046999999999996  1.0000
  H   H2        1.0  0.7574499999999997  0.71908  0.38471  1.0000
  H   H3        1.0  0.06747999999999998  0.26025  0.2257  1.0000
  H   H4        1.0  0.5617200000000001  0.46082  0.2798999999999999  1.0000
  H   H5        1.0  0.79506  0.78979  0.10778999999999998  1.0000
  H   H6        1.0  0.8202900000000002  0.14162  0.8241  1.0000
  H   H7        1.0  0.029489999999999905  0.8777400000000001  0.38213  1.0000
  H   H8        1.0  0.07656999999999989  0.9182100000000001  0.8083699999999999  1.0000
  H   H9        1.0  0.5184599999999998  0.77621  0.82554  1.0000
  H   H10       1.0  0.5442  0.74079  0.69758  1.0000
  H   H11       1.0  0.97236  0.82104  0.17281  1.0000
  H   H12       1.0  0.54538  0.94813  0.13132999999999997  1.0000
  O   O1        1.0  0.7487999999999999  0.49747  0.42799999999999994  1.0000
  O   O2        1.0  0.30006999999999995  0.47104  0.5671  1.0000
  O   O3        1.0  0.49167  0.2589  0.57491  1.0000
  O   O4        1.0  0.7187799999999999  0.30418  0.57785  1.0000
  O   O5        1.0  0.5000099999999998  0.50001  0.5000199999999999  1.0000
  O   O6        1.0  0.18668999999999994  0.92365  0.08697  1.0000
  O   O7        1.0  0.95725  0.19425  0.08462999999999998  1.0000
  O   O8        1.0  0.93497  0.40749  0.08533  1.0000
  O   O9        1.0  0.20378000000000004  0.36519  0.06708999999999997  1.0000
  O   O10       1.0  0.4175999999999999  0.17489  0.06784  1.0000
  O   O11       1.0  0.37531999999999993  0.94626  0.07086  1.0000
  O   O12       1.0  0.47642  0.72406  0.42947  1.0000
  O   O13       1.0  0.16059999999999997  0.91963  0.92666  1.0000
  O   O14       1.0  0.9330599999999998  0.19052  0.9360199999999999  1.0000
  O   O15       1.0  0.90888  0.40346  0.92502  1.0000
  O   O16       1.0  0.17959999999999998  0.36145  0.91849  1.0000
  O   O17       1.0  0.39151  0.17086  0.90753  1.0000
  O   O18       1.0  0.35112999999999994  0.94253  0.92226  1.0000
  O   O19       1.0  0.16667  0.16667  0.9998699999999998  1.0000
  O   O20       1.0  0.26458  0.74434  0.4167499999999999  1.0000
  O   O21       1.0  0.30938  0.47247000000000006  0.4182  1.0000
  O   O22       1.0  0.50171  0.26043  0.41429999999999995  1.0000
  O   O23       1.0  0.72809  0.3056  0.42896  1.0000
  O   O24       1.0  0.7387599999999998  0.49593  0.58861  1.0000
  O   O25       1.0  0.46710999999999986  0.72264  0.5783599999999998  1.0000
  O   O26       1.0  0.25453  0.7428  0.57736  1.0000
  O   O27       1.0  0.47162  0.0752  0.34292  1.0000
  H   H13       1.0  0.5154400000000001  0.98728  0.31488  1.0000
  O   O28       1.0  0.88088  0.56336  0.27427999999999997  1.0000
  H   H14       1.0  0.93071  0.5458  0.22854  1.0000
  O   O29       1.0  0.019259999999999982  0.27977  0.36002  1.0000
  H   H15       1.0  0.9820699999999999  0.27646  0.40729  1.0000
  F   F1        1.0  0.6213199999999998  0.42353  0.14468  1.0000
  F   F2        1.0  0.6060599999999999  0.6782  0.3122399999999999  1.0000
  O   O30       1.0  0.57837  0.71422  0.16385999999999998  1.0000
  H   H16       1.0  0.6663900000000001  0.66356  0.19189999999999993  1.0000
  F   F3        1.0  0.08890999999999999  0.03671  0.19983  1.0000
  F   F4        1.0  0.12151  0.01063  0.3433399999999999  1.0000
  O   O31       1.0  0.4538799999999999  0.07999  0.64639  1.0000
  H   H17       1.0  0.5004000000000001  0.99298  0.6751099999999999  1.0000
  F   F5        1.0  0.4409799999999999  0.051  0.79223  1.0000
  F   F6        1.0  0.13150999999999993  0.54823  0.81638  1.0000
  O   O32       1.0  0.13242999999999996  0.58066  0.6749499999999999  1.0000
  H   H18       1.0  0.08971000000000004  0.57036  0.63057  1.0000
  O   O33       1.0  0.8741599999999999  0.52083  0.6859899999999998  1.0000
  H   H19       1.0  0.9201899999999997  0.5535  0.7198599999999999  1.0000
  O   O34       1.0  0.7857800000000003  0.57097  0.83044  1.0000
  H   H20       1.0  0.7535799999999999  0.64935  0.79616  1.0000
  F   F7        1.0  0.77292  0.14582  0.6881199999999998  1.0000
  O   O35       1.0  0.07262000000000003  0.8971399999999999  0.6690899999999997  1.0000
  H   H21       1.0  0.9939299999999999  0.91268  0.70049  1.0000
  O   O36       1.0  0.9167699999999999  0.0112  0.26963  1.0000
  H   H22       1.0  0.87049  0.08565  0.30594  1.0000
  F   F8        1.0  0.63221  0.1991  0.28945  1.0000
  F   F9        1.0  0.22202999999999998  0.67619  0.2951299999999999  1.0000
  F   F10       1.0  0.12471999999999998  0.52327  0.1691  1.0000
