data_image0
_chemical_formula_structural       O8C4O8C4O8C4O8C4O8C4O8C4Cr12O4H4C20H4C4H4C4H4C8H4C12H4C16H4C8H4C4H4C4NO2NO2NO2NO2CHOCHOCHOCHOCHOCHOCHOCHONO2NO2NO2NO2
_chemical_formula_sum              "O76 C112 Cr12 H44 N8"
_cell_length_a       18.73845
_cell_length_b       11.10436
_cell_length_c       18.61373
_cell_angle_alpha    90.00011
_cell_angle_beta     90.19942999999999
_cell_angle_gamma    89.99926999999998

_symmetry_space_group_name_H-M    'P 1'
_symmetry_Int_Tables_number       1

loop_
  _symmetry_equiv_pos_as_xyz
  'x,y,z'

loop_
  _atom_site_type_symbol
  _atom_site_label
  _atom_site_symmetry_multiplicity
  _atom_site_fract_x
  _atom_site_fract_y
  _atom_site_fract_z
  _atom_site_occupancy
  O   O1        1.0  0.78754  0.042690000000000006  0.17047  1.0000
  O   O2        1.0  0.21246  0.042690000000000006  0.82953  1.0000
  O   O3        1.0  0.28754  0.5426900000000001  0.17047  1.0000
  O   O4        1.0  0.71246  0.5426900000000001  0.82953  1.0000
  O   O5        1.0  0.76566  0.29216  0.17505  1.0000
  O   O6        1.0  0.23434  0.29216  0.82495  1.0000
  O   O7        1.0  0.26566  0.7921600000000001  0.17505  1.0000
  O   O8        1.0  0.73434  0.7921600000000001  0.82495  1.0000
  C   C1        1.0  0.73229  0.38265  0.14818  1.0000
  C   C2        1.0  0.26771  0.38264000000000004  0.85182  1.0000
  C   C3        1.0  0.23229  0.88264  0.14818  1.0000
  C   C4        1.0  0.76771  0.88265  0.85182  1.0000
  O   O9        1.0  0.67019  0.40898  0.16855  1.0000
  O   O10       1.0  0.32981  0.40898  0.83145  1.0000
  O   O11       1.0  0.17019  0.9089800000000001  0.16855  1.0000
  O   O12       1.0  0.82981  0.9089800000000001  0.83145  1.0000
  O   O13       1.0  0.55658  0.25145000000000006  0.17516  1.0000
  O   O14       1.0  0.4434199999999999  0.25145000000000006  0.82484  1.0000
  O   O15       1.0  0.05658  0.7514500000000001  0.17516  1.0000
  O   O16       1.0  0.9434199999999999  0.7514500000000001  0.82484  1.0000
  C   C5        1.0  0.53043  0.15498000000000003  0.14719  1.0000
  C   C6        1.0  0.46957000000000004  0.15498000000000003  0.85281  1.0000
  C   C7        1.0  0.03042  0.65498  0.14719  1.0000
  C   C8        1.0  0.9695700000000002  0.65498  0.85281  1.0000
  O   O17       1.0  0.54592  0.049510000000000005  0.17032  1.0000
  O   O18       1.0  0.45408  0.049510000000000005  0.82968  1.0000
  O   O19       1.0  0.04592  0.54951  0.17032  1.0000
  O   O20       1.0  0.9540799999999999  0.54951  0.82968  1.0000
  O   O21       1.0  0.68139  0.95784  0.17671  1.0000
  O   O22       1.0  0.31861  0.95784  0.82329  1.0000
  O   O23       1.0  0.18139  0.4578400000000001  0.17671  1.0000
  O   O24       1.0  0.81861  0.4578400000000001  0.82329  1.0000
  C   C9        1.0  0.72641  0.024800000000000003  0.14012  1.0000
  C   C10       1.0  0.27359  0.024790000000000003  0.85989  1.0000
  C   C11       1.0  0.22641  0.52479  0.14011  1.0000
  C   C12       1.0  0.77359  0.5248  0.8598799999999999  1.0000
  O   O25       1.0  0.7875  0.04428  0.33099  1.0000
  O   O26       1.0  0.2125  0.04428  0.66901  1.0000
  O   O27       1.0  0.2875  0.5442800000000001  0.33099  1.0000
  O   O28       1.0  0.7125  0.5442800000000001  0.66901  1.0000
  O   O29       1.0  0.76561  0.29363  0.32386  1.0000
  O   O30       1.0  0.23438999999999996  0.29363  0.67614  1.0000
  O   O31       1.0  0.26561  0.7936300000000001  0.32386  1.0000
  O   O32       1.0  0.73439  0.7936300000000001  0.67614  1.0000
  C   C13       1.0  0.73237  0.38486  0.34955  1.0000
  C   C14       1.0  0.26763  0.38486  0.65045  1.0000
  C   C15       1.0  0.23237000000000002  0.88486  0.34955  1.0000
  C   C16       1.0  0.76763  0.88486  0.65045  1.0000
  O   O33       1.0  0.67014  0.41057  0.32908  1.0000
  O   O34       1.0  0.32986  0.41057  0.67092  1.0000
  O   O35       1.0  0.17014  0.9105700000000001  0.32908  1.0000
  O   O36       1.0  0.82986  0.9105700000000001  0.67092  1.0000
  O   O37       1.0  0.55654  0.25292000000000003  0.32397  1.0000
  O   O38       1.0  0.44346  0.25292000000000003  0.67603  1.0000
  O   O39       1.0  0.05654  0.75292  0.32397  1.0000
  O   O40       1.0  0.94346  0.75292  0.67603  1.0000
  C   C17       1.0  0.53115  0.15702  0.35295  1.0000
  C   C18       1.0  0.46885000000000004  0.15702  0.64705  1.0000
  C   C19       1.0  0.03115  0.6570200000000002  0.35295  1.0000
  C   C20       1.0  0.96885  0.6570200000000002  0.64705  1.0000
  O   O41       1.0  0.54587  0.0511  0.33084  1.0000
  O   O42       1.0  0.4541299999999999  0.0511  0.66916  1.0000
  O   O43       1.0  0.04587  0.5511  0.33084  1.0000
  O   O44       1.0  0.9541299999999999  0.5511  0.66916  1.0000
  O   O45       1.0  0.68134  0.9593000000000003  0.32551  1.0000
  O   O46       1.0  0.31866  0.9593000000000003  0.67449  1.0000
  O   O47       1.0  0.18134  0.4593  0.32551  1.0000
  O   O48       1.0  0.81866  0.4593  0.67449  1.0000
  C   C21       1.0  0.7274  0.02551  0.36191  1.0000
  C   C22       1.0  0.2726  0.02551  0.63809  1.0000
  C   C23       1.0  0.2274  0.52551  0.36191  1.0000
  C   C24       1.0  0.7726  0.5255200000000001  0.63809  1.0000
  Cr  Cr1       1.0  0.772  0.16964  0.25011  1.0000
  Cr  Cr2       1.0  0.22799999999999998  0.16964  0.74989  1.0000
  Cr  Cr3       1.0  0.272  0.6696400000000001  0.25011  1.0000
  Cr  Cr4       1.0  0.728  0.6696400000000001  0.74989  1.0000
  Cr  Cr5       1.0  0.61496  0.32335  0.24926000000000004  1.0000
  Cr  Cr6       1.0  0.38504  0.32335  0.75074  1.0000
  Cr  Cr7       1.0  0.11496  0.8233500000000001  0.24926000000000004  1.0000
  Cr  Cr8       1.0  0.88504  0.8233500000000001  0.75074  1.0000
  Cr  Cr9       1.0  0.61667  0.01062  0.25084  1.0000
  Cr  Cr10      1.0  0.38333  0.01062  0.74916  1.0000
  Cr  Cr11      1.0  0.11667000000000001  0.51062  0.25084  1.0000
  Cr  Cr12      1.0  0.8833300000000001  0.51062  0.74916  1.0000
  O   O49       1.0  0.66788  0.16787  0.25007  1.0000
  O   O50       1.0  0.33212  0.16787  0.74993  1.0000
  O   O51       1.0  0.16788  0.66787  0.25007  1.0000
  O   O52       1.0  0.83212  0.66787  0.74993  1.0000
  H   H1        1.0  0.49893  0.9673000000000003  0.06335  1.0000
  H   H2        1.0  0.50104  0.9672900000000001  0.93665  1.0000
  H   H3        1.0  0.99892  0.4673000000000001  0.06336  1.0000
  H   H4        1.0  0.0010300000000000005  0.46729000000000004  0.9366600000000002  1.0000
  C   C25       1.0  0.5015  0.16215  0.92487  1.0000
  C   C26       1.0  0.49850000000000005  0.16215  0.07513  1.0000
  C   C27       1.0  0.00149  0.66215  0.92487  1.0000
  C   C28       1.0  0.99849  0.66216  0.07514  1.0000
  C   C29       1.0  0.50654  0.27329  0.96236  1.0000
  C   C30       1.0  0.49349000000000004  0.2733  0.03763  1.0000
  C   C31       1.0  0.00652  0.7732900000000001  0.96236  1.0000
  C   C32       1.0  0.99347  0.7733  0.03764  1.0000
  C   C33       1.0  0.49803  0.05402  0.03668  1.0000
  C   C34       1.0  0.50196  0.05401  0.9633300000000001  1.0000
  C   C35       1.0  0.9980199999999999  0.55402  0.03668  1.0000
  C   C36       1.0  0.0019500000000000003  0.55401  0.9633300000000001  1.0000
  C   C37       1.0  0.52188  0.38419000000000003  0.92749  1.0000
  C   C38       1.0  0.47816  0.3842200000000001  0.07249  1.0000
  C   C39       1.0  0.02186  0.8842100000000002  0.92749  1.0000
  C   C40       1.0  0.97814  0.88423  0.0725  1.0000
  C   C41       1.0  0.00994  0.992  0.9641199999999999  1.0000
  C   C42       1.0  0.99005  0.9920100000000001  0.03586  1.0000
  C   C43       1.0  0.50997  0.4919900000000001  0.9641099999999999  1.0000
  C   C44       1.0  0.49008999999999997  0.492  0.03586  1.0000
  H   H5        1.0  0.01657  0.0773  0.93699  1.0000
  H   H6        1.0  0.9834100000000001  0.07732000000000001  0.06297  1.0000
  H   H7        1.0  0.51661  0.57729  0.93699  1.0000
  H   H8        1.0  0.48346999999999996  0.57731  0.06297  1.0000
  C   C45       1.0  0.67388  0.9498000000000001  0.02501  1.0000
  C   C46       1.0  0.32612  0.94975  0.9749899999999999  1.0000
  C   C47       1.0  0.17387  0.44977000000000006  0.025  1.0000
  C   C48       1.0  0.82612  0.44975000000000004  0.9749899999999999  1.0000
  H   H9        1.0  0.62739  0.91893  0.05392  1.0000
  H   H10       1.0  0.3726  0.9188600000000001  0.9460800000000001  1.0000
  H   H11       1.0  0.12739  0.41890000000000005  0.05391  1.0000
  H   H12       1.0  0.8726  0.41886  0.9460800000000001  1.0000
  C   C49       1.0  0.68002  0.9211700000000002  0.95205  1.0000
  C   C50       1.0  0.31997  0.9211300000000001  0.04795  1.0000
  C   C51       1.0  0.18002  0.42115  0.95205  1.0000
  C   C52       1.0  0.81997  0.42112  0.04795  1.0000
  H   H13       1.0  0.63742  0.8744600000000002  0.92466  1.0000
  H   H14       1.0  0.36257  0.8744100000000001  0.07534  1.0000
  H   H15       1.0  0.13743  0.3744400000000001  0.92466  1.0000
  H   H16       1.0  0.86256  0.37437  0.07534  1.0000
  C   C53       1.0  0.74319  0.9472100000000001  0.9162099999999999  1.0000
  C   C54       1.0  0.2568  0.94719  0.08378  1.0000
  C   C55       1.0  0.2432  0.44719  0.91622  1.0000
  C   C56       1.0  0.7568  0.44720000000000004  0.08379  1.0000
  C   C57       1.0  0.79069  0.02868  0.94729  1.0000
  C   C58       1.0  0.2093  0.02864  0.0527  1.0000
  C   C59       1.0  0.2907  0.52864  0.9472999999999999  1.0000
  C   C60       1.0  0.70932  0.52869  0.05271  1.0000
  H   H17       1.0  0.8358  0.060500000000000005  0.9164  1.0000
  H   H18       1.0  0.16419  0.060480000000000006  0.08358  1.0000
  H   H19       1.0  0.33581  0.56047  0.9164199999999999  1.0000
  H   H20       1.0  0.66422  0.56056  0.0836  1.0000
  C   C61       1.0  0.78553  0.061750000000000006  0.01901  1.0000
  C   C62       1.0  0.21447  0.06171000000000001  0.98099  1.0000
  C   C63       1.0  0.28553  0.5617100000000002  0.01901  1.0000
  C   C64       1.0  0.71449  0.56174  0.98099  1.0000
  C   C65       1.0  0.72912  0.01177  0.06096  1.0000
  C   C66       1.0  0.27088  0.01174  0.9390400000000001  1.0000
  C   C67       1.0  0.22911999999999996  0.5117400000000001  0.06096  1.0000
  C   C68       1.0  0.77089  0.51175  0.9390400000000001  1.0000
  C   C69       1.0  0.4991399999999999  0.05659000000000001  0.46342  1.0000
  C   C70       1.0  0.50086  0.05659000000000001  0.53658  1.0000
  C   C71       1.0  0.9991500000000001  0.5565900000000001  0.46343000000000006  1.0000
  C   C72       1.0  0.0008599999999999997  0.5565900000000001  0.53658  1.0000
  H   H21       1.0  0.4998699999999999  0.9697200000000001  0.43691  1.0000
  H   H22       1.0  0.50013  0.9697200000000001  0.56309  1.0000
  H   H23       1.0  0.99988  0.46972  0.43691  1.0000
  H   H24       1.0  0.00013999999999999996  0.46972  0.56309  1.0000
  C   C73       1.0  0.49745  0.16490000000000002  0.57462  1.0000
  C   C74       1.0  0.50255  0.16490000000000002  0.42538  1.0000
  C   C75       1.0  0.99745  0.6649  0.57462  1.0000
  C   C76       1.0  0.00255  0.6649  0.42539  1.0000
  C   C77       1.0  0.50048  0.27605  0.5378  1.0000
  C   C78       1.0  0.49952  0.27605  0.4622  1.0000
  C   C79       1.0  0.00047999999999999996  0.77606  0.5378  1.0000
  C   C80       1.0  0.99952  0.77606  0.4622  1.0000
  C   C81       1.0  0.78989  0.05807  0.48351999999999995  1.0000
  C   C82       1.0  0.21011  0.05806  0.51648  1.0000
  C   C83       1.0  0.28989  0.5580600000000001  0.48351999999999995  1.0000
  C   C84       1.0  0.71011  0.55807  0.51648  1.0000
  C   C85       1.0  0.79071  0.03173000000000001  0.55628  1.0000
  C   C86       1.0  0.20929  0.03172  0.44371999999999995  1.0000
  C   C87       1.0  0.29071  0.53173  0.55629  1.0000
  C   C88       1.0  0.70929  0.53173  0.44371999999999995  1.0000
  H   H25       1.0  0.83436  0.06596  0.58851  1.0000
  H   H26       1.0  0.16563  0.06595  0.41149  1.0000
  H   H27       1.0  0.33436  0.56596  0.58851  1.0000
  H   H28       1.0  0.66563  0.56595  0.41149  1.0000
  C   C89       1.0  0.74327  0.9496800000000001  0.58633  1.0000
  C   C90       1.0  0.25672  0.9496800000000001  0.41367  1.0000
  C   C91       1.0  0.24327  0.44968000000000014  0.58633  1.0000
  C   C92       1.0  0.75672  0.44968000000000014  0.41367  1.0000
  C   C93       1.0  0.68171  0.9200100000000001  0.54884  1.0000
  C   C94       1.0  0.31829  0.9200100000000001  0.45115999999999995  1.0000
  C   C95       1.0  0.18171  0.42000000000000004  0.54884  1.0000
  C   C96       1.0  0.81829  0.42001  0.45115999999999995  1.0000
  H   H29       1.0  0.64004  0.8694400000000002  0.57512  1.0000
  H   H30       1.0  0.35996  0.8694400000000002  0.42488  1.0000
  H   H31       1.0  0.14004  0.36943  0.57512  1.0000
  H   H32       1.0  0.85996  0.36945  0.42488  1.0000
  C   C97       1.0  0.6762  0.95026  0.47611  1.0000
  C   C98       1.0  0.3238  0.95026  0.52389  1.0000
  C   C99       1.0  0.1762  0.45024  0.47611  1.0000
  C   C100      1.0  0.8238  0.45026  0.52389  1.0000
  H   H33       1.0  0.62944  0.9212100000000002  0.44665  1.0000
  H   H34       1.0  0.37056  0.9212200000000003  0.55335  1.0000
  H   H35       1.0  0.12945  0.42120000000000013  0.44665  1.0000
  H   H36       1.0  0.8705600000000001  0.42122  0.55335  1.0000
  C   C101      1.0  0.73249  0.010170000000000002  0.4407  1.0000
  C   C102      1.0  0.26751  0.010170000000000002  0.5593  1.0000
  C   C103      1.0  0.23249  0.51016  0.4407  1.0000
  C   C104      1.0  0.76752  0.5101700000000001  0.5593  1.0000
  N   N1        1.0  0.84928  0.12974  0.45792  1.0000
  O   O53       1.0  0.8807  0.20163  0.50328  1.0000
  O   O54       1.0  0.88793  0.09391  0.40442  1.0000
  N   N2        1.0  0.15072  0.12974  0.54208  1.0000
  O   O55       1.0  0.11928999999999998  0.20162  0.49672000000000005  1.0000
  O   O56       1.0  0.11206999999999999  0.09392  0.59558  1.0000
  N   N3        1.0  0.34928  0.62974  0.45792  1.0000
  O   O57       1.0  0.3807  0.70162  0.50328  1.0000
  O   O58       1.0  0.38793  0.5939100000000002  0.40443  1.0000
  N   N4        1.0  0.65072  0.62974  0.54208  1.0000
  O   O59       1.0  0.6193  0.70162  0.49672000000000005  1.0000
  O   O60       1.0  0.61207  0.5939100000000002  0.59558  1.0000
  C   C105      1.0  0.55844  0.38933000000000006  0.85678  1.0000
  H   H37       1.0  0.58455  0.30985000000000007  0.83542  1.0000
  O   O61       1.0  0.55966  0.48211000000000004  0.82156  1.0000
  C   C106      1.0  0.44159  0.38939000000000007  0.1432  1.0000
  H   H38       1.0  0.41556  0.30989  0.16462  1.0000
  O   O62       1.0  0.44024  0.48225000000000007  0.17834  1.0000
  C   C107      1.0  0.058429999999999996  0.8893500000000002  0.85679  1.0000
  H   H39       1.0  0.08446  0.80984  0.83537  1.0000
  O   O63       1.0  0.059789999999999996  0.9821900000000001  0.82164  1.0000
  C   C108      1.0  0.9415800000000001  0.8893800000000001  0.1432  1.0000
  H   H40       1.0  0.9154  0.80994  0.16454  1.0000
  O   O64       1.0  0.94044  0.9821600000000003  0.17846  1.0000
  C   C109      1.0  0.84206  0.14477  0.04583  1.0000
  H   H41       1.0  0.84738  0.17090000000000002  0.10109  1.0000
  O   O65       1.0  0.8851600000000001  0.18883000000000003  0.00426  1.0000
  C   C110      1.0  0.15801  0.14481  0.95416  1.0000
  H   H42       1.0  0.15289  0.17121  0.89897  1.0000
  O   O66       1.0  0.11479  0.18869000000000002  0.9956699999999999  1.0000
  C   C111      1.0  0.342  0.6448  0.04584  1.0000
  H   H43       1.0  0.34712  0.6712  0.10104  1.0000
  O   O67       1.0  0.38522  0.68867  0.00434  1.0000
  C   C112      1.0  0.65802  0.64484  0.95417  1.0000
  H   H44       1.0  0.65289  0.6712100000000001  0.8989600000000001  1.0000
  O   O68       1.0  0.6148  0.6887300000000001  0.9956699999999999  1.0000
  N   N5        1.0  0.5051  0.38697  0.57715  1.0000
  O   O69       1.0  0.54725  0.3943  0.63271  1.0000
  O   O70       1.0  0.46232  0.47595  0.56263  1.0000
  N   N6        1.0  0.49489999999999995  0.38697  0.42285  1.0000
  O   O71       1.0  0.45274000000000003  0.3943  0.36729  1.0000
  O   O72       1.0  0.53768  0.47595  0.43737  1.0000
  N   N7        1.0  0.0051  0.8869700000000003  0.57715  1.0000
  O   O73       1.0  0.04726  0.8943  0.63271  1.0000
  O   O74       1.0  0.9623099999999999  0.9759400000000003  0.56263  1.0000
  N   N8        1.0  0.9948899999999999  0.8869700000000003  0.42285  1.0000
  O   O75       1.0  0.9527400000000001  0.8943  0.36729  1.0000
  O   O76       1.0  0.03767  0.97596  0.43737  1.0000
