data_image0
_chemical_formula_structural       O4C2O4C2Cu2H2C2H2C2H2C4H2C2H2C12H2C6N2OHOHOHOHOHOHNO2NO2
_chemical_formula_sum              "O18 C32 Cu2 H18 N4"
_cell_length_a       10.84546
_cell_length_b       10.77655
_cell_length_c       9.612069999999997
_cell_angle_alpha    89.75377000000002
_cell_angle_beta     89.04272
_cell_angle_gamma    92.51997999999999

_symmetry_space_group_name_H-M    'P 1'
_symmetry_Int_Tables_number       1

loop_
  _symmetry_equiv_pos_as_xyz
  'x,y,z'

loop_
  _atom_site_type_symbol
  _atom_site_label
  _atom_site_symmetry_multiplicity
  _atom_site_fract_x
  _atom_site_fract_y
  _atom_site_fract_z
  _atom_site_occupancy
  O   O1        1.0  0.49999  0.31966  0.61874  1.0000
  O   O2        1.0  0.50001  0.6803399999999998  0.38126  1.0000
  O   O3        1.0  0.49999  0.31963  0.38117  1.0000
  O   O4        1.0  0.50001  0.68037  0.61883  1.0000
  C   C1        1.0  0.5032  0.26277  0.50007  1.0000
  C   C2        1.0  0.4968  0.73723  0.49993  1.0000
  O   O5        1.0  0.31965  0.50002  0.61878  1.0000
  O   O6        1.0  0.68035  0.49998  0.38122  1.0000
  O   O7        1.0  0.31964  0.5  0.38121  1.0000
  O   O8        1.0  0.68036  0.5  0.61879  1.0000
  C   C3        1.0  0.26265  0.50125  0.50063  1.0000
  C   C4        1.0  0.73735  0.49875  0.49937000000000004  1.0000
  Cu  Cu1       1.0  0.5  0.50002  0.64066  1.0000
  Cu  Cu2       1.0  0.5  0.49998  0.35934  1.0000
  H   H1        1.0  0.33668  0.8370299999999999  0.01822  1.0000
  H   H2        1.0  0.66324  0.16256  0.98135  1.0000
  C   C5        1.0  0.27185  0.82904  0.23129  1.0000
  C   C6        1.0  0.7283  0.17068  0.76838  1.0000
  H   H3        1.0  0.31937999999999994  0.91545  0.25955000000000006  1.0000
  H   H4        1.0  0.68093  0.0842  0.74003  1.0000
  C   C7        1.0  0.2016  0.76123  0.33123  1.0000
  C   C8        1.0  0.79857  0.23859  0.66854  1.0000
  H   H5        1.0  0.1955  0.79562  0.43664000000000003  1.0000
  H   H6        1.0  0.80484  0.20423  0.56314  1.0000
  C   C9        1.0  0.13984  0.64913  0.2949  1.0000
  C   C10       1.0  0.86013  0.35076999999999997  0.70498  1.0000
  C   C11       1.0  0.14796000000000004  0.60649  0.15724  1.0000
  C   C12       1.0  0.8517900000000002  0.39337  0.84264  1.0000
  H   H7        1.0  0.10041  0.5204  0.12755  1.0000
  H   H8        1.0  0.8991900000000002  0.47952  0.87241  1.0000
  C   C13       1.0  0.21926  0.67393  0.058  1.0000
  C   C14       1.0  0.78047  0.32582  0.94177  1.0000
  H   H9        1.0  0.22663999999999998  0.63994  0.9524800000000001  1.0000
  H   H10       1.0  0.7729299999999999  0.35978  0.04729  1.0000
  C   C15       1.0  0.28138  0.785  0.09508  1.0000
  C   C16       1.0  0.71855  0.21468  0.9045800000000002  1.0000
  C   C17       1.0  0.93849  0.57276  0.40195  1.0000
  C   C18       1.0  0.06151  0.42728  0.59807  1.0000
  C   C19       1.0  0.87154  0.49718  0.49887000000000004  1.0000
  C   C20       1.0  0.12846  0.50283  0.50114  1.0000
  C   C21       1.0  0.9319  0.42550999999999994  0.5986500000000001  1.0000
  C   C22       1.0  0.0681  0.57449  0.40134  1.0000
  C   C23       1.0  0.57766  0.06482  0.40219  1.0000
  C   C24       1.0  0.42234999999999995  0.93518  0.5978100000000001  1.0000
  C   C25       1.0  0.56864  0.93627  0.40156  1.0000
  C   C26       1.0  0.43137  0.06373  0.59844  1.0000
  H   H11       1.0  0.62451  0.8869199999999999  0.32742000000000004  1.0000
  H   H12       1.0  0.3755  0.11309  0.67258  1.0000
  C   C27       1.0  0.49373  0.87109  0.49938  1.0000
  C   C28       1.0  0.50628  0.12891  0.50062  1.0000
  C   C29       1.0  0.43915  0.40708999999999995  0.07606  1.0000
  C   C30       1.0  0.56083  0.59292  0.92394  1.0000
  C   C31       1.0  0.43829  0.4073399999999999  0.92877  1.0000
  C   C32       1.0  0.56171  0.59266  0.07124  1.0000
  N   N1        1.0  0.50003  0.50003  0.85207  1.0000
  N   N2        1.0  0.49996999999999997  0.49997  0.14793  1.0000
  O   O9        1.0  0.37234999999999996  0.31157  0.8668100000000001  1.0000
  H   H13       1.0  0.3412  0.34284  0.77892  1.0000
  O   O10       1.0  0.62765  0.68843  0.1332  1.0000
  H   H14       1.0  0.6588099999999999  0.65716  0.22107000000000002  1.0000
  O   O11       1.0  0.87362  0.64665  0.31321  1.0000
  H   H15       1.0  0.9288900000000001  0.71003  0.26693  1.0000
  O   O12       1.0  0.12639  0.3534  0.68684  1.0000
  H   H16       1.0  0.0711  0.29017  0.73333  1.0000
  O   O13       1.0  0.65904  0.12273  0.30799  1.0000
  H   H17       1.0  0.68394  0.20623  0.3427  1.0000
  O   O14       1.0  0.34097  0.87726  0.6920000000000001  1.0000
  H   H18       1.0  0.31606  0.79377  0.65729  1.0000
  N   N3        1.0  0.37232  0.30873  0.14846  1.0000
  O   O15       1.0  0.40968000000000004  0.19603999999999996  0.13747  1.0000
  O   O16       1.0  0.25952  0.32489  0.19008000000000003  1.0000
  N   N4        1.0  0.6276  0.69133  0.8515500000000001  1.0000
  O   O17       1.0  0.59027  0.80402  0.8627100000000001  1.0000
  O   O18       1.0  0.7403300000000002  0.67518  0.80969  1.0000
