data_image0
_chemical_formula_structural       O3CO2CO2VOCOCVOCH3C13H5C2HC2H2C2H2C2H2CH3C13H5O3CO2CO2VOCOCVOCN
_chemical_formula_sum              "O20 C45 V4 H23 N1"
_cell_length_a       6.94322
_cell_length_b       13.64197
_cell_length_c       20.42139
_cell_angle_alpha    102.09872
_cell_angle_beta     89.6395
_cell_angle_gamma    90.66385000000001

_space_group_name_H-M_alt    "P 1"
_space_group_IT_number       1

loop_
  _space_group_symop_operation_xyz
  'x, y, z'

loop_
  _atom_site_type_symbol
  _atom_site_label
  _atom_site_symmetry_multiplicity
  _atom_site_fract_x
  _atom_site_fract_y
  _atom_site_fract_z
  _atom_site_occupancy
  O   O1        1.0  0.50686  0.5993899999999998  0.4492400000000001  1.0000
  O   O2        1.0  0.18022  0.5946  0.58678  1.0000
  O   O3        1.0  0.0044999999999999945  0.4006099999999999  0.55076  1.0000
  C   C1        1.0  0.3487499999999999  0.6160199999999998  0.6134800000000001  1.0000
  O   O4        1.0  0.17749  0.61129  0.45197  1.0000
  O   O5        1.0  0.0017499999999999968  0.41741999999999996  0.4149900000000001  1.0000
  C   C2        1.0  0.34726  0.6379  0.4352000000000001  1.0000
  O   O6        1.0  0.50961  0.5825799999999998  0.58501  1.0000
  O   O7        1.0  0.33742  0.43637  0.48802000000000006  1.0000
  V   V1        1.0  0.06468  0.5117999999999998  0.50222  1.0000
  O   O8        1.0  0.67171  0.40539999999999987  0.41322  1.0000
  C   C3        1.0  0.84094  0.3851  0.38606000000000007  1.0000
  O   O9        1.0  0.67444  0.38870999999999994  0.5480300000000002  1.0000
  C   C4        1.0  0.84226  0.36213  0.56484  1.0000
  V   V2        1.0  0.5640099999999998  0.4882  0.49778000000000006  1.0000
  O   O10       1.0  0.84114  0.56363  0.51198  1.0000
  C   C5        1.0  0.83515  0.11115  0.61266  1.0000
  H   H1        1.0  0.8270399999999999  0.1614  0.51997  1.0000
  H   H2        1.0  0.83479  0.9858299999999998  0.69577  1.0000
  H   H3        1.0  0.8267  0.03286000000000002  0.5876900000000002  1.0000
  C   C6        1.0  0.84743  0.2852  0.60492  1.0000
  C   C7        1.0  0.87449  0.3152999999999999  0.92849  1.0000
  C   C8        1.0  0.8751899999999999  0.3914099999999999  0.89277  1.0000
  C   C9        1.0  0.86809  0.36871  0.82304  1.0000
  C   C10       1.0  0.85987  0.26799  0.7869  1.0000
  C   C11       1.0  0.85757  0.19024  0.824  1.0000
  C   C12       1.0  0.85394  0.24182999999999996  0.71536  1.0000
  C   C13       1.0  0.84387  0.13892999999999994  0.68281  1.0000
  C   C14       1.0  0.84194  0.06435999999999999  0.72031  1.0000
  C   C15       1.0  0.84909  0.08937999999999999  0.78971  1.0000
  C   C16       1.0  0.8570699999999999  0.31408  0.67472  1.0000
  C   C17       1.0  0.83576  0.18394999999999997  0.574  1.0000
  C   C18       1.0  0.86521  0.21504999999999994  0.8949  1.0000
  H   H4        1.0  0.865  0.39343000000000006  0.6954400000000001  1.0000
  H   H5        1.0  0.8815  0.3345999999999999  0.9826800000000001  1.0000
  H   H6        1.0  0.86929  0.4319499999999999  0.79915  1.0000
  H   H7        1.0  0.88197  0.46887999999999996  0.9193400000000002  1.0000
  H   H8        1.0  0.84754  0.028559999999999995  0.81631  1.0000
  C   C19       1.0  0.007869999999999999  0.29984999999999995  0.27907  1.0000
  C   C20       1.0  0.84922  0.31548  0.3194100000000001  1.0000
  H   H9        1.0  0.7171399999999999  0.27438  0.30387000000000003  1.0000
  C   C21       1.0  0.012929999999999999  0.22621999999999995  0.21376  1.0000
  C   C22       1.0  0.85691  0.18566  0.17918  1.0000
  H   H10       1.0  0.15449  0.20730999999999994  0.19196  1.0000
  H   H11       1.0  0.7131  0.20510999999999993  0.19805  1.0000
  C   C23       1.0  0.20493  0.7906199999999999  0.7827100000000002  1.0000
  C   C24       1.0  0.3643099999999999  0.81587  0.81986  1.0000
  H   H12       1.0  0.06712999999999997  0.82051  0.80249  1.0000
  H   H13       1.0  0.50304  0.7864099999999998  0.8014200000000001  1.0000
  C   C25       1.0  0.20269  0.72226  0.7151900000000001  1.0000
  C   C26       1.0  0.36057  0.6841599999999999  0.68021  1.0000
  H   H14       1.0  0.06133  0.7033999999999998  0.69339  1.0000
  H   H15       1.0  0.50373  0.7025500000000001  0.7000500000000002  1.0000
  C   C27       1.0  0.4170399999999999  0.8863599999999999  0.3866500000000001  1.0000
  H   H16       1.0  0.41474  0.83601  0.47938  1.0000
  H   H17       1.0  0.44795  0.010500000000000013  0.30315  1.0000
  H   H18       1.0  0.44638  0.96344  0.41129  1.0000
  C   C28       1.0  0.36006  0.71462  0.39504  1.0000
  C   C29       1.0  0.31732  0.6862099999999999  0.07193  1.0000
  C   C30       1.0  0.29814  0.61078  0.10788000000000003  1.0000
  C   C31       1.0  0.31271  0.6328899999999997  0.17746  1.0000
  C   C32       1.0  0.34752  0.7323  0.21319000000000005  1.0000
  C   C33       1.0  0.36886  0.8092099999999998  0.17584  1.0000
  C   C34       1.0  0.36189  0.7579599999999999  0.28458  1.0000
  C   C35       1.0  0.39939  0.8593399999999998  0.3167  1.0000
  C   C36       1.0  0.4197499999999999  0.9331  0.27894  1.0000
  C   C37       1.0  0.4043299999999999  0.9086899999999998  0.20971  1.0000
  C   C38       1.0  0.34104  0.6866099999999998  0.32547  1.0000
  C   C39       1.0  0.39865  0.8142399999999999  0.42553  1.0000
  C   C40       1.0  0.35296  0.7850499999999998  0.10511  1.0000
  H   H19       1.0  0.31187999999999994  0.6085199999999997  0.3050800000000001  1.0000
  H   H20       1.0  0.30391  0.6674999999999998  0.017880000000000004  1.0000
  H   H21       1.0  0.2960099999999999  0.57025  0.20154  1.0000
  H   H22       1.0  0.27095  0.53436  0.08162000000000001  1.0000
  H   H23       1.0  0.42106  0.96884  0.1829  1.0000
  O   O11       1.0  0.20323  0.91731  0.9150200000000001  1.0000
  O   O12       1.0  0.5355  0.8886899999999999  0.048040000000000006  1.0000
  O   O13       1.0  0.7110799999999999  0.08261  0.085  1.0000
  C   C41       1.0  0.36579  0.8622599999999998  0.06498  1.0000
  O   O14       1.0  0.53263  0.9053699999999998  0.9132300000000001  1.0000
  O   O15       1.0  0.70819  0.09940999999999996  0.94923  1.0000
  C   C42       1.0  0.36469  0.8842299999999997  0.8864900000000001  1.0000
  O   O16       1.0  0.20612  0.9005099999999998  0.05079  1.0000
  O   O17       1.0  0.37536  0.06356999999999997  0.01199  1.0000
  V   V3        1.0  0.64817  0.9881999999999997  0.99778  1.0000
  O   O18       1.0  0.038239999999999996  0.11138999999999998  0.9519400000000001  1.0000
  C   C43       1.0  0.87044  0.13762999999999995  0.93493  1.0000
  O   O19       1.0  0.04112  0.09470999999999997  0.08675  1.0000
  C   C44       1.0  0.87185  0.11611999999999997  0.11328000000000002  1.0000
  V   V4        1.0  0.14881  0.011929999999999998  0.0021800000000000005  1.0000
  O   O20       1.0  0.8717499999999998  0.9364299999999998  0.9880100000000002  1.0000
  C   C45       1.0  0.18654  0.3543  0.29730000000000006  1.0000
  N   N1        1.0  0.3296799999999999  0.39762  0.31152  1.0000
