data_image0
_chemical_formula_structural       C70Cr6H42O26
_chemical_formula_sum              "C70 Cr6 H42 O26"
_cell_length_a       11.08124
_cell_length_b       10.90012
_cell_length_c       18.8523
_cell_angle_alpha    90.15502
_cell_angle_beta     90.18464
_cell_angle_gamma    59.873520000000006

_space_group_name_H-M_alt    "P 1"
_space_group_IT_number       1

loop_
  _space_group_symop_operation_xyz
  'x, y, z'

loop_
  _atom_site_type_symbol
  _atom_site_label
  _atom_site_symmetry_multiplicity
  _atom_site_fract_x
  _atom_site_fract_y
  _atom_site_fract_z
  _atom_site_occupancy
  C   C1        1.0  0.24088  0.64388  0.61119  1.0000
  C   C2        1.0  0.5508299999999999  0.20615  0.7194200000000001  1.0000
  C   C3        1.0  0.56193  0.20251  0.79156  1.0000
  C   C4        1.0  0.6535100000000001  0.62286  0.60084  1.0000
  C   C5        1.0  0.9281700000000002  0.12688  0.81346  1.0000
  C   C6        1.0  0.041929999999999995  0.09796  0.77091  1.0000
  C   C7        1.0  0.03484  0.08621  0.69788  1.0000
  C   C8        1.0  0.9129099999999999  0.10606999999999998  0.66655  1.0000
  C   C9        1.0  0.66373  0.17939  0.67635  1.0000
  C   C10       1.0  0.19298999999999994  0.65685  0.8374600000000002  1.0000
  C   C11       1.0  0.19681000000000004  0.54265  0.79951  1.0000
  C   C12       1.0  0.66441  0.55767  0.80019  1.0000
  C   C13       1.0  0.19078000000000003  0.54703  0.7241100000000001  1.0000
  C   C14       1.0  0.23002000000000006  0.74728  0.72834  1.0000
  C   C15       1.0  0.22111999999999996  0.751  0.8014800000000001  1.0000
  C   C16       1.0  0.628  0.2284  0.6029  1.0000
  C   C17       1.0  0.20675000000000002  0.42414999999999997  0.83494  1.0000
  C   C18       1.0  0.19732  0.31918  0.79777  1.0000
  C   C19       1.0  0.17425999999999997  0.33184  0.725  1.0000
  C   C20       1.0  0.16918000000000005  0.44527999999999995  0.6884100000000001  1.0000
  C   C21       1.0  0.20819  0.65173  0.68788  1.0000
  C   C22       1.0  0.72993  0.69738  0.18182  1.0000
  C   C23       1.0  0.7000100000000001  0.6758  0.81157  1.0000
  C   C24       1.0  0.80156  0.5578  0.21163  1.0000
  C   C25       1.0  0.7467199999999998  0.53499  0.2728700000000001  1.0000
  C   C26       1.0  0.6265100000000001  0.78892  0.2969100000000001  1.0000
  C   C27       1.0  0.64992  0.81261  0.22661  1.0000
  C   C28       1.0  0.28700000000000003  0.62216  0.39258  1.0000
  C   C29       1.0  0.9218  0.43834  0.18180000000000004  1.0000
  C   C30       1.0  0.97039  0.30177  0.20567000000000005  1.0000
  C   C31       1.0  0.9021700000000002  0.27992999999999996  0.2601  1.0000
  C   C32       1.0  0.78282  0.39412  0.28827  1.0000
  C   C33       1.0  0.66482  0.65138  0.31865  1.0000
  C   C34       1.0  0.66963  0.64898  0.67611  1.0000
  C   C35       1.0  0.6611799999999999  0.14798  0.17878000000000002  1.0000
  C   C36       1.0  0.52892  0.21064  0.20963000000000007  1.0000
  C   C37       1.0  0.51981  0.19203  0.2824700000000001  1.0000
  C   C38       1.0  0.76906  0.09263  0.29584000000000005  1.0000
  C   C39       1.0  0.7811299999999999  0.08331  0.22247  1.0000
  C   C40       1.0  0.64143  0.62137  0.39145000000000013  1.0000
  C   C41       1.0  0.4069  0.27391  0.16825  1.0000
  C   C42       1.0  0.28640999999999994  0.28304  0.19401  1.0000
  C   C43       1.0  0.2795600000000001  0.24741  0.26395  1.0000
  C   C44       1.0  0.39497  0.20183  0.30795  1.0000
  C   C45       1.0  0.8184099999999999  0.62047  0.69077  1.0000
  C   C46       1.0  0.63795  0.15937  0.32600000000000007  1.0000
  C   C47       1.0  0.17659000000000002  0.6541299999999999  0.17565000000000006  1.0000
  C   C48       1.0  0.26400000000000007  0.70613  0.19729  1.0000
  C   C49       1.0  0.28076999999999996  0.71902  0.27043  1.0000
  C   C50       1.0  0.16948000000000002  0.57906  0.29434  1.0000
  C   C51       1.0  0.12728  0.59534  0.22486000000000003  1.0000
  C   C52       1.0  0.61638  0.22451000000000002  0.3963700000000001  1.0000
  C   C53       1.0  0.3163700000000001  0.76532  0.148  1.0000
  C   C54       1.0  0.34809  0.86722  0.16998000000000005  1.0000
  C   C55       1.0  0.33979000000000004  0.90047  0.24139000000000002  1.0000
  C   C56       1.0  0.64411  0.54344  0.72056  1.0000
  C   C57       1.0  0.31767999999999996  0.82048  0.29164  1.0000
  C   C58       1.0  0.24670000000000006  0.63991  0.3183  1.0000
  C   C59       1.0  0.7024900000000001  0.10323  0.8964400000000002  1.0000
  C   C60       1.0  0.72477  0.68881  0.8876400000000001  1.0000
  C   C61       1.0  0.12162999999999999  0.70299  0.90667  1.0000
  C   C62       1.0  0.67773  0.10386  0.10484  1.0000
  C   C63       1.0  0.7379800000000001  0.7176999999999999  0.10503  1.0000
  C   C64       1.0  0.5793600000000001  0.81724  0.78048  1.0000
  C   C65       1.0  0.09911000000000003  0.70528  0.11032000000000002  1.0000
  C   C66       1.0  0.5644699999999999  0.8026  0.7000900000000001  1.0000
  C   C67       1.0  0.68863  0.16296  0.8249  1.0000
  C   C68       1.0  0.83547  0.63877  0.77024  1.0000
  C   C69       1.0  0.80386  0.14393  0.78325  1.0000
  C   C70       1.0  0.79354  0.14297  0.70793  1.0000
  Cr  Cr1       1.0  0.3929400000000002  0.39795  0.5022300000000002  1.0000
  Cr  Cr2       1.0  0.39840000000000003  0.7085  0.50126  1.0000
  Cr  Cr3       1.0  0.7086400000000002  0.39353  0.49646000000000007  1.0000
  Cr  Cr4       1.0  0.9378800000000002  0.93832  0.00762  1.0000
  Cr  Cr5       1.0  0.62556  0.9372200000000002  0.9945100000000001  1.0000
  Cr  Cr6       1.0  0.9380800000000001  0.62501  0.0011900000000000003  1.0000
  H   H1        1.0  0.60071  0.90545  0.78986  1.0000
  H   H2        1.0  0.25537999999999994  0.8203  0.7034000000000002  1.0000
  H   H3        1.0  0.47924  0.8456699999999999  0.80729  1.0000
  H   H4        1.0  0.22868000000000002  0.40791  0.8911600000000001  1.0000
  H   H5        1.0  0.22976  0.8327  0.82985  1.0000
  H   H6        1.0  0.20827  0.2284  0.82614  1.0000
  H   H7        1.0  0.16272  0.25255  0.6963100000000001  1.0000
  H   H8        1.0  0.14502  0.45246999999999993  0.63262  1.0000
  H   H9        1.0  0.5703500000000002  0.8779599999999999  0.33252000000000004  1.0000
  H   H10       1.0  0.9853099999999999  0.44737  0.14174000000000003  1.0000
  H   H11       1.0  0.60421  0.91985  0.20697  1.0000
  H   H12       1.0  0.7177500000000001  0.43240999999999996  0.70402  1.0000
  H   H13       1.0  0.06160000000000001  0.21278  0.18235  1.0000
  H   H14       1.0  0.94533  0.17455  0.28081  1.0000
  H   H15       1.0  0.4556899999999999  0.82985  0.68827  1.0000
  H   H16       1.0  0.7203900000000001  0.37328  0.32309  1.0000
  H   H17       1.0  0.86102  0.0506  0.32919  1.0000
  H   H18       1.0  0.40657  0.30678  0.11406  1.0000
  H   H19       1.0  0.8850100000000001  0.02475  0.20017000000000001  1.0000
  H   H20       1.0  0.20087  0.31546  0.15823000000000004  1.0000
  H   H21       1.0  0.18625999999999998  0.25283  0.28454  1.0000
  H   H22       1.0  0.38726  0.16466  0.35987  1.0000
  H   H23       1.0  0.9236299999999997  0.53839  0.79078  1.0000
  H   H24       1.0  0.13221999999999998  0.52802  0.3302900000000001  1.0000
  H   H25       1.0  0.31966000000000006  0.7434499999999999  0.09173  1.0000
  H   H26       1.0  0.05042000000000006  0.5681699999999998  0.21053  1.0000
  H   H27       1.0  0.5842100000000001  0.87938  0.67083  1.0000
  H   H28       1.0  0.37512  0.9232  0.13168  1.0000
  H   H29       1.0  0.3600899999999999  0.9823000000000001  0.25852  1.0000
  H   H30       1.0  0.32228999999999997  0.848  0.3458000000000001  1.0000
  H   H31       1.0  0.8625400000000001  0.72346  0.77803  1.0000
  H   H32       1.0  0.83936  0.69419  0.65945  1.0000
  H   H33       1.0  0.7499400000000002  0.45502  0.82098  1.0000
  H   H34       1.0  0.89589  0.5104  0.6746700000000002  1.0000
  H   H35       1.0  0.5674500000000002  0.58301  0.8294100000000002  1.0000
  H   H36       1.0  0.5366499999999998  0.56308  0.711  1.0000
  H   H37       1.0  0.9383800000000001  0.14087  0.8693400000000001  1.0000
  H   H38       1.0  0.45  0.23456  0.69759  1.0000
  H   H39       1.0  0.47177  0.22052  0.8215100000000001  1.0000
  H   H40       1.0  0.13799  0.07957  0.79494  1.0000
  H   H41       1.0  0.12491  0.05979999999999999  0.6652800000000002  1.0000
  H   H42       1.0  0.91469  0.08917  0.60998  1.0000
  O   O1        1.0  0.5073400000000001  0.25569  0.58143  1.0000
  O   O2        1.0  0.8372900000000001  0.59324  0.91524  1.0000
  O   O3        1.0  0.06532000000000004  0.63531  0.9315800000000001  1.0000
  O   O4        1.0  0.28036000000000005  0.52738  0.5789100000000001  1.0000
  O   O5        1.0  0.06847000000000009  0.8286199999999999  0.09185  1.0000
  O   O6        1.0  0.7991500000000001  0.057199999999999994  0.07935000000000002  1.0000
  O   O7        1.0  0.58522  0.08018  0.07677  1.0000
  O   O8        1.0  0.6271699999999999  0.80948  0.06705  1.0000
  O   O9        1.0  0.8162000000000001  0.59641  0.0765  1.0000
  O   O10       1.0  0.045769999999999984  0.63824  0.08107  1.0000
  O   O11       1.0  0.83384  0.83352  0.00111  1.0000
  O   O12       1.0  0.5245099999999999  0.69582  0.42405000000000004  1.0000
  O   O13       1.0  0.26059999999999994  0.73961  0.5845800000000001  1.0000
  O   O14       1.0  0.5323700000000001  0.69505  0.5738300000000001  1.0000
  O   O15       1.0  0.74485  0.5034299999999999  0.5763800000000001  1.0000
  O   O16       1.0  0.69908  0.2765  0.5719500000000001  1.0000
  O   O17       1.0  0.49886  0.25652  0.4198600000000001  1.0000
  O   O18       1.0  0.27248999999999995  0.52815  0.4291400000000001  1.0000
  O   O19       1.0  0.25211  0.74044  0.42301  1.0000
  O   O20       1.0  0.73637  0.50426  0.41481  1.0000
  O   O21       1.0  0.6912200000000001  0.2772699999999999  0.42218  1.0000
  O   O22       1.0  0.49999  0.49999  0.49998000000000004  1.0000
  O   O23       1.0  0.08957000000000001  0.82545  0.9305900000000001  1.0000
  O   O24       1.0  0.8187  0.054259999999999996  0.92986  1.0000
  O   O25       1.0  0.60631  0.07701  0.9155200000000002  1.0000
  O   O26       1.0  0.6467300000000001  0.80654  0.9175600000000002  1.0000
