data_image0
_chemical_formula_structural       C40Cu2H22N2O8NH2NH2
_chemical_formula_sum              "C40 Cu2 H26 N4 O8"
_cell_length_a       10.86586
_cell_length_b       10.88152
_cell_length_c       9.57991
_cell_angle_alpha    89.98201
_cell_angle_beta     91.4419
_cell_angle_gamma    91.96167

_space_group_name_H-M_alt    "P 1"
_space_group_IT_number       1

loop_
  _space_group_symop_operation_xyz
  'x, y, z'

loop_
  _atom_site_type_symbol
  _atom_site_label
  _atom_site_symmetry_multiplicity
  _atom_site_fract_x
  _atom_site_fract_y
  _atom_site_fract_z
  _atom_site_occupancy
  C   C1        1.0  0.50809  0.26269  0.50151  1.0000
  C   C2        1.0  0.16082  0.66564  0.9775  1.0000
  C   C3        1.0  0.9316299999999998  0.54442  0.38893  1.0000
  C   C4        1.0  0.8714199999999999  0.49681  0.50525  1.0000
  C   C5        1.0  0.9406  0.44825  0.61796  1.0000
  C   C6        1.0  0.06821000000000002  0.45047  0.61137  1.0000
  C   C7        1.0  0.12834  0.49917999999999996  0.4954  1.0000
  C   C8        1.0  0.05886  0.54466  0.38166  1.0000
  C   C9        1.0  0.87331  0.4596  0.8632299999999999  1.0000
  C   C10       1.0  0.8351900000000001  0.40396  0.98693  1.0000
  C   C11       1.0  0.81192  0.27722  0.9916  1.0000
  C   C12       1.0  0.26235  0.50047  0.49814  1.0000
  C   C13       1.0  0.82641  0.20577000000000004  0.8723899999999999  1.0000
  C   C14       1.0  0.86174  0.26115  0.74606  1.0000
  C   C15       1.0  0.88574  0.38937  0.74201  1.0000
  C   C16       1.0  0.54571  0.11814999999999999  0.7679799999999999  1.0000
  C   C17       1.0  0.5205  0.0577  0.8925599999999998  1.0000
  C   C18       1.0  0.46436999999999995  0.94168  0.8892299999999999  1.0000
  C   C19       1.0  0.44438  0.88201  0.76189  1.0000
  C   C20       1.0  0.4811499999999999  0.9370699999999998  0.63447  1.0000
  C   C21       1.0  0.51523  0.06315  0.6364399999999999  1.0000
  C   C22       1.0  0.51597  0.12848  0.50726  1.0000
  C   C23       1.0  0.4923  0.7374100000000001  0.5008599999999999  1.0000
  C   C24       1.0  0.50902  0.0636  0.38101  1.0000
  C   C25       1.0  0.49895  0.93672  0.3805  1.0000
  C   C26       1.0  0.48567000000000005  0.87178  0.50565  1.0000
  C   C27       1.0  0.658  0.66824  0.14781999999999998  1.0000
  C   C28       1.0  0.73372  0.75123  0.07729  1.0000
  C   C29       1.0  0.73381  0.75068  0.93358  1.0000
  C   C30       1.0  0.6585  0.66676  0.8596899999999998  1.0000
  C   C31       1.0  0.57719  0.58279  0.92709  1.0000
  C   C32       1.0  0.57702  0.5831  0.07674  1.0000
  C   C33       1.0  0.42751999999999996  0.42040999999999995  0.07189  1.0000
  C   C34       1.0  0.73752  0.49739  0.502  1.0000
  C   C35       1.0  0.42742  0.42056  0.9238899999999999  1.0000
  C   C36       1.0  0.15801  0.75101  0.08661999999999997  1.0000
  C   C37       1.0  0.13264  0.71129  0.22214  1.0000
  C   C38       1.0  0.11168  0.5857  0.24899  1.0000
  C   C39       1.0  0.12029999999999999  0.50008  0.14089  1.0000
  C   C40       1.0  0.14518  0.53984  0.00603  1.0000
  Cu  Cu1       1.0  0.49999  0.49999  0.64066  1.0000
  Cu  Cu2       1.0  0.50001  0.50001  0.3593399999999999  1.0000
  H   H1        1.0  0.7834099999999999  0.23412  0.08793  1.0000
  H   H2        1.0  0.8090199999999999  0.10733999999999999  0.87829  1.0000
  H   H3        1.0  0.51209  0.11095  0.28157999999999994  1.0000
  H   H4        1.0  0.59313  0.20611000000000002  0.77834  1.0000
  H   H5        1.0  0.54232  0.10221  0.9916399999999999  1.0000
  H   H6        1.0  0.43878  0.8964699999999999  0.9854999999999999  1.0000
  H   H7        1.0  0.39697999999999994  0.79425  0.76609  1.0000
  H   H8        1.0  0.50058  0.8895  0.28103  1.0000
  H   H9        1.0  0.36786  0.3554  0.12554  1.0000
  H   H10       1.0  0.17049  0.84834  0.06552  1.0000
  H   H11       1.0  0.66893  0.6742  0.25783  1.0000
  H   H12       1.0  0.79434  0.8151299999999999  0.13496  1.0000
  H   H13       1.0  0.7945899999999999  0.81398  0.8787099999999999  1.0000
  H   H14       1.0  0.67041  0.67003  0.7502699999999999  1.0000
  H   H15       1.0  0.36767  0.35563  0.8668599999999997  1.0000
  H   H16       1.0  0.12406000000000003  0.77838  0.30451  1.0000
  H   H17       1.0  0.10228  0.40305  0.15991999999999998  1.0000
  H   H18       1.0  0.14845  0.47297  0.92314  1.0000
  H   H19       1.0  0.87931  0.58094  0.30141  1.0000
  H   H20       1.0  0.12094  0.41017  0.69607  1.0000
  H   H21       1.0  0.89579  0.55724  0.8624  1.0000
  H   H22       1.0  0.8258799999999998  0.45886999999999994  0.07992  1.0000
  N   N1        1.0  0.50119  0.50121  0.14791  1.0000
  N   N2        1.0  0.50123  0.50129  0.85204  1.0000
  O   O1        1.0  0.49999  0.31964  0.61881  1.0000
  O   O2        1.0  0.5  0.31966  0.38124  1.0000
  O   O3        1.0  0.31964  0.5  0.61878  1.0000
  O   O4        1.0  0.31965  0.50002  0.38120999999999994  1.0000
  O   O5        1.0  0.4999999999999999  0.68034  0.61876  1.0000
  O   O6        1.0  0.50001  0.68036  0.38119  1.0000
  O   O7        1.0  0.68035  0.49998000000000004  0.61879  1.0000
  O   O8        1.0  0.68036  0.5  0.3812199999999999  1.0000
  N   N3        1.0  0.17391  0.70747  0.83722  1.0000
  H   H23       1.0  0.24253  0.65671  0.79257  1.0000
  H   H24       1.0  0.09178  0.68496  0.78251  1.0000
  N   N4        1.0  0.87444  0.18825000000000003  0.62259  1.0000
  H   H25       1.0  0.9684199999999998  0.18521  0.60261  1.0000
  H   H26       1.0  0.84354  0.09762  0.64017  1.0000
