data_image0
_chemical_formula_structural       C124Cr12H52O76
_chemical_formula_sum              "C124 Cr12 H52 O76"
_cell_length_a       19.05657
_cell_length_b       10.97964
_cell_length_c       18.881979999999995
_cell_angle_alpha    89.74562
_cell_angle_beta     90.22862999999998
_cell_angle_gamma    89.82395000000001

_symmetry_space_group_name_H-M    'P 1'
_symmetry_Int_Tables_number       1

loop_
  _symmetry_equiv_pos_as_xyz
  'x,y,z'

loop_
  _atom_site_type_symbol
  _atom_site_label
  _atom_site_symmetry_multiplicity
  _atom_site_fract_x
  _atom_site_fract_y
  _atom_site_fract_z
  _atom_site_occupancy
  C   C1        1.0  0.7305499999999998  0.37686  0.646  1.0000
  C   C2        1.0  0.28466999999999987  0.84428  0.45802  1.0000
  C   C3        1.0  0.9465099999999999  0.55283  0.48276  1.0000
  C   C4        1.0  0.42472999999999994  0.9820900000000001  0.60816  1.0000
  C   C5        1.0  0.43871999999999994  0.9275200000000001  0.45585000000000003  1.0000
  C   C6        1.0  0.92463  0.4822500000000001  0.60819  1.0000
  C   C7        1.0  0.9385499999999998  0.4275  0.45587000000000005  1.0000
  C   C8        1.0  0.8797099999999999  0.9768300000000001  0.92659  1.0000
  C   C9        1.0  0.12059999999999998  0.98149  0.07264  1.0000
  C   C10       1.0  0.37971  0.4768  0.9265800000000001  1.0000
  C   C11       1.0  0.6206  0.48147000000000006  0.07264  1.0000
  C   C12       1.0  0.8541299999999998  0.0736  0.07457000000000001  1.0000
  C   C13       1.0  0.19001999999999997  0.39802  0.53521  1.0000
  C   C14       1.0  0.14663999999999994  0.07552  0.9239  1.0000
  C   C15       1.0  0.35415  0.5735700000000001  0.07456  1.0000
  C   C16       1.0  0.6466299999999998  0.5755100000000001  0.9239100000000001  1.0000
  C   C17       1.0  0.6256199999999997  0.85273  0.07554  1.0000
  C   C18       1.0  0.37406999999999996  0.8484100000000002  0.92514  1.0000
  C   C19       1.0  0.12562  0.35274  0.07554  1.0000
  C   C20       1.0  0.8740699999999999  0.34840000000000004  0.92514  1.0000
  C   C21       1.0  0.63277  0.8638400000000002  0.41921  1.0000
  C   C22       1.0  0.34271  0.74606  0.56019  1.0000
  C   C23       1.0  0.13268999999999995  0.36367999999999995  0.41923  1.0000
  C   C24       1.0  0.7846  0.34425  0.45801  1.0000
  C   C25       1.0  0.84255  0.24590000000000006  0.56016  1.0000
  C   C26       1.0  0.8907899999999997  0.9805100000000002  0.44719000000000003  1.0000
  C   C27       1.0  0.18184999999999998  0.11068  0.58745  1.0000
  C   C28       1.0  0.39051999999999987  0.4813500000000001  0.44697000000000003  1.0000
  C   C29       1.0  0.6818599999999998  0.6107200000000002  0.58746  1.0000
  C   C30       1.0  0.69619  0.88712  0.46211  1.0000
  C   C31       1.0  0.29065  0.8345500000000007  0.53158  1.0000
  C   C32       1.0  0.19611999999999996  0.38716  0.46209  1.0000
  C   C33       1.0  0.79058  0.3345000000000001  0.53156  1.0000
  C   C34       1.0  0.76214  0.90506  0.4304700000000001  1.0000
  C   C35       1.0  0.25160999999999994  0.91573  0.57503  1.0000
  C   C36       1.0  0.26202  0.40533  0.4304  1.0000
  C   C37       1.0  0.27261  0.37339  0.356  1.0000
  C   C38       1.0  0.75158  0.41573000000000004  0.5750200000000001  1.0000
  C   C39       1.0  0.82215  0.93207  0.47394  1.0000
  C   C40       1.0  0.21790999999999994  0.01741  0.54426  1.0000
  C   C41       1.0  0.32201  0.43262000000000006  0.47382  1.0000
  C   C42       1.0  0.7179  0.51744  0.54426  1.0000
  C   C43       1.0  0.81531  0.92615  0.54692  1.0000
  C   C44       1.0  0.21784  0.029930000000000002  0.47129000000000004  1.0000
  C   C45       1.0  0.3152599999999999  0.4266400000000001  0.5468  1.0000
  C   C46       1.0  0.71786  0.52999  0.47129000000000004  1.0000
  C   C47       1.0  0.7495  0.9191300000000001  0.57735  1.0000
  C   C48       1.0  0.23054999999999998  0.8768600000000001  0.646  1.0000
  C   C49       1.0  0.25053999999999993  0.9431100000000001  0.42809  1.0000
  C   C50       1.0  0.24948999999999996  0.41927  0.5773000000000001  1.0000
  C   C51       1.0  0.75052  0.4431400000000001  0.42808  1.0000
  C   C52       1.0  0.50303  0.05277  0.9639  1.0000
  C   C53       1.0  0.49462999999999996  0.05263  0.03578  1.0000
  C   C54       1.0  0.0030199999999999997  0.5527700000000001  0.9639  1.0000
  C   C55       1.0  0.9946199999999998  0.55263  0.03578  1.0000
  C   C56       1.0  0.48996999999999996  0.16256  0.07287  1.0000
  C   C57       1.0  0.50949  0.16274  0.9268300000000002  1.0000
  C   C58       1.0  0.9899699999999999  0.6625600000000001  0.07287  1.0000
  C   C59       1.0  0.77266  0.8732800000000001  0.35604  1.0000
  C   C60       1.0  0.009489999999999998  0.6627400000000001  0.92682  1.0000
  C   C61       1.0  0.49492999999999987  0.27345  0.03625  1.0000
  C   C62       1.0  0.5062199999999999  0.2735  0.96339  1.0000
  C   C63       1.0  0.99493  0.77345  0.03625  1.0000
  C   C64       1.0  0.006220000000000001  0.7735  0.96339  1.0000
  C   C65       1.0  0.53157  0.15615  0.64726  1.0000
  C   C66       1.0  0.44033  0.14978  0.36137  1.0000
  C   C67       1.0  0.03158  0.65615  0.64726  1.0000
  C   C68       1.0  0.9403299999999999  0.64977  0.36137  1.0000
  C   C69       1.0  0.8120799999999999  0.96452  0.96526  1.0000
  C   C70       1.0  0.5630499999999999  0.30716  0.44144000000000005  1.0000
  C   C71       1.0  0.18826999999999997  0.96705  0.03426  1.0000
  C   C72       1.0  0.31207999999999997  0.4645  0.96526  1.0000
  C   C73       1.0  0.6882699999999999  0.46704000000000007  0.03427000000000001  1.0000
  C   C74       1.0  0.80673  0.9859500000000001  0.03821000000000001  1.0000
  C   C75       1.0  0.19375  0.9873400000000001  0.96109  1.0000
  C   C76       1.0  0.30673  0.48594  0.03821000000000001  1.0000
  C   C77       1.0  0.69375  0.48734  0.96109  1.0000
  C   C78       1.0  0.7516399999999998  0.92923  0.07667  1.0000
  C   C79       1.0  0.24854  0.92876  0.9231200000000002  1.0000
  C   C80       1.0  0.25164  0.42923  0.07667  1.0000
  C   C81       1.0  0.58095  0.31611  0.51941  1.0000
  C   C82       1.0  0.74854  0.4287600000000001  0.9231300000000001  1.0000
  C   C83       1.0  0.6917299999999998  0.88756  0.03979  1.0000
  C   C84       1.0  0.30818  0.8858400000000001  0.9604600000000001  1.0000
  C   C85       1.0  0.19172999999999996  0.38757000000000014  0.03979  1.0000
  C   C86       1.0  0.8081899999999997  0.38584  0.9604600000000001  1.0000
  C   C87       1.0  0.6919399999999998  0.8893600000000002  0.96589  1.0000
  C   C88       1.0  0.30797  0.8886000000000002  0.03438  1.0000
  C   C89       1.0  0.19194  0.38937000000000005  0.96589  1.0000
  C   C90       1.0  0.80797  0.38861  0.03438  1.0000
  C   C91       1.0  0.7513  0.92784  0.92815  1.0000
  C   C92       1.0  0.06322  0.80689  0.44138000000000005  1.0000
  C   C93       1.0  0.24879  0.9289200000000001  0.07178  1.0000
  C   C94       1.0  0.25129999999999997  0.42783  0.92815  1.0000
  C   C95       1.0  0.74879  0.42892  0.07178  1.0000
  C   C96       1.0  0.7411499999999998  0.9684000000000003  0.64794  1.0000
  C   C97       1.0  0.25888  0.97251  0.35368  1.0000
  C   C98       1.0  0.24115  0.46842000000000006  0.64792  1.0000
  C   C99       1.0  0.7588799999999998  0.4725200000000001  0.35368  1.0000
  C   C100      1.0  0.7305099999999999  0.38151000000000007  0.85189  1.0000
  C   C101      1.0  0.26954  0.38166  0.14808  1.0000
  C   C102      1.0  0.23050999999999996  0.8815100000000002  0.85189  1.0000
  C   C103      1.0  0.08113  0.81582  0.51935  1.0000
  C   C104      1.0  0.7695399999999998  0.8816600000000002  0.14808  1.0000
  C   C105      1.0  0.5338299999999998  0.15666  0.85417  1.0000
  C   C106      1.0  0.46606  0.1567  0.14573  1.0000
  C   C107      1.0  0.03383  0.65666  0.85417  1.0000
  C   C108      1.0  0.96606  0.6567  0.14573  1.0000
  C   C109      1.0  0.74162  0.97039  0.8546900000000001  1.0000
  C   C110      1.0  0.25844  0.9707200000000002  0.14525  1.0000
  C   C111      1.0  0.24161999999999997  0.47039000000000003  0.85468  1.0000
  C   C112      1.0  0.75844  0.47072000000000014  0.14525  1.0000
  C   C113      1.0  0.4618699999999999  0.15088000000000001  0.43576000000000004  1.0000
  C   C114      1.0  0.6900399999999998  0.89806  0.5352200000000001  1.0000
  C   C115      1.0  0.49302  0.16855000000000006  0.5812  1.0000
  C   C116      1.0  0.96192  0.6508200000000001  0.43575  1.0000
  C   C117      1.0  0.99308  0.66852  0.58118  1.0000
  C   C118      1.0  0.4940799999999999  0.25377000000000005  0.46292000000000005  1.0000
  C   C119      1.0  0.511  0.26108  0.53395  1.0000
  C   C120      1.0  0.99422  0.75362  0.46288  1.0000
  C   C121      1.0  0.011149999999999998  0.7609300000000001  0.5339  1.0000
  C   C122      1.0  0.45306  0.07055000000000002  0.5564900000000002  1.0000
  C   C123      1.0  0.4465299999999999  0.05285000000000001  0.48276  1.0000
  C   C124      1.0  0.9530499999999998  0.57057  0.5564900000000002  1.0000
  Cr  Cr1       1.0  0.7719499999999999  0.16948  0.7501  1.0000
  Cr  Cr2       1.0  0.38340999999999986  0.01062  0.24939  1.0000
  Cr  Cr3       1.0  0.11658999999999999  0.51062  0.75061  1.0000
  Cr  Cr4       1.0  0.8834099999999999  0.51062  0.24939  1.0000
  Cr  Cr5       1.0  0.22804999999999997  0.16948  0.2499  1.0000
  Cr  Cr6       1.0  0.27194999999999997  0.66948  0.7501  1.0000
  Cr  Cr7       1.0  0.72805  0.66948  0.2499  1.0000
  Cr  Cr8       1.0  0.61493  0.32334000000000007  0.7491700000000001  1.0000
  Cr  Cr9       1.0  0.38507  0.32334000000000007  0.25083  1.0000
  Cr  Cr10      1.0  0.11493  0.82334  0.7491700000000001  1.0000
  Cr  Cr11      1.0  0.8850699999999999  0.82334  0.25083  1.0000
  Cr  Cr12      1.0  0.61659  0.01062  0.75061  1.0000
  H   H1        1.0  0.44241  0.88863  0.6077800000000001  1.0000
  H   H2        1.0  0.16964999999999997  0.14333  0.88913  1.0000
  H   H3        1.0  0.33143999999999996  0.6413700000000001  0.10935  1.0000
  H   H4        1.0  0.66963  0.64328  0.8891  1.0000
  H   H5        1.0  0.5860299999999999  0.80232  0.04658  1.0000
  H   H6        1.0  0.41314000000000006  0.79668  0.95455  1.0000
  H   H7        1.0  0.08602999999999998  0.30233  0.04659  1.0000
  H   H8        1.0  0.91313  0.2966500000000001  0.95455  1.0000
  H   H9        1.0  0.64417  0.86604  0.93773  1.0000
  H   H10       1.0  0.35555999999999993  0.8642  0.06279  1.0000
  H   H11       1.0  0.14417  0.36606  0.93773  1.0000
  H   H12       1.0  0.40900999999999993  0.9078000000000002  0.40894  1.0000
  H   H13       1.0  0.8555699999999999  0.36421000000000003  0.06279  1.0000
  H   H14       1.0  0.057349999999999984  0.89717  0.41513  1.0000
  H   H15       1.0  0.12558999999999995  0.75589  0.53556  1.0000
  H   H16       1.0  0.5571499999999999  0.3974300000000001  0.41518  1.0000
  H   H17       1.0  0.6254499999999997  0.25626  0.53562  1.0000
  H   H18       1.0  0.59682  0.24132  0.41253  1.0000
  H   H19       1.0  0.58365  0.4114  0.53856  1.0000
  H   H20       1.0  0.09694  0.741  0.41247  1.0000
  H   H21       1.0  0.08388999999999999  0.9111  0.5385  1.0000
  H   H22       1.0  0.6381799999999997  0.8967600000000002  0.55861  1.0000
  H   H23       1.0  0.94225  0.3887700000000001  0.6078900000000002  1.0000
  H   H24       1.0  0.3112  0.7802800000000001  0.42363  1.0000
  H   H25       1.0  0.13818  0.39653000000000005  0.55866  1.0000
  H   H26       1.0  0.8111  0.28023000000000003  0.42361000000000004  1.0000
  H   H27       1.0  0.62328  0.9152200000000001  0.37085  1.0000
  H   H28       1.0  0.35916  0.7419900000000003  0.61474  1.0000
  H   H29       1.0  0.12330999999999999  0.41454  0.37066  1.0000
  H   H30       1.0  0.85919  0.24211000000000005  0.6146500000000001  1.0000
  H   H31       1.0  0.89509  0.02944  0.39761  1.0000
  H   H32       1.0  0.20252999999999996  0.13506  0.63912  1.0000
  H   H33       1.0  0.39451  0.53083  0.39754  1.0000
  H   H34       1.0  0.90895  0.40789000000000003  0.40889  1.0000
  H   H35       1.0  0.70252  0.63504  0.63914  1.0000
  H   H36       1.0  0.86039  0.9439700000000001  0.58051  1.0000
  H   H37       1.0  0.1939  0.11053  0.44831  1.0000
  H   H38       1.0  0.36036  0.44467  0.58033  1.0000
  H   H39       1.0  0.69395  0.6106200000000002  0.44832  1.0000
  H   H40       1.0  0.5073999999999999  0.96527  0.93807  1.0000
  H   H41       1.0  0.48906999999999995  0.96499  0.06162  1.0000
  H   H42       1.0  0.00739  0.46527  0.93807  1.0000
  H   H43       1.0  0.98906  0.46499000000000007  0.06162  1.0000
  H   H44       1.0  0.48913999999999996  0.35908000000000007  0.06363  1.0000
  H   H45       1.0  0.89234  0.911  0.88581  1.0000
  H   H46       1.0  0.51349  0.35914000000000007  0.936  1.0000
  H   H47       1.0  0.9891499999999999  0.85908  0.06363  1.0000
  H   H48       1.0  0.01349  0.85914  0.936  1.0000
  H   H49       1.0  0.10761999999999998  0.91665  0.1141  1.0000
  H   H50       1.0  0.39237  0.4108700000000001  0.88586  1.0000
  H   H51       1.0  0.60761  0.4166  0.11409000000000001  1.0000
  H   H52       1.0  0.8313999999999999  0.14148  0.10930000000000001  1.0000
  O   O1        1.0  0.7875099999999999  0.04261000000000001  0.67041  1.0000
  O   O2        1.0  0.45425  0.05107  0.16944  1.0000
  O   O3        1.0  0.045749999999999985  0.55107  0.83056  1.0000
  O   O4        1.0  0.95425  0.55107  0.16944  1.0000
  O   O5        1.0  0.6812099999999998  0.95915  0.82532  1.0000
  O   O6        1.0  0.31879  0.95915  0.17468000000000003  1.0000
  O   O7        1.0  0.18121  0.45915000000000006  0.82532  1.0000
  O   O8        1.0  0.81879  0.45915000000000006  0.17468000000000003  1.0000
  O   O9        1.0  0.6678199999999997  0.16781  0.74996  1.0000
  O   O10       1.0  0.33218  0.16781  0.25004  1.0000
  O   O11       1.0  0.16782000000000002  0.6678100000000001  0.74996  1.0000
  O   O12       1.0  0.21249  0.04261000000000001  0.32959000000000005  1.0000
  O   O13       1.0  0.83218  0.6678100000000001  0.25004  1.0000
  O   O14       1.0  0.76567  0.29209000000000007  0.67509  1.0000
  O   O15       1.0  0.23432999999999998  0.29209000000000007  0.32491  1.0000
  O   O16       1.0  0.26566999999999996  0.7920900000000001  0.67509  1.0000
  O   O17       1.0  0.73433  0.7920900000000001  0.32491  1.0000
  O   O18       1.0  0.67022  0.40902  0.66856  1.0000
  O   O19       1.0  0.32978  0.40902  0.33144  1.0000
  O   O20       1.0  0.17022  0.9090200000000003  0.66856  1.0000
  O   O21       1.0  0.82978  0.9090200000000003  0.33144  1.0000
  O   O22       1.0  0.55658  0.25159  0.67498  1.0000
  O   O23       1.0  0.28751  0.54261  0.67041  1.0000
  O   O24       1.0  0.44342  0.25159  0.32502  1.0000
  O   O25       1.0  0.056579999999999984  0.75159  0.67498  1.0000
  O   O26       1.0  0.94342  0.75159  0.32502  1.0000
  O   O27       1.0  0.54589  0.04967000000000001  0.67003  1.0000
  O   O28       1.0  0.45410999999999996  0.04967000000000001  0.32997  1.0000
  O   O29       1.0  0.045889999999999986  0.54967  0.67003  1.0000
  O   O30       1.0  0.95411  0.54967  0.32997  1.0000
  O   O31       1.0  0.6813399999999998  0.95786  0.6765  1.0000
  O   O32       1.0  0.31866  0.95786  0.3235  1.0000
  O   O33       1.0  0.18134  0.45786  0.6765  1.0000
  O   O34       1.0  0.71249  0.54261  0.32959000000000005  1.0000
  O   O35       1.0  0.81866  0.45786  0.3235  1.0000
  O   O36       1.0  0.7873799999999999  0.04401000000000001  0.8309400000000001  1.0000
  O   O37       1.0  0.21262  0.04401000000000001  0.16906  1.0000
  O   O38       1.0  0.28738  0.5440100000000001  0.8309400000000001  1.0000
  O   O39       1.0  0.71262  0.5440100000000001  0.16906  1.0000
  O   O40       1.0  0.7655399999999998  0.29339000000000004  0.82391  1.0000
  O   O41       1.0  0.23445999999999997  0.29339000000000004  0.17609  1.0000
  O   O42       1.0  0.26554  0.79339  0.82391  1.0000
  O   O43       1.0  0.73446  0.79339  0.17609  1.0000
  O   O44       1.0  0.6700899999999999  0.4104100000000001  0.82909  1.0000
  O   O45       1.0  0.55645  0.25289000000000006  0.82379  1.0000
  O   O46       1.0  0.32991  0.4104100000000001  0.17091  1.0000
  O   O47       1.0  0.17009  0.9104100000000003  0.82909  1.0000
  O   O48       1.0  0.82991  0.9104100000000003  0.17091  1.0000
  O   O49       1.0  0.38540999999999986  0.016300000000000002  0.6549600000000001  1.0000
  O   O50       1.0  0.46996  0.8437400000000003  0.48446000000000006  1.0000
  O   O51       1.0  0.88529  0.51663  0.6549400000000002  1.0000
  O   O52       1.0  0.9695099999999999  0.34354  0.48462000000000005  1.0000
  O   O53       1.0  0.91897  0.06287  0.9354600000000001  1.0000
  O   O54       1.0  0.08156999999999999  0.06802  0.06257  1.0000
  O   O55       1.0  0.41891999999999985  0.5629300000000002  0.93537  1.0000
  O   O56       1.0  0.4435499999999999  0.25289000000000006  0.17621000000000006  1.0000
  O   O57       1.0  0.58158  0.56803  0.06261  1.0000
  O   O58       1.0  0.9178499999999999  0.06502  0.07115  1.0000
  O   O59       1.0  0.0829  0.06738000000000001  0.9267500000000001  1.0000
  O   O60       1.0  0.41787  0.56506  0.07107  1.0000
  O   O61       1.0  0.58289  0.5674  0.92678  1.0000
  O   O62       1.0  0.61252  0.8861900000000003  0.13564  1.0000
  O   O63       1.0  0.38766  0.88119  0.86487  1.0000
  O   O64       1.0  0.11252  0.38621000000000005  0.13565  1.0000
  O   O65       1.0  0.88766  0.38119000000000003  0.86487  1.0000
  O   O66       1.0  0.5927999999999999  0.7821  0.4355  1.0000
  O   O67       1.0  0.05644999999999999  0.75289  0.82379  1.0000
  O   O68       1.0  0.3751099999999999  0.6813000000000001  0.52046  1.0000
  O   O69       1.0  0.09253999999999997  0.28240000000000004  0.43583000000000005  1.0000
  O   O70       1.0  0.8746199999999998  0.18063000000000004  0.52043  1.0000
  O   O71       1.0  0.9426899999999999  0.9825600000000001  0.48518  1.0000
  O   O72       1.0  0.12706  0.15691000000000002  0.567  1.0000
  O   O73       1.0  0.44259  0.48289000000000004  0.48472  1.0000
  O   O74       1.0  0.62709  0.65702  0.56699  1.0000
  O   O75       1.0  0.9435499999999998  0.75289  0.17621000000000006  1.0000
  O   O76       1.0  0.54575  0.05107  0.83056  1.0000
