data_image0
_chemical_formula_structural       O3CO2CO2VOCOCVOCH3C13H5C2HC2H2C2H2C2HCH3C13H3O3CO2CO2VOCOCVOFOCH3OCH3OCH3
_chemical_formula_sum              "O23 C47 V4 H29 F1"
_cell_length_a       6.95127
_cell_length_b       13.667320000000002
_cell_length_c       20.44258
_cell_angle_alpha    102.26575
_cell_angle_beta     89.27926
_cell_angle_gamma    90.82142

_symmetry_space_group_name_H-M    'P 1'
_symmetry_Int_Tables_number       1

loop_
  _symmetry_equiv_pos_as_xyz
  'x,y,z'

loop_
  _atom_site_type_symbol
  _atom_site_label
  _atom_site_symmetry_multiplicity
  _atom_site_fract_x
  _atom_site_fract_y
  _atom_site_fract_z
  _atom_site_occupancy
  O   O1        1.0  0.50686  0.59939  0.44924000000000003  1.0000
  O   O2        1.0  0.18022  0.5946000000000002  0.58678  1.0000
  O   O3        1.0  0.0045  0.40061000000000013  0.55076  1.0000
  C   C1        1.0  0.3480699999999999  0.61607  0.61353  1.0000
  O   O4        1.0  0.17749  0.61129  0.45197000000000004  1.0000
  O   O5        1.0  0.0017500000000000042  0.4174200000000001  0.41499  1.0000
  C   C2        1.0  0.34815  0.63773  0.43537000000000003  1.0000
  O   O6        1.0  0.50961  0.58258  0.58501  1.0000
  O   O7        1.0  0.33742  0.43637  0.48802  1.0000
  V   V1        1.0  0.06468  0.5118  0.50222  1.0000
  O   O8        1.0  0.6717099999999998  0.4054000000000001  0.41322000000000003  1.0000
  C   C3        1.0  0.8407099999999997  0.38535  0.38605  1.0000
  O   O9        1.0  0.67444  0.38871  0.54803  1.0000
  C   C4        1.0  0.8417000000000001  0.3625400000000001  0.56513  1.0000
  V   V2        1.0  0.56401  0.48820000000000013  0.49777999999999994  1.0000
  O   O10       1.0  0.84114  0.5636300000000001  0.51198  1.0000
  C   C5        1.0  0.81769  0.11213  0.61284  1.0000
  H   H1        1.0  0.80888  0.16251  0.52045  1.0000
  H   H2        1.0  0.80983  0.98691  0.6956  1.0000
  H   H3        1.0  0.8011  0.03420999999999999  0.58787  1.0000
  C   C6        1.0  0.84508  0.28561000000000003  0.60513  1.0000
  C   C7        1.0  0.8867299999999998  0.3145  0.92823  1.0000
  C   C8        1.0  0.892  0.3905300000000001  0.8926800000000001  1.0000
  C   C9        1.0  0.88032  0.3681300000000001  0.82308  1.0000
  C   C10       1.0  0.8624999999999999  0.26783  0.78688  1.0000
  C   C11       1.0  0.85483  0.19018000000000002  0.8238600000000001  1.0000
  C   C12       1.0  0.85222  0.24201  0.7154  1.0000
  C   C13       1.0  0.8318299999999998  0.13957000000000003  0.6828300000000002  1.0000
  C   C14       1.0  0.82476  0.06511  0.72019  1.0000
  C   C15       1.0  0.83662  0.08976  0.78948  1.0000
  C   C16       1.0  0.8605799999999998  0.3141200000000001  0.6748200000000001  1.0000
  C   C17       1.0  0.8226999999999999  0.18481000000000006  0.57432  1.0000
  C   C18       1.0  0.86756  0.21462  0.89468  1.0000
  H   H4        1.0  0.8762499999999998  0.3931100000000001  0.69558  1.0000
  H   H5        1.0  0.8981199999999998  0.33359  0.98229  1.0000
  H   H6        1.0  0.8857699999999997  0.4312600000000001  0.79931  1.0000
  H   H7        1.0  0.9063199999999998  0.4676900000000001  0.91928  1.0000
  H   H8        1.0  0.8308599999999998  0.02904000000000003  0.8159400000000001  1.0000
  C   C19       1.0  0.003469999999999999  0.27711  0.28731  1.0000
  C   C20       1.0  0.84744  0.3278  0.31567  1.0000
  H   H9        1.0  0.72338  0.33299000000000006  0.28504  1.0000
  C   C21       1.0  0.008290000000000002  0.22548000000000007  0.21499  1.0000
  C   C22       1.0  0.8553099999999999  0.17987  0.18165  1.0000
  H   H10       1.0  0.14611  0.21824000000000002  0.1896  1.0000
  H   H11       1.0  0.71556  0.18479000000000007  0.20623  1.0000
  C   C23       1.0  0.20551999999999995  0.7915  0.78329  1.0000
  C   C24       1.0  0.3650099999999999  0.8156600000000003  0.82005  1.0000
  H   H12       1.0  0.06889999999999998  0.82259  0.8035100000000001  1.0000
  H   H13       1.0  0.50299  0.78511  0.80158  1.0000
  C   C25       1.0  0.19981999999999994  0.72267  0.7160400000000001  1.0000
  C   C26       1.0  0.35776  0.68469  0.68031  1.0000
  H   H14       1.0  0.50074  0.7039200000000001  0.69966  1.0000
  C   C27       1.0  0.52311  0.8687900000000003  0.38333  1.0000
  H   H15       1.0  0.53074  0.8134699999999999  0.47345  1.0000
  H   H16       1.0  0.59118  0.9884200000000002  0.30101  1.0000
  H   H17       1.0  0.60339  0.9360700000000003  0.40535  1.0000
  C   C28       1.0  0.36827999999999994  0.7152400000000003  0.39645  1.0000
  C   C29       1.0  0.28573  0.69281  0.07588  1.0000
  C   C30       1.0  0.26429  0.61781  0.11167000000000002  1.0000
  C   C31       1.0  0.2973299999999999  0.63812  0.18018  1.0000
  C   C32       1.0  0.3487099999999999  0.7355500000000003  0.21535000000000004  1.0000
  C   C33       1.0  0.38909  0.8104200000000003  0.17747  1.0000
  C   C34       1.0  0.3720699999999999  0.75919  0.28646  1.0000
  C   C35       1.0  0.47099  0.8490900000000002  0.31584  1.0000
  C   C36       1.0  0.51785  0.9193  0.27799  1.0000
  C   C37       1.0  0.4669  0.9042000000000002  0.21092000000000002  1.0000
  C   C38       1.0  0.30242000000000013  0.69761  0.33019  1.0000
  C   C39       1.0  0.47912  0.8001700000000003  0.42247  1.0000
  C   C40       1.0  0.35054999999999986  0.7882600000000002  0.10739000000000001  1.0000
  H   H18       1.0  0.2557400000000001  0.67569  0.02272  1.0000
  H   H19       1.0  0.29029999999999995  0.57478  0.20373  1.0000
  H   H20       1.0  0.22245  0.54298  0.08606  1.0000
  O   O11       1.0  0.20322999999999997  0.9173100000000002  0.91502  1.0000
  O   O12       1.0  0.5354999999999999  0.8886900000000001  0.04804  1.0000
  O   O13       1.0  0.7110799999999999  0.08261000000000003  0.085  1.0000
  C   C41       1.0  0.3653899999999999  0.8634600000000002  0.0659  1.0000
  O   O14       1.0  0.53263  0.90537  0.91323  1.0000
  O   O15       1.0  0.7081899999999999  0.09941000000000005  0.94923  1.0000
  C   C42       1.0  0.36508  0.88422  0.88656  1.0000
  O   O16       1.0  0.20612  0.9005100000000003  0.05079000000000001  1.0000
  O   O17       1.0  0.37536  0.06357  0.01199  1.0000
  V   V3        1.0  0.6481699999999998  0.9882000000000003  0.99778  1.0000
  O   O18       1.0  0.038239999999999996  0.11139000000000003  0.9519400000000001  1.0000
  C   C43       1.0  0.8710099999999998  0.13715000000000002  0.9345800000000001  1.0000
  O   O19       1.0  0.04112  0.09471000000000002  0.08675  1.0000
  C   C44       1.0  0.8713099999999999  0.11612  0.11339999999999999  1.0000
  V   V4        1.0  0.14881  0.011930000000000001  0.00218  1.0000
  O   O20       1.0  0.87175  0.93643  0.9880100000000002  1.0000
  F   F1        1.0  0.02133  0.69918  0.69035  1.0000
  O   O21       1.0  0.17234000000000002  0.6199400000000003  0.30974  1.0000
  C   C45       1.0  0.9855999999999998  0.6600700000000003  0.31373  1.0000
  H   H21       1.0  0.96879  0.71118  0.27849  1.0000
  H   H22       1.0  0.9490299999999998  0.6997300000000002  0.36572000000000005  1.0000
  H   H23       1.0  0.88055  0.59755  0.29928  1.0000
  O   O22       1.0  0.51109  0.9791  0.17730000000000004  1.0000
  C   C46       1.0  0.37589  0.05603000000000002  0.19591  1.0000
  H   H24       1.0  0.3979899999999999  0.09725000000000003  0.24835  1.0000
  H   H25       1.0  0.22525999999999993  0.026929999999999992  0.18921  1.0000
  H   H26       1.0  0.39743  0.10987000000000002  0.16286  1.0000
  O   O23       1.0  0.15352  0.26189000000000007  0.32775  1.0000
  C   C47       1.0  0.31827  0.3141200000000001  0.31267  1.0000
  H   H27       1.0  0.3703  0.28715000000000007  0.26052  1.0000
  H   H28       1.0  0.43393  0.29906  0.34551  1.0000
  H   H29       1.0  0.29393  0.39632  0.32299  1.0000
