data_image0
_chemical_formula_structural       C100Cl24Cr12F28O52
_chemical_formula_sum              "C100 Cl24 Cr12 F28 O52"
_cell_length_a       18.98934
_cell_length_b       10.99307
_cell_length_c       18.822150000000004
_cell_angle_alpha    89.50718
_cell_angle_beta     91.38275
_cell_angle_gamma    88.95879

_space_group_name_H-M_alt    "P 1"
_space_group_IT_number       1

loop_
  _space_group_symop_operation_xyz
  'x, y, z'

loop_
  _atom_site_type_symbol
  _atom_site_label
  _atom_site_symmetry_multiplicity
  _atom_site_fract_x
  _atom_site_fract_y
  _atom_site_fract_z
  _atom_site_occupancy
  C   C1        1.0  0.27165  0.04404000000000001  0.8525699999999999  1.0000
  C   C2        1.0  0.6951299999999999  0.54225  0.03386  1.0000
  C   C3        1.0  0.9999399999999999  0.32695  0.07284  1.0000
  C   C4        1.0  0.8065999999999999  0.04159999999999999  0.9655899999999998  1.0000
  C   C5        1.0  0.19512999999999997  0.04225  0.03386  1.0000
  C   C6        1.0  0.29758  0.5294299999999998  0.03831  1.0000
  C   C7        1.0  0.6988699999999998  0.52974  0.96039  1.0000
  C   C8        1.0  0.79758  0.02943  0.03831  1.0000
  C   C9        1.0  0.19887  0.02974  0.96039  1.0000
  C   C10       1.0  0.23487  0.56683  0.06919  1.0000
  C   C11       1.0  0.75195  0.58766  0.92279  1.0000
  C   C12       1.0  0.73487  0.06683  0.06919  1.0000
  C   C13       1.0  0.72455  0.03812  0.14411  1.0000
  C   C14       1.0  0.25195  0.08766  0.92279  1.0000
  C   C15       1.0  0.17775  0.61123  0.02533  1.0000
  C   C16       1.0  0.79811  0.66577  0.95872  1.0000
  C   C17       1.0  0.6777499999999999  0.11123  0.02533  1.0000
  C   C18       1.0  0.29811  0.16577  0.95872  1.0000
  C   C19       1.0  0.18349  0.60754  0.9519999999999998  1.0000
  C   C20       1.0  0.80051  0.6675399999999999  0.03218  1.0000
  C   C21       1.0  0.68349  0.10754  0.9519999999999998  1.0000
  C   C22       1.0  0.30051  0.16753999999999997  0.03218  1.0000
  C   C23       1.0  0.24935  0.58277  0.9216599999999999  1.0000
  C   C24       1.0  0.77165  0.54404  0.8525699999999999  1.0000
  C   C25       1.0  0.74699  0.60918  0.07127  1.0000
  C   C26       1.0  0.74935  0.08276999999999998  0.9216599999999999  1.0000
  C   C27       1.0  0.24699  0.10918  0.07127  1.0000
  C   C28       1.0  0.54031  0.72321  0.55313  1.0000
  C   C29       1.0  0.5516399999999999  0.71692  0.48033999999999993  1.0000
  C   C30       1.0  0.04031  0.22321  0.55313  1.0000
  C   C31       1.0  0.051640000000000005  0.21692  0.48033999999999993  1.0000
  C   C32       1.0  0.54391  0.82324  0.4373  1.0000
  C   C33       1.0  0.51104  0.83047  0.5820099999999999  1.0000
  C   C34       1.0  0.043910000000000005  0.32324  0.4373  1.0000
  C   C35       1.0  0.22455  0.53812  0.14411  1.0000
  C   C36       1.0  0.011039999999999998  0.33047  0.5820099999999999  1.0000
  C   C37       1.0  0.52512  0.9343199999999999  0.46927  1.0000
  C   C38       1.0  0.50699  0.93714  0.54039  1.0000
  C   C39       1.0  0.025119999999999993  0.43432  0.46927  1.0000
  C   C40       1.0  0.006989999999999999  0.43714  0.54039  1.0000
  C   C41       1.0  0.43616  0.81715  0.8617  1.0000
  C   C42       1.0  0.5292  0.82185  0.14506  1.0000
  C   C43       1.0  0.9361599999999999  0.31715  0.8617  1.0000
  C   C44       1.0  0.029199999999999997  0.32185  0.14506  1.0000
  C   C45       1.0  0.20962999999999996  0.6935  0.52369  1.0000
  C   C46       1.0  0.50962  0.73808  0.9726  1.0000
  C   C47       1.0  0.72658  0.7022099999999999  0.47686999999999996  1.0000
  C   C48       1.0  0.70963  0.1935  0.52369  1.0000
  C   C49       1.0  0.22658  0.20221  0.47686999999999996  1.0000
  C   C50       1.0  0.21128999999999998  0.6877899999999999  0.45094999999999996  1.0000
  C   C51       1.0  0.73262  0.6815999999999999  0.54929  1.0000
  C   C52       1.0  0.7112899999999999  0.18779  0.45094999999999996  1.0000
  C   C53       1.0  0.23261999999999997  0.18160000000000004  0.54929  1.0000
  C   C54       1.0  0.25325  0.5975599999999999  0.41964  1.0000
  C   C55       1.0  0.75911  0.56907  0.57294  1.0000
  C   C56       1.0  0.7532499999999998  0.09755999999999998  0.41964  1.0000
  C   C57       1.0  0.46369  0.71965  0.03749  1.0000
  C   C58       1.0  0.25911  0.06907  0.57294  1.0000
  C   C59       1.0  0.30357  0.5308499999999999  0.46099999999999997  1.0000
  C   C60       1.0  0.7841  0.48108  0.52554  1.0000
  C   C61       1.0  0.80357  0.03085  0.46099999999999997  1.0000
  C   C62       1.0  0.2841  0.9810799999999997  0.52554  1.0000
  C   C63       1.0  0.30418  0.54087  0.53408  1.0000
  C   C64       1.0  0.77772  0.50186  0.45332  1.0000
  C   C65       1.0  0.80418  0.04087  0.53408  1.0000
  C   C66       1.0  0.27772  0.0018599999999999999  0.45332  1.0000
  C   C67       1.0  0.25528  0.61843  0.5660499999999999  1.0000
  C   C68       1.0  0.009619999999999997  0.23807999999999999  0.9726  1.0000
  C   C69       1.0  0.74675  0.6104  0.42959  1.0000
  C   C70       1.0  0.75528  0.11843000000000001  0.5660499999999999  1.0000
  C   C71       1.0  0.24674999999999997  0.11039999999999998  0.42959  1.0000
  C   C72       1.0  0.26068  0.63385  0.85097  1.0000
  C   C73       1.0  0.73845  0.64137  0.14646999999999996  1.0000
  C   C74       1.0  0.76068  0.13385  0.85097  1.0000
  C   C75       1.0  0.23844  0.14137  0.14646999999999996  1.0000
  C   C76       1.0  0.27167  0.04508  0.6462299999999999  1.0000
  C   C77       1.0  0.7302  0.04931999999999999  0.35203  1.0000
  C   C78       1.0  0.77167  0.54508  0.6462299999999999  1.0000
  C   C79       1.0  0.9636899999999999  0.21964999999999998  0.03749  1.0000
  C   C80       1.0  0.23019999999999993  0.54932  0.35203  1.0000
  C   C81       1.0  0.47252  0.82324  0.6487  1.0000
  C   C82       1.0  0.5598099999999999  0.8183799999999999  0.36099  1.0000
  C   C83       1.0  0.9725199999999999  0.32324  0.6487  1.0000
  C   C84       1.0  0.05980999999999999  0.31837999999999994  0.36099  1.0000
  C   C85       1.0  0.26127  0.6430399999999998  0.64117  1.0000
  C   C86       1.0  0.7404299999999999  0.6375699999999999  0.35597999999999996  1.0000
  C   C87       1.0  0.76128  0.14303999999999997  0.64117  1.0000
  C   C88       1.0  0.24042999999999998  0.13757  0.35597999999999996  1.0000
  C   C89       1.0  0.44367999999999996  0.9126999999999998  0.04122  1.0000
  C   C90       1.0  0.30659999999999993  0.5416  0.9655899999999998  1.0000
  C   C91       1.0  0.48875  0.93323  0.9755699999999999  1.0000
  C   C92       1.0  0.94368  0.41269999999999996  0.04122  1.0000
  C   C93       1.0  0.9887499999999999  0.43323  0.9755699999999999  1.0000
  C   C94       1.0  0.40668  0.8063399999999998  0.00446  1.0000
  C   C95       1.0  0.54598  0.8459299999999998  0.00788  1.0000
  C   C96       1.0  0.9066799999999999  0.30634  0.00446  1.0000
  C   C97       1.0  0.04598  0.34593  0.00788  1.0000
  C   C98       1.0  0.4532  0.82507  0.93895  1.0000
  C   C99       1.0  0.49994  0.8269499999999999  0.07284  1.0000
  C   C100      1.0  0.9531999999999999  0.32507  0.93895  1.0000
  Cl  Cl1       1.0  0.31365  0.8130399999999999  0.00644  1.0000
  Cl  Cl2       1.0  0.62625  0.46644  0.07609  1.0000
  Cl  Cl3       1.0  0.8934099999999999  0.02258  0.9353799999999999  1.0000
  Cl  Cl4       1.0  0.12625  0.9664399999999997  0.07609  1.0000
  Cl  Cl5       1.0  0.09566  0.6649699999999998  0.05796  1.0000
  Cl  Cl6       1.0  0.8566  0.7601599999999998  0.91276  1.0000
  Cl  Cl7       1.0  0.59566  0.16496999999999998  0.05796  1.0000
  Cl  Cl8       1.0  0.3566  0.26016  0.91276  1.0000
  Cl  Cl9       1.0  0.1067  0.63681  0.8984  1.0000
  Cl  Cl10      1.0  0.8754399999999999  0.73978  0.07103  1.0000
  Cl  Cl11      1.0  0.6067  0.13681  0.8984  1.0000
  Cl  Cl12      1.0  0.63922  0.84398  0.00771  1.0000
  Cl  Cl13      1.0  0.37544  0.23978  0.07103  1.0000
  Cl  Cl14      1.0  0.56433  0.59474  0.6072  1.0000
  Cl  Cl15      1.0  0.57332  0.57179  0.44565999999999995  1.0000
  Cl  Cl16      1.0  0.06433  0.09473999999999999  0.6072  1.0000
  Cl  Cl17      1.0  0.07332  0.07179  0.44565999999999995  1.0000
  Cl  Cl18      1.0  0.81365  0.31304  0.00644  1.0000
  Cl  Cl19      1.0  0.13922  0.34397999999999995  0.00771  1.0000
  Cl  Cl20      1.0  0.15741999999999998  0.79297  0.40145  1.0000
  Cl  Cl21      1.0  0.70918  0.79759  0.6089099999999998  1.0000
  Cl  Cl22      1.0  0.65742  0.29296  0.40145  1.0000
  Cl  Cl23      1.0  0.20917999999999995  0.29759  0.6089099999999998  1.0000
  Cl  Cl24      1.0  0.39341  0.52258  0.9353799999999999  1.0000
  Cr  Cr1       1.0  0.22963  0.8358999999999998  0.7473499999999998  1.0000
  Cr  Cr2       1.0  0.6142  0.67712  0.25066  1.0000
  Cr  Cr3       1.0  0.8858  0.17712  0.74934  1.0000
  Cr  Cr4       1.0  0.1142  0.17712  0.25066  1.0000
  Cr  Cr5       1.0  0.77037  0.8358999999999998  0.25265  1.0000
  Cr  Cr6       1.0  0.7296299999999999  0.3359  0.7473499999999998  1.0000
  Cr  Cr7       1.0  0.27037  0.3359  0.25265  1.0000
  Cr  Cr8       1.0  0.38741  0.9898499999999999  0.75085  1.0000
  Cr  Cr9       1.0  0.61259  0.9898499999999999  0.24914999999999998  1.0000
  Cr  Cr10      1.0  0.88741  0.48985  0.75085  1.0000
  Cr  Cr11      1.0  0.11259  0.48985  0.24914999999999998  1.0000
  Cr  Cr12      1.0  0.3858  0.67712  0.74934  1.0000
  F   F1        1.0  0.16496  0.77706  0.55214  1.0000
  F   F2        1.0  0.8036899999999999  0.41938  0.40698  1.0000
  F   F3        1.0  0.8511299999999999  0.9722799999999999  0.57342  1.0000
  F   F4        1.0  0.30369  0.9193799999999999  0.40698  1.0000
  F   F5        1.0  0.41097999999999996  0.99727  0.08296  1.0000
  F   F6        1.0  0.48871999999999993  0.04858999999999999  0.94731  1.0000
  F   F7        1.0  0.9109799999999999  0.49727  0.08296  1.0000
  F   F8        1.0  0.98872  0.5485899999999999  0.94731  1.0000
  F   F9        1.0  0.54479  0.6449699999999999  0.9385  1.0000
  F   F10       1.0  0.45728  0.60914  0.07132  1.0000
  F   F11       1.0  0.04479  0.14497  0.9385  1.0000
  F   F12       1.0  0.70199  0.8117499999999999  0.45215  1.0000
  F   F13       1.0  0.95728  0.10914000000000001  0.07132  1.0000
  F   F14       1.0  0.3521  0.48965  0.08026  1.0000
  F   F15       1.0  0.65229  0.45638999999999996  0.92646  1.0000
  F   F16       1.0  0.8520999999999999  0.98965  0.08026  1.0000
  F   F17       1.0  0.1523  0.95639  0.92646  1.0000
  F   F18       1.0  0.52016  0.03977  0.43122  1.0000
  F   F19       1.0  0.48229999999999995  0.04351  0.56726  1.0000
  F   F20       1.0  0.02016  0.53977  0.43122  1.0000
  F   F21       1.0  0.9823  0.54351  0.56726  1.0000
  F   F22       1.0  0.66496  0.27704999999999996  0.55214  1.0000
  F   F23       1.0  0.20199  0.31174  0.45215  1.0000
  F   F24       1.0  0.34868999999999994  0.4493599999999999  0.43161  1.0000
  F   F25       1.0  0.81812  0.3785899999999999  0.54978  1.0000
  F   F26       1.0  0.84869  0.94936  0.43161  1.0000
  F   F27       1.0  0.31812  0.87859  0.54978  1.0000
  F   F28       1.0  0.35112999999999994  0.47228999999999993  0.57342  1.0000
  O   O1        1.0  0.21427  0.7089999999999999  0.82747  1.0000
  O   O2        1.0  0.54327  0.71763  0.33016  1.0000
  O   O3        1.0  0.95673  0.21762999999999996  0.66984  1.0000
  O   O4        1.0  0.04327000000000001  0.21762999999999996  0.33016  1.0000
  O   O5        1.0  0.32062  0.6256399999999999  0.67292  1.0000
  O   O6        1.0  0.67938  0.6256399999999999  0.32708  1.0000
  O   O7        1.0  0.82062  0.12564  0.67292  1.0000
  O   O8        1.0  0.17938  0.12564  0.32708  1.0000
  O   O9        1.0  0.33428  0.8342899999999999  0.74918  1.0000
  O   O10       1.0  0.66572  0.8342899999999999  0.25082  1.0000
  O   O11       1.0  0.83428  0.33429  0.74918  1.0000
  O   O12       1.0  0.7857299999999998  0.7089999999999999  0.17253  1.0000
  O   O13       1.0  0.16571999999999998  0.33429  0.25082  1.0000
  O   O14       1.0  0.23616  0.9584899999999998  0.8231299999999998  1.0000
  O   O15       1.0  0.76384  0.9584899999999998  0.17687  1.0000
  O   O16       1.0  0.73616  0.45849  0.8231299999999998  1.0000
  O   O17       1.0  0.26384  0.45849  0.17687  1.0000
  O   O18       1.0  0.33208  0.07547  0.83128  1.0000
  O   O19       1.0  0.66792  0.07547  0.16872  1.0000
  O   O20       1.0  0.83208  0.57547  0.83128  1.0000
  O   O21       1.0  0.16792  0.57547  0.16872  1.0000
  O   O22       1.0  0.4463  0.91811  0.82662  1.0000
  O   O23       1.0  0.71427  0.20899999999999996  0.82747  1.0000
  O   O24       1.0  0.5537  0.91811  0.17338  1.0000
  O   O25       1.0  0.9463  0.41810999999999987  0.82662  1.0000
  O   O26       1.0  0.05369999999999999  0.41810999999999987  0.17338  1.0000
  O   O27       1.0  0.45711  0.7162  0.83176  1.0000
  O   O28       1.0  0.54289  0.7162  0.16824  1.0000
  O   O29       1.0  0.9571099999999999  0.2162  0.83176  1.0000
  O   O30       1.0  0.04289  0.2162  0.16824  1.0000
  O   O31       1.0  0.32097999999999993  0.62431  0.82303  1.0000
  O   O32       1.0  0.67902  0.62431  0.17697  1.0000
  O   O33       1.0  0.82098  0.12430999999999999  0.82303  1.0000
  O   O34       1.0  0.28573  0.20899999999999996  0.17253  1.0000
  O   O35       1.0  0.17902  0.12430999999999999  0.17697  1.0000
  O   O36       1.0  0.21389  0.71043  0.66554  1.0000
  O   O37       1.0  0.7861099999999999  0.71043  0.33446  1.0000
  O   O38       1.0  0.71389  0.21043  0.66554  1.0000
  O   O39       1.0  0.28611  0.21043  0.33446  1.0000
  O   O40       1.0  0.23581  0.95982  0.67302  1.0000
  O   O41       1.0  0.76419  0.95982  0.32698  1.0000
  O   O42       1.0  0.73581  0.45982  0.67302  1.0000
  O   O43       1.0  0.26419  0.45982  0.32698  1.0000
  O   O44       1.0  0.3317  0.0769  0.66935  1.0000
  O   O45       1.0  0.44594999999999996  0.9194399999999999  0.67652  1.0000
  O   O46       1.0  0.6683  0.0769  0.33065  1.0000
  O   O47       1.0  0.8317  0.5769  0.66935  1.0000
  O   O48       1.0  0.16829999999999998  0.5769  0.33065  1.0000
  O   O49       1.0  0.55405  0.9194399999999999  0.32348  1.0000
  O   O50       1.0  0.94595  0.41943999999999987  0.67652  1.0000
  O   O51       1.0  0.05405  0.41943999999999987  0.32348  1.0000
  O   O52       1.0  0.45672999999999997  0.7176299999999999  0.66984  1.0000
