data_image0
_chemical_formula_structural       O8H4C4O8C4O4V4C4H4C32H4OHOHOHOH
_chemical_formula_sum              "O24 H16 C44 V4"
_cell_length_a       16.5962
_cell_length_b       7.2538599999999995
_cell_length_c       15.20155
_cell_angle_alpha    90.00037
_cell_angle_beta     94.73732
_cell_angle_gamma    89.99914

_symmetry_space_group_name_H-M    'P 1'
_symmetry_Int_Tables_number       1

loop_
  _symmetry_equiv_pos_as_xyz
  'x,y,z'

loop_
  _atom_site_type_symbol
  _atom_site_label
  _atom_site_symmetry_multiplicity
  _atom_site_fract_x
  _atom_site_fract_y
  _atom_site_fract_z
  _atom_site_occupancy
  O   O1        1.0  0.66346  0.3617599999999999  0.16597  1.0000
  O   O2        1.0  0.33653999999999995  0.6382399999999998  0.83403  1.0000
  O   O3        1.0  0.83654  0.8617599999999997  0.3340299999999999  1.0000
  O   O4        1.0  0.16346  0.13824  0.66597  1.0000
  O   O5        1.0  0.8271  0.6898699999999999  0.16373  1.0000
  O   O6        1.0  0.1729  0.31013  0.83627  1.0000
  O   O7        1.0  0.6729  0.18987  0.33626999999999996  1.0000
  O   O8        1.0  0.3271  0.81013  0.66373  1.0000
  H   H1        1.0  0.20669  0.11942999999999997  0.50636  1.0000
  H   H2        1.0  0.79331  0.88057  0.49364  1.0000
  H   H3        1.0  0.29337  0.6199799999999999  0.99355  1.0000
  H   H4        1.0  0.70663  0.38002  0.00645  1.0000
  C   C1        1.0  0.85328  0.52292  0.14357  1.0000
  C   C2        1.0  0.14671999999999996  0.47708  0.8564299999999999  1.0000
  C   C3        1.0  0.64672  0.02293  0.35643  1.0000
  C   C4        1.0  0.35328  0.97707  0.64357  1.0000
  O   O9        1.0  0.66349  0.69137  0.1555  1.0000
  O   O10       1.0  0.33651  0.30863  0.8445  1.0000
  O   O11       1.0  0.83651  0.19136999999999996  0.34449999999999986  1.0000
  O   O12       1.0  0.16349  0.8086299999999998  0.6555  1.0000
  O   O13       1.0  0.67177  0.86332  0.32574  1.0000
  O   O14       1.0  0.32823  0.13668  0.67426  1.0000
  O   O15       1.0  0.82823  0.36331999999999987  0.17426  1.0000
  O   O16       1.0  0.17176999999999998  0.6366799999999998  0.82574  1.0000
  C   C5        1.0  0.6362  0.52288  0.13369  1.0000
  C   C6        1.0  0.36379999999999996  0.47712  0.8663099999999999  1.0000
  C   C7        1.0  0.8638  0.022879999999999998  0.36631  1.0000
  C   C8        1.0  0.13619999999999996  0.97712  0.63369  1.0000
  O   O17       1.0  0.75291  0.5288  0.30586  1.0000
  O   O18       1.0  0.24708999999999998  0.4712  0.69414  1.0000
  O   O19       1.0  0.74709  0.028799999999999992  0.19414  1.0000
  O   O20       1.0  0.25291  0.9712  0.80586  1.0000
  V   V1        1.0  0.7494599999999998  0.8030099999999998  0.23964  1.0000
  V   V2        1.0  0.25054  0.19698999999999994  0.76036  1.0000
  V   V3        1.0  0.75054  0.30301  0.26036  1.0000
  V   V4        1.0  0.24945999999999996  0.69699  0.7396399999999997  1.0000
  C   C9        1.0  0.46883  0.9948  0.53012  1.0000
  C   C10       1.0  0.5311699999999998  0.0052  0.4698799999999999  1.0000
  C   C11       1.0  0.031169999999999982  0.4947999999999999  0.96988  1.0000
  C   C12       1.0  0.9688299999999999  0.5052  0.03012  1.0000
  H   H5        1.0  0.77607  0.74689  0.63617  1.0000
  H   H6        1.0  0.22393  0.25311  0.36383  1.0000
  H   H7        1.0  0.7238  0.24577  0.86403  1.0000
  H   H8        1.0  0.2762  0.7542299999999997  0.13597  1.0000
  C   C13       1.0  0.02317  0.1558  0.33294  1.0000
  C   C14       1.0  0.9768400000000002  0.8441999999999997  0.66706  1.0000
  C   C15       1.0  0.4769  0.6563999999999998  0.16694999999999993  1.0000
  C   C16       1.0  0.5231  0.34359  0.83305  1.0000
  C   C17       1.0  0.09904999999999996  0.21958999999999995  0.31359  1.0000
  C   C18       1.0  0.90095  0.78041  0.68641  1.0000
  C   C19       1.0  0.4010499999999999  0.72052  0.18624  1.0000
  C   C20       1.0  0.59895  0.27948  0.81376  1.0000
  C   C21       1.0  0.16439  0.20574999999999993  0.3777  1.0000
  C   C22       1.0  0.8356099999999997  0.79425  0.6223  1.0000
  C   C23       1.0  0.33571  0.7066499999999999  0.12213999999999997  1.0000
  C   C24       1.0  0.66429  0.29335  0.8778599999999999  1.0000
  C   C25       1.0  0.1538  0.12939  0.46002  1.0000
  C   C26       1.0  0.8462  0.87061  0.53999  1.0000
  C   C27       1.0  0.3462599999999999  0.62997  0.03988  1.0000
  C   C28       1.0  0.65374  0.37003  0.96012  1.0000
  C   C29       1.0  0.07718999999999997  0.06599  0.48129  1.0000
  C   C30       1.0  0.92281  0.93401  0.51871  1.0000
  C   C31       1.0  0.42285  0.56628  0.01865  1.0000
  C   C32       1.0  0.57715  0.43372  0.98135  1.0000
  C   C33       1.0  0.010460000000000002  0.07929  0.41638  1.0000
  C   C34       1.0  0.98954  0.92071  0.5836199999999999  1.0000
  C   C35       1.0  0.48957  0.5795899999999998  0.08356  1.0000
  C   C36       1.0  0.51043  0.4204099999999999  0.91644  1.0000
  C   C37       1.0  0.06685  0.98686  0.56502  1.0000
  C   C38       1.0  0.93315  0.01314  0.43498  1.0000
  C   C39       1.0  0.43315  0.48685  0.9349799999999999  1.0000
  C   C40       1.0  0.56685  0.51315  0.06502  1.0000
  C   C41       1.0  0.41601  0.98624  0.58147  1.0000
  C   C42       1.0  0.58399  0.01376  0.41853  1.0000
  C   C43       1.0  0.08398999999999998  0.48624  0.9185299999999997  1.0000
  C   C44       1.0  0.91601  0.51376  0.08147  1.0000
  H   H9        1.0  0.97456  0.16619  0.28120999999999996  1.0000
  H   H10       1.0  0.025440000000000008  0.8338099999999998  0.71879  1.0000
  H   H11       1.0  0.5255  0.66679  0.21869  1.0000
  H   H12       1.0  0.4745  0.33321  0.78131  1.0000
  O   O21       1.0  0.10737  0.29354  0.23122  1.0000
  H   H13       1.0  0.16437  0.33215  0.22788999999999995  1.0000
  O   O22       1.0  0.89263  0.70646  0.7687899999999998  1.0000
  H   H14       1.0  0.83563  0.66785  0.77211  1.0000
  O   O23       1.0  0.39277  0.79481  0.26856  1.0000
  H   H15       1.0  0.3358  0.8337199999999998  0.27183  1.0000
  O   O24       1.0  0.60723  0.20519  0.73144  1.0000
  H   H16       1.0  0.6642  0.16628  0.72817  1.0000
