data_image0
_chemical_formula_structural       C42Cr6H11O26CNFCNF4
_chemical_formula_sum              "C44 Cr6 H11 O26 N2 F5"
_cell_length_a       10.63253
_cell_length_b       10.66021
_cell_length_c       16.95665
_cell_angle_alpha    80.85699
_cell_angle_beta     99.02003
_cell_angle_gamma    118.28051

_symmetry_space_group_name_H-M    'P 1'
_symmetry_Int_Tables_number       1

loop_
  _symmetry_equiv_pos_as_xyz
  'x,y,z'

loop_
  _atom_site_type_symbol
  _atom_site_label
  _atom_site_symmetry_multiplicity
  _atom_site_fract_x
  _atom_site_fract_y
  _atom_site_fract_z
  _atom_site_occupancy
  C   C1        1.0  0.3844099999999999  0.28527  0.63195  1.0000
  C   C2        1.0  0.51541  0.70575  0.73589  1.0000
  C   C3        1.0  0.49426  0.7208499999999999  0.81253  1.0000
  C   C4        1.0  0.09447999999999998  0.50334  0.76942  1.0000
  C   C5        1.0  0.11870999999999994  0.48427000000000003  0.6872999999999998  1.0000
  C   C6        1.0  0.39882  0.61715  0.6857299999999997  1.0000
  C   C7        1.0  0.8232499999999999  0.65716  0.7058799999999997  1.0000
  C   C8        1.0  0.8501  0.6845400000000001  0.7738899999999997  1.0000
  C   C9        1.0  0.36504  0.23548999999999998  0.71454  1.0000
  C   C10       1.0  0.33408999999999994  0.18841000000000002  0.7818999999999998  1.0000
  C   C11       1.0  0.33600999999999986  0.66361  0.2776999999999999  1.0000
  C   C12       1.0  0.41378  0.61995  0.60153  1.0000
  C   C13       1.0  0.32332  0.67268  0.20681  1.0000
  C   C14       1.0  0.79311  0.64515  0.14793  1.0000
  C   C15       1.0  0.77396  0.51895  0.19680999999999996  1.0000
  C   C16       1.0  0.74163  0.49981  0.27432  1.0000
  C   C17       1.0  0.70666  0.71108  0.25054  1.0000
  C   C18       1.0  0.74358  0.73285  0.17174999999999996  1.0000
  C   C19       1.0  0.87146  0.44971  0.21885  1.0000
  C   C20       1.0  0.8402899999999999  0.43436  0.30509  1.0000
  C   C21       1.0  0.71845  0.60042  0.30463  1.0000
  C   C22       1.0  0.26051  0.04973  0.18053  1.0000
  C   C23       1.0  0.77798  0.6195799999999998  0.62659  1.0000
  C   C24       1.0  0.15221  0.05453  0.21488  1.0000
  C   C25       1.0  0.17559  0.094  0.2912399999999999  1.0000
  C   C26       1.0  0.40694  0.09852  0.30866  1.0000
  C   C27       1.0  0.3821399999999999  0.05627  0.23101999999999995  1.0000
  C   C28       1.0  0.06395999999999999  0.13077000000000003  0.18512999999999993  1.0000
  C   C29       1.0  0.08826999999999999  0.17327000000000004  0.26912999999999987  1.0000
  C   C30       1.0  0.30927999999999994  0.1322  0.3357499999999999  1.0000
  C   C31       1.0  0.8904  0.70147  0.85614  1.0000
  C   C32       1.0  0.3168099999999999  0.7053699999999999  0.89902  1.0000
  C   C33       1.0  0.28689999999999993  0.11929000000000001  0.8586299999999998  1.0000
  C   C34       1.0  0.34966  0.22252000000000005  0.40075  1.0000
  C   C35       1.0  0.88115  0.68809  0.08165999999999997  1.0000
  C   C36       1.0  0.31312999999999996  0.7004099999999999  0.12361999999999998  1.0000
  C   C37       1.0  0.24544  0.03689  0.09491  1.0000
  C   C38       1.0  0.36572999999999994  0.6539899999999998  0.36078  1.0000
  C   C39       1.0  0.70151  0.58352  0.3896  1.0000
  C   C40       1.0  0.35450000000000004  0.64952  0.83817  1.0000
  C   C41       1.0  0.2482199999999999  0.53999  0.79438  1.0000
  C   C42       1.0  0.2704599999999999  0.5233899999999999  0.7195  1.0000
  Cr  Cr1       1.0  0.6084399999999999  0.38908  0.5196799999999998  1.0000
  Cr  Cr2       1.0  0.2886399999999999  0.40009  0.49076  1.0000
  Cr  Cr3       1.0  0.60294  0.7108  0.48950999999999995  1.0000
  Cr  Cr4       1.0  0.05253000000000002  0.94756  0.96421  1.0000
  Cr  Cr5       1.0  0.0599699999999999  0.6267999999999999  0.9929199999999999  1.0000
  Cr  Cr6       1.0  0.3733199999999999  0.93844  0.9953699999999999  1.0000
  H   H1        1.0  0.6196499999999999  0.7715699999999999  0.7137  1.0000
  H   H2        1.0  0.50723  0.11741999999999998  0.34381999999999996  1.0000
  H   H3        1.0  0.4637599999999999  0.041749999999999995  0.20854  1.0000
  H   H4        1.0  0.95069  0.05672  0.16739  1.0000
  H   H5        1.0  0.11587999999999998  0.22450999999999996  0.14082  1.0000
  H   H6        1.0  0.14959  0.29087  0.27265  1.0000
  H   H7        1.0  0.07211999999999998  0.5953  0.76879  1.0000
  H   H8        1.0  0.019919999999999962  0.4017599999999999  0.80174  1.0000
  H   H9        1.0  0.058849999999999986  0.37146  0.67241  1.0000
  H   H10       1.0  0.10928000000000003  0.5646300000000001  0.6394299999999998  1.0000
  H   H11       1.0  0.9855099999999999  0.52179  0.20775  1.0000
  O   O1        1.0  0.7540199999999999  0.4975899999999999  0.60993  1.0000
  O   O2        1.0  0.29507999999999995  0.5336199999999999  0.39789  1.0000
  O   O3        1.0  0.48528  0.74662  0.38843999999999995  1.0000
  O   O4        1.0  0.7205499999999999  0.69622  0.42001  1.0000
  O   O5        1.0  0.50001  0.49999  0.49998  1.0000
  O   O6        1.0  0.16331999999999994  0.09289999999999997  0.87445  1.0000
  O   O7        1.0  0.9346499999999999  0.82208  0.8828399999999997  1.0000
  O   O8        1.0  0.91552  0.60414  0.89367  1.0000
  O   O9        1.0  0.19176  0.63811  0.92323  1.0000
  O   O10       1.0  0.40618  0.82693  0.92066  1.0000
  O   O11       1.0  0.35861999999999994  0.06287000000000001  0.90195  1.0000
  O   O12       1.0  0.48142  0.2713900000000001  0.6006299999999998  1.0000
  O   O13       1.0  0.16391  0.08546  0.05021  1.0000
  O   O14       1.0  0.9352  0.8151699999999998  0.04577  1.0000
  O   O15       1.0  0.9161199999999999  0.59669  0.06943  1.0000
  O   O16       1.0  0.19230999999999993  0.6312  0.08616999999999997  1.0000
  O   O17       1.0  0.40676999999999996  0.81948  0.09642  1.0000
  O   O18       1.0  0.35917  0.05596000000000002  0.06487999999999997  1.0000
  O   O19       1.0  0.16193999999999997  0.8375999999999997  0.98416  1.0000
  O   O20       1.0  0.26381  0.25454999999999994  0.58959  1.0000
  O   O21       1.0  0.30082  0.5312  0.56089  1.0000
  O   O22       1.0  0.4914799999999999  0.7440199999999999  0.56427  1.0000
  O   O23       1.0  0.72629  0.6938  0.58301  1.0000
  O   O24       1.0  0.7478299999999999  0.50019  0.43409  1.0000
  O   O25       1.0  0.47568  0.2738  0.43762999999999996  1.0000
  O   O26       1.0  0.25762  0.25716000000000006  0.41375  1.0000
  C   C43       1.0  0.81182  0.31272  0.18369  1.0000
  N   N1        1.0  0.76489  0.20515000000000003  0.15603  1.0000
  F   F1        1.0  0.7689400000000001  0.29479  0.33916  1.0000
  C   C44       1.0  0.9668799999999999  0.5250599999999999  0.35655  1.0000
  N   N2        1.0  0.06421999999999994  0.59745  0.3975199999999999  1.0000
  F   F2        1.0  0.96364  0.10756  0.30754  1.0000
  F   F3        1.0  0.6063599999999999  0.8171999999999998  0.85681  1.0000
  F   F4        1.0  0.67301  0.8055600000000002  0.2751299999999999  1.0000
  F   F5        1.0  0.74096  0.8443099999999999  0.12154999999999999  1.0000
