data_image0
_chemical_formula_structural       O4C2O4C2O2V2C2H4C26H8C2H2C2H2C4H2C2H2C2O4C2O4C2O2V2OCH2CH3OCH2CH3CHOCHO
_chemical_formula_sum              "O24 C54 V4 H32"
_cell_length_a       20.12222
_cell_length_b       7.261369999999999
_cell_length_c       13.81047
_cell_angle_alpha    89.99607
_cell_angle_beta     103.51318
_cell_angle_gamma    90.00334

_space_group_name_H-M_alt    "P 1"
_space_group_IT_number       1

loop_
  _space_group_symop_operation_xyz
  'x, y, z'

loop_
  _atom_site_type_symbol
  _atom_site_label
  _atom_site_symmetry_multiplicity
  _atom_site_fract_x
  _atom_site_fract_y
  _atom_site_fract_z
  _atom_site_occupancy
  O   O1        1.0  0.44956  0.50681  0.5996999999999999  1.0000
  O   O2        1.0  0.55044  0.006809999999999998  0.4003  1.0000
  O   O3        1.0  0.58796  0.18006  0.59576  1.0000
  O   O4        1.0  0.41204  0.6800599999999999  0.40424  1.0000
  C   C1        1.0  0.61554  0.3441099999999999  0.61553  1.0000
  C   C2        1.0  0.38446  0.84411  0.38447999999999993  1.0000
  O   O5        1.0  0.45238  0.17743  0.6117  1.0000
  O   O6        1.0  0.54762  0.67743  0.3883  1.0000
  O   O7        1.0  0.4139  0.001889999999999999  0.41635  1.0000
  O   O8        1.0  0.5861  0.50189  0.58365  1.0000
  C   C3        1.0  0.43666999999999995  0.34602999999999995  0.63668  1.0000
  C   C4        1.0  0.5633299999999998  0.8460499999999997  0.36331999999999987  1.0000
  O   O9        1.0  0.48753  0.3374899999999999  0.43589  1.0000
  O   O10       1.0  0.51247  0.8374899999999997  0.56411  1.0000
  V   V1        1.0  0.50231  0.06466  0.51189  1.0000
  V   V2        1.0  0.49769  0.56466  0.48811  1.0000
  C   C5        1.0  0.6022  0.9246399999999998  0.11614999999999998  1.0000
  C   C6        1.0  0.3978300000000001  0.4240699999999999  0.88389  1.0000
  H   H1        1.0  0.51156  0.93114  0.1719  1.0000
  H   H2        1.0  0.48846999999999996  0.4305499999999999  0.82816  1.0000
  H   H3        1.0  0.57373  0.9603399999999997  0.04187999999999999  1.0000
  H   H4        1.0  0.42631  0.4595099999999999  0.95819  1.0000
  C   C7        1.0  0.60056  0.8577599999999997  0.28559  1.0000
  C   C8        1.0  0.39943999999999996  0.3576799999999999  0.71441  1.0000
  C   C9        1.0  0.92717  0.8404899999999998  0.30721  1.0000
  C   C10       1.0  0.07282999999999999  0.3406199999999999  0.6927999999999999  1.0000
  C   C11       1.0  0.8923  0.82895  0.38218  1.0000
  C   C12       1.0  0.10768999999999998  0.32906  0.6178199999999999  1.0000
  C   C13       1.0  0.82141  0.8335499999999998  0.35958  1.0000
  C   C14       1.0  0.17858  0.33359  0.64042  1.0000
  C   C15       1.0  0.7826999999999998  0.8477499999999998  0.25988  1.0000
  C   C16       1.0  0.21729  0.3477399999999999  0.74012  1.0000
  C   C17       1.0  0.81826  0.85859  0.18148  1.0000
  C   C18       1.0  0.18174  0.3586099999999999  0.81852  1.0000
  C   C19       1.0  0.70978  0.85746  0.2369  1.0000
  C   C20       1.0  0.29022  0.3573799999999999  0.76309  1.0000
  C   C21       1.0  0.67338  0.89487  0.13786  1.0000
  C   C22       1.0  0.32664  0.3945299999999999  0.86215  1.0000
  C   C23       1.0  0.7075599999999999  0.8984499999999997  0.06071999999999999  1.0000
  C   C24       1.0  0.29246  0.39812  0.9393  1.0000
  C   C25       1.0  0.7788999999999999  0.87622  0.08130999999999998  1.0000
  C   C26       1.0  0.2211  0.3761899999999999  0.9187  1.0000
  C   C27       1.0  0.67129  0.83297  0.30949  1.0000
  C   C28       1.0  0.32870999999999995  0.33305  0.6904799999999999  1.0000
  C   C29       1.0  0.56626  0.90755  0.18981  1.0000
  C   C30       1.0  0.43376999999999993  0.4071199999999999  0.81023  1.0000
  C   C31       1.0  0.89179  0.85663  0.20772999999999997  1.0000
  C   C32       1.0  0.10819999999999999  0.35669  0.79227  1.0000
  H   H5        1.0  0.69426  0.7942  0.38521999999999995  1.0000
  H   H6        1.0  0.30573000000000006  0.29455  0.61472  1.0000
  H   H7        1.0  0.9825799999999999  0.8377299999999998  0.32705  1.0000
  H   H8        1.0  0.017420000000000026  0.3379  0.67296  1.0000
  H   H9        1.0  0.7987  0.83065  0.42278  1.0000
  H   H10       1.0  0.20129  0.3306199999999999  0.57721  1.0000
  H   H11       1.0  0.92056  0.8184399999999997  0.45899999999999996  1.0000
  H   H12       1.0  0.07943  0.31858  0.541  1.0000
  C   C33       1.0  0.22032999999999997  0.02212  0.21555  1.0000
  C   C34       1.0  0.77964  0.5221  0.78451  1.0000
  H   H13       1.0  0.20109999999999997  0.15316999999999995  0.18397  1.0000
  H   H14       1.0  0.7988799999999999  0.6531399999999999  0.8161  1.0000
  C   C35       1.0  0.28559  0.01745  0.27887  1.0000
  C   C36       1.0  0.71439  0.51743  0.7211999999999997  1.0000
  H   H15       1.0  0.3141  0.14461999999999994  0.29412  1.0000
  H   H16       1.0  0.68587  0.6445699999999999  0.70598  1.0000
  C   C37       1.0  0.31396  0.8506299999999998  0.32043  1.0000
  C   C38       1.0  0.68603  0.35061999999999993  0.67961  1.0000
  C   C39       1.0  0.27332999999999996  0.6906899999999998  0.30264  1.0000
  C   C40       1.0  0.7266699999999998  0.19069999999999995  0.6973699999999998  1.0000
  H   H17       1.0  0.29239999999999994  0.5607  0.33651  1.0000
  H   H18       1.0  0.70761  0.060729999999999985  0.66347  1.0000
  C   C41       1.0  0.2071  0.6967699999999998  0.24168999999999996  1.0000
  C   C42       1.0  0.7929  0.19679  0.75832  1.0000
  H   H19       1.0  0.17666  0.57226  0.23172  1.0000
  H   H20       1.0  0.8233499999999999  0.0723  0.76826  1.0000
  C   C43       1.0  0.18108  0.86045  0.19292  1.0000
  C   C44       1.0  0.8189099999999999  0.36043999999999987  0.80711  1.0000
  O   O11       1.0  0.91392  0.20337  0.9162599999999997  1.0000
  O   O12       1.0  0.08607999999999999  0.7033699999999998  0.08374  1.0000
  O   O13       1.0  0.04762000000000002  0.53554  0.88829  1.0000
  O   O14       1.0  0.95238  0.035539999999999995  0.11170999999999999  1.0000
  C   C45       1.0  0.06546999999999999  0.36809999999999987  0.8649  1.0000
  C   C46       1.0  0.9345299999999999  0.8680799999999997  0.1351  1.0000
  O   O15       1.0  0.9120399999999999  0.53278  0.9042199999999999  1.0000
  O   O16       1.0  0.08796  0.03278  0.09578  1.0000
  O   O17       1.0  0.9495499999999999  0.7081599999999998  0.09972  1.0000
  O   O18       1.0  0.050449999999999974  0.20815999999999996  0.90028  1.0000
  C   C47       1.0  0.88638  0.3648699999999999  0.8804399999999998  1.0000
  C   C48       1.0  0.11362  0.8648699999999998  0.11956999999999998  1.0000
  O   O19       1.0  0.012479999999999998  0.3753  0.06406  1.0000
  O   O20       1.0  0.9875199999999998  0.8752999999999997  0.93594  1.0000
  V   V3        1.0  0.99769  0.64818  0.9881099999999998  1.0000
  V   V4        1.0  0.00231  0.14818  0.01189  1.0000
  O   O21       1.0  0.6709999999999999  0.93046  0.9637599999999997  1.0000
  C   C49       1.0  0.64599  0.76124  0.91909  1.0000
  H   H21       1.0  0.6191599999999999  0.6793899999999999  0.9667  1.0000
  H   H22       1.0  0.6886399999999999  0.6774099999999998  0.90398  1.0000
  C   C50       1.0  0.59512  0.80007  0.82096  1.0000
  H   H23       1.0  0.61976  0.88339  0.77163  1.0000
  H   H24       1.0  0.5767999999999999  0.66841  0.78311  1.0000
  H   H25       1.0  0.5506099999999999  0.87729  0.83486  1.0000
  O   O22       1.0  0.32904999999999995  0.42983  0.03626  1.0000
  C   C51       1.0  0.35389  0.26039999999999996  0.08085  1.0000
  H   H26       1.0  0.38051  0.1782  0.03311  1.0000
  H   H27       1.0  0.31116  0.17705  0.09609999999999999  1.0000
  C   C52       1.0  0.40494  0.2987899999999999  0.17886  1.0000
  H   H28       1.0  0.38055  0.38266  0.22826  1.0000
  H   H29       1.0  0.4230499999999999  0.16698  0.21672  1.0000
  H   H30       1.0  0.44956  0.37527  0.16478999999999994  1.0000
  C   C53       1.0  0.80909  0.86648  0.9943899999999999  1.0000
  H   H31       1.0  0.83913  0.74863  0.9835499999999998  1.0000
  O   O23       1.0  0.79824  0.9882399999999998  0.93231  1.0000
  C   C54       1.0  0.1909  0.36693  0.00563  1.0000
  H   H32       1.0  0.16079  0.24929999999999994  0.01659  1.0000
  O   O24       1.0  0.20184999999999997  0.4888499999999999  0.0676  1.0000
