data_image0
_chemical_formula_structural       C30Cu2H2N2O8NHCH3NHCH3CNCN2HCH3NHCH3NHCH3NHCH3NHCH3NHCH3NHCH3NHCH3NHCH3NHCH3
_chemical_formula_sum              "C44 Cu2 H50 N16 O8"
_cell_length_a       10.99056
_cell_length_b       9.72773
_cell_length_c       15.05103
_cell_angle_alpha    90.67296
_cell_angle_beta     91.71247000000001
_cell_angle_gamma    90.24847

_symmetry_space_group_name_H-M    'P 1'
_symmetry_Int_Tables_number       1

loop_
  _symmetry_equiv_pos_as_xyz
  'x,y,z'

loop_
  _atom_site_type_symbol
  _atom_site_label
  _atom_site_symmetry_multiplicity
  _atom_site_fract_x
  _atom_site_fract_y
  _atom_site_fract_z
  _atom_site_occupancy
  C   C1        1.0  0.26264  0.49986  0.49727  1.0000
  C   C2        1.0  0.73738  0.50047  0.49797999999999987  1.0000
  C   C3        1.0  0.2788  0.52834  0.04344999999999999  1.0000
  C   C4        1.0  0.71274  0.44297  0.9568799999999997  1.0000
  C   C5        1.0  0.06241999999999999  0.37518  0.4955599999999999  1.0000
  C   C6        1.0  0.93758  0.62733  0.4901199999999999  1.0000
  C   C7        1.0  0.9354200000000001  0.37601  0.4884699999999999  1.0000
  C   C8        1.0  0.06421999999999999  0.6253800000000002  0.4822099999999999  1.0000
  C   C9        1.0  0.8718500000000001  0.50163  0.4935799999999999  1.0000
  C   C10       1.0  0.12818  0.50014  0.4921299999999999  1.0000
  C   C11       1.0  0.49124  0.07131  0.42206  1.0000
  C   C12       1.0  0.49825000000000014  0.92977  0.57781  1.0000
  C   C13       1.0  0.52327  0.07508  0.57686  1.0000
  C   C14       1.0  0.50708  0.92574  0.42243999999999987  1.0000
  C   C15       1.0  0.49755000000000005  0.49919  0.32983  1.0000
  C   C16       1.0  0.50084  0.50052  0.6703199999999998  1.0000
  C   C17       1.0  0.60672  0.4775400000000001  0.8149999999999997  1.0000
  C   C18       1.0  0.38815  0.51132  0.1859  1.0000
  C   C19       1.0  0.49816  0.50062  0.7669099999999998  1.0000
  C   C20       1.0  0.49841  0.4968  0.23346999999999996  1.0000
  C   C21       1.0  0.38693  0.51587  0.80949  1.0000
  C   C22       1.0  0.60824  0.47453  0.19052  1.0000
  C   C23       1.0  0.38461  0.51518  0.9038199999999997  1.0000
  C   C24       1.0  0.60972  0.47261  0.09635999999999997  1.0000
  C   C25       1.0  0.49571000000000004  0.49202000000000007  0.953  1.0000
  C   C26       1.0  0.4977500000000001  0.4913  0.047339999999999986  1.0000
  C   C27       1.0  0.60529  0.46948999999999996  0.90809  1.0000
  C   C28       1.0  0.38757  0.50943  0.09239999999999997  1.0000
  C   C29       1.0  0.27593  0.53497  0.9512199999999997  1.0000
  C   C30       1.0  0.71804  0.45069  0.04894999999999999  1.0000
  Cu  Cu1       1.0  0.5  0.64066  0.4999999999999999  1.0000
  Cu  Cu2       1.0  0.5  0.35934  0.4999999999999999  1.0000
  H   H1        1.0  0.19366  0.5435  0.07617999999999997  1.0000
  H   H2        1.0  0.7967500000000001  0.42052000000000006  0.92426  1.0000
  N   N1        1.0  0.5  0.85207  0.4999999999999999  1.0000
  N   N2        1.0  0.5  0.14793  0.4999999999999999  1.0000
  O   O1        1.0  0.31964000000000004  0.61874  0.4999899999999999  1.0000
  O   O2        1.0  0.6803600000000001  0.38126  0.50001  1.0000
  O   O3        1.0  0.6803600000000001  0.61874  0.50001  1.0000
  O   O4        1.0  0.31964000000000004  0.38126  0.4999899999999999  1.0000
  O   O5        1.0  0.49997000000000014  0.6188  0.37025999999999987  1.0000
  O   O6        1.0  0.50003  0.38120000000000004  0.62974  1.0000
  O   O7        1.0  0.50003  0.6188  0.62974  1.0000
  O   O8        1.0  0.49997000000000014  0.38120000000000004  0.37025999999999987  1.0000
  N   N3        1.0  0.71734  0.4664  0.7682199999999999  1.0000
  H   H3        1.0  0.7650700000000001  0.37709000000000004  0.77958  1.0000
  C   C31       1.0  0.7928300000000001  0.58867  0.77239  1.0000
  H   H4        1.0  0.83134  0.60711  0.84042  1.0000
  H   H5        1.0  0.73823  0.67994  0.7530499999999998  1.0000
  H   H6        1.0  0.86994  0.57561  0.72713  1.0000
  N   N4        1.0  0.2778  0.51901  0.23343999999999995  1.0000
  H   H7        1.0  0.21038  0.4520700000000001  0.21097  1.0000
  C   C32       1.0  0.23470000000000002  0.65666  0.25107  1.0000
  H   H8        1.0  0.22127  0.71443  0.18836999999999998  1.0000
  H   H9        1.0  0.30037  0.7132  0.2954799999999999  1.0000
  H   H10       1.0  0.14617  0.65058  0.28432  1.0000
  C   C33       1.0  0.27698  0.52637  0.75397  1.0000
  N   N5        1.0  0.18965  0.53445  0.7094399999999997  1.0000
  C   C34       1.0  0.71665  0.44975000000000004  0.24543  1.0000
  N   N6        1.0  0.80295  0.42992  0.28922  1.0000
  N   N7        1.0  0.16228  0.5645000000000001  0.90794  1.0000
  H   H11       1.0  0.09028  0.50952  0.9322899999999997  1.0000
  C   C35       1.0  0.13581000000000001  0.70976  0.9021399999999998  1.0000
  H   H12       1.0  0.050769999999999996  0.72443  0.8617399999999997  1.0000
  H   H13       1.0  0.21086  0.76482  0.86951  1.0000
  H   H14       1.0  0.12334000000000002  0.75439  0.9695599999999999  1.0000
  N   N8        1.0  0.8346800000000002  0.43959999999999994  0.09194  1.0000
  H   H15       1.0  0.8879900000000001  0.36289  0.06583999999999997  1.0000
  C   C36       1.0  0.8999700000000002  0.56887  0.10063  1.0000
  H   H16       1.0  0.98522  0.55366  0.14063999999999993  1.0000
  H   H17       1.0  0.8441  0.64679  0.13514999999999996  1.0000
  H   H18       1.0  0.92343  0.6075500000000001  0.03406  1.0000
  N   N9        1.0  0.12366000000000002  0.24809  0.50886  1.0000
  H   H19       1.0  0.09745  0.19172000000000003  0.56257  1.0000
  C   C37       1.0  0.14942  0.16862  0.42999  1.0000
  H   H20       1.0  0.07512  0.09405  0.41428  1.0000
  H   H21       1.0  0.23400000000000004  0.10991000000000001  0.4429499999999999  1.0000
  H   H22       1.0  0.16204  0.23646  0.37209  1.0000
  N   N10       1.0  0.8764400000000002  0.75622  0.49206  1.0000
  H   H23       1.0  0.9081800000000002  0.83179  0.45129  1.0000
  C   C38       1.0  0.84767  0.80648  0.57958  1.0000
  H   H24       1.0  0.9297  0.84696  0.61574  1.0000
  H   H25       1.0  0.80754  0.7241400000000001  0.6187299999999998  1.0000
  H   H26       1.0  0.77827  0.88751  0.57269  1.0000
  N   N11       1.0  0.8726  0.25227  0.4643599999999999  1.0000
  H   H27       1.0  0.8940300000000002  0.21  0.40375  1.0000
  C   C39       1.0  0.8535900000000001  0.15407  0.5336399999999999  1.0000
  H   H28       1.0  0.92264  0.07209  0.53078  1.0000
  H   H29       1.0  0.7633  0.1058  0.5215099999999999  1.0000
  H   H30       1.0  0.85745  0.20376000000000002  0.6005799999999998  1.0000
  N   N12       1.0  0.12661  0.74922  0.46133  1.0000
  H   H31       1.0  0.09581  0.79857  0.4048299999999999  1.0000
  C   C40       1.0  0.15751000000000004  0.84062  0.53501  1.0000
  H   H32       1.0  0.09244  0.9268100000000001  0.5374  1.0000
  H   H33       1.0  0.24907000000000004  0.8843400000000001  0.5248499999999998  1.0000
  H   H34       1.0  0.15778  0.78558  0.59925  1.0000
  N   N13       1.0  0.4864200000000001  0.13765  0.33858  1.0000
  H   H35       1.0  0.56675  0.13726  0.30492  1.0000
  C   C41       1.0  0.37752  0.12087000000000002  0.28258  1.0000
  H   H36       1.0  0.3309  0.22124  0.27634  1.0000
  H   H37       1.0  0.31395999999999996  0.04363  0.3092699999999999  1.0000
  H   H38       1.0  0.40237  0.08645  0.21487  1.0000
  N   N14       1.0  0.46412000000000003  0.86813  0.65851  1.0000
  H   H39       1.0  0.53359  0.83431  0.70003  1.0000
  C   C42       1.0  0.3587  0.9225399999999999  0.7025699999999998  1.0000
  H   H40       1.0  0.29625  0.8365600000000001  0.7172199999999997  1.0000
  H   H41       1.0  0.30899000000000004  0.99908  0.66117  1.0000
  H   H42       1.0  0.38602  0.97231  0.7667499999999999  1.0000
  N   N15       1.0  0.58722  0.14290000000000003  0.6497199999999999  1.0000
  H   H43       1.0  0.64512  0.21725000000000003  0.62736  1.0000
  C   C43       1.0  0.64747  0.06865000000000002  0.72136  1.0000
  H   H44       1.0  0.71382  0.13743  0.7571199999999998  1.0000
  H   H45       1.0  0.69901  0.97992  0.6958399999999999  1.0000
  H   H46       1.0  0.5815399999999998  0.03741  0.7713399999999998  1.0000
  N   N16       1.0  0.53503  0.85926  0.34114  1.0000
  H   H47       1.0  0.48124  0.8834999999999998  0.28656  1.0000
  C   C44       1.0  0.66309  0.8521  0.32236  1.0000
  H   H48       1.0  0.67489  0.80055  0.25695  1.0000
  H   H49       1.0  0.71092  0.79027  0.37332  1.0000
  H   H50       1.0  0.7044  0.9563500000000001  0.32079  1.0000
