data_image0
_chemical_formula_structural       C60Cr6H40O27CH3OCH3
_chemical_formula_sum              "C62 Cr6 H46 O28"
_cell_length_a       11.01424
_cell_length_b       10.93495
_cell_length_c       18.75139
_cell_angle_alpha    90.08092999999998
_cell_angle_beta     89.36904000000001
_cell_angle_gamma    60.404700000000005

_space_group_name_H-M_alt    "P 1"
_space_group_IT_number       1

loop_
  _space_group_symop_operation_xyz
  'x, y, z'

loop_
  _atom_site_type_symbol
  _atom_site_label
  _atom_site_symmetry_multiplicity
  _atom_site_fract_x
  _atom_site_fract_y
  _atom_site_fract_z
  _atom_site_occupancy
  C   C1        1.0  0.24389000000000005  0.64302  0.612  1.0000
  C   C2        1.0  0.6267999999999999  0.56216  0.81346  1.0000
  C   C3        1.0  0.68352  0.66569  0.81702  1.0000
  C   C4        1.0  0.6449300000000001  0.62494  0.68385  1.0000
  C   C5        1.0  0.7960299999999999  0.59103  0.69511  1.0000
  C   C6        1.0  0.6114299999999999  0.53278  0.73442  1.0000
  C   C7        1.0  0.6878500000000001  0.17186  0.82838  1.0000
  C   C8        1.0  0.80182  0.13991  0.78286  1.0000
  C   C9        1.0  0.7859  0.15328  0.70913  1.0000
  C   C10       1.0  0.541  0.24906  0.7257  1.0000
  C   C11       1.0  0.55521  0.24088  0.79911  1.0000
  C   C12       1.0  0.62907  0.59121  0.60908  1.0000
  C   C13       1.0  0.93875  0.0098  0.77564  1.0000
  C   C14       1.0  0.92145  0.02352  0.69531  1.0000
  C   C15       1.0  0.65581  0.19544  0.67913  1.0000
  C   C16       1.0  0.20756  0.65492  0.84051  1.0000
  C   C17       1.0  0.23016000000000003  0.53479  0.80191  1.0000
  C   C18       1.0  0.23287000000000005  0.53466  0.72769  1.0000
  C   C19       1.0  0.23102999999999999  0.75418  0.72921  1.0000
  C   C20       1.0  0.23273999999999997  0.75202  0.80373  1.0000
  C   C21       1.0  0.16087000000000007  0.4475799999999999  0.80396  1.0000
  C   C22       1.0  0.15256  0.45780999999999994  0.72259  1.0000
  C   C23       1.0  0.6265299999999998  0.23103999999999997  0.60383  1.0000
  C   C24       1.0  0.22075999999999998  0.65005  0.68965  1.0000
  C   C25       1.0  0.6719900000000002  0.68507  0.1745  1.0000
  C   C26       1.0  0.7690100000000001  0.56461  0.20867  1.0000
  C   C27       1.0  0.77274  0.55356  0.28071  1.0000
  C   C28       1.0  0.58949  0.794  0.29206  1.0000
  C   C29       1.0  0.58861  0.80536  0.21704000000000004  1.0000
  C   C30       1.0  0.8132  0.41433  0.19523  1.0000
  C   C31       1.0  0.81905  0.39972  0.27544  1.0000
  C   C32       1.0  0.6733799999999999  0.66213  0.32365  1.0000
  C   C33       1.0  0.68784  0.06795  0.1861  1.0000
  C   C34       1.0  0.22123999999999996  0.6498  0.40193  1.0000
  C   C35       1.0  0.55569  0.13717  0.21677  1.0000
  C   C36       1.0  0.53877  0.17906  0.28608  1.0000
  C   C37       1.0  0.78812  0.06263  0.30283  1.0000
  C   C38       1.0  0.8053099999999999  0.01986  0.23055999999999996  1.0000
  C   C39       1.0  0.42662  0.26706  0.19427  1.0000
  C   C40       1.0  0.40748999999999996  0.31309  0.27166  1.0000
  C   C41       1.0  0.6521500000000002  0.15346  0.32854  1.0000
  C   C42       1.0  0.13765000000000002  0.67203  0.18424  1.0000
  C   C43       1.0  0.18479  0.75412  0.21582  1.0000
  C   C44       1.0  0.19743000000000002  0.75523  0.28736  1.0000
  C   C45       1.0  0.64534  0.62478  0.39381  1.0000
  C   C46       1.0  0.10505999999999999  0.59762  0.30188  1.0000
  C   C47       1.0  0.09011999999999998  0.59819  0.22767  1.0000
  C   C48       1.0  0.31412  0.76027  0.20036  1.0000
  C   C49       1.0  0.32939  0.76115  0.28025  1.0000
  C   C50       1.0  0.16505  0.67291  0.3315  1.0000
  C   C51       1.0  0.7031700000000001  0.10255  0.8966  1.0000
  C   C52       1.0  0.7189300000000001  0.68507  0.8905099999999999  1.0000
  C   C53       1.0  0.12281000000000003  0.70357  0.9068300000000001  1.0000
  C   C54       1.0  0.7018  0.04037  0.11034999999999999  1.0000
  C   C55       1.0  0.69872  0.69334  0.09938  1.0000
  C   C56       1.0  0.6187700000000002  0.22494  0.39662  1.0000
  C   C57       1.0  0.09147999999999998  0.70897  0.11266  1.0000
  C   C58       1.0  0.5745300000000001  0.80711  0.78253  1.0000
  C   C59       1.0  0.5504599999999998  0.78252  0.7043  1.0000
  C   C60       1.0  0.8196399999999999  0.60508  0.77308  1.0000
  Cr  Cr1       1.0  0.3929599999999999  0.39792  0.50224  1.0000
  Cr  Cr2       1.0  0.39834000000000014  0.70848  0.50125  1.0000
  Cr  Cr3       1.0  0.70867  0.39357  0.49646  1.0000
  Cr  Cr4       1.0  0.9376500000000001  0.93854  0.0076100000000000004  1.0000
  Cr  Cr5       1.0  0.62533  0.9373699999999999  0.99452  1.0000
  Cr  Cr6       1.0  0.93794  0.62523  0.00119  1.0000
  H   H1        1.0  0.61249  0.88447  0.78437  1.0000
  H   H2        1.0  0.68603  0.42127  0.72248  1.0000
  H   H3        1.0  0.88938  0.4966999999999999  0.79237  1.0000
  H   H4        1.0  0.86992  0.48114000000000007  0.67874  1.0000
  H   H5        1.0  0.44000999999999996  0.29775  0.70454  1.0000
  H   H6        1.0  0.46354  0.27453  0.83252  1.0000
  H   H7        1.0  0.9368  0.9161  0.79721  1.0000
  H   H8        1.0  0.023170000000000003  0.028259999999999997  0.79512  1.0000
  H   H9        1.0  0.99799  0.04682  0.66828  1.0000
  H   H10       1.0  0.90904  0.9381  0.67029  1.0000
  H   H11       1.0  0.23091999999999996  0.84194  0.70285  1.0000
  H   H12       1.0  0.47363999999999995  0.8533100000000001  0.81261  1.0000
  H   H13       1.0  0.23225000000000004  0.83904  0.8316  1.0000
  H   H14       1.0  0.062190000000000016  0.50019  0.83362  1.0000
  H   H15       1.0  0.23163000000000006  0.3395  0.82326  1.0000
  H   H16       1.0  0.05107000000000001  0.52803  0.69853  1.0000
  H   H17       1.0  0.51739  0.88361  0.32415  1.0000
  H   H18       1.0  0.52057  0.9055499999999999  0.19262  1.0000
  H   H19       1.0  0.9175799999999998  0.35663  0.16878  1.0000
  H   H20       1.0  0.7296499999999999  0.39953  0.17087  1.0000
  H   H21       1.0  0.74097  0.37273  0.2971  1.0000
  H   H22       1.0  0.43954000000000004  0.81504  0.69675  1.0000
  H   H23       1.0  0.9275299999999999  0.33563  0.29468  1.0000
  H   H24       1.0  0.9088400000000002  0.95349  0.20902  1.0000
  H   H25       1.0  0.34453  0.24411  0.17544  1.0000
  H   H26       1.0  0.44898000000000005  0.33485  0.15852  1.0000
  H   H27       1.0  0.41840999999999995  0.40771  0.28083  1.0000
  H   H28       1.0  0.3155199999999999  0.31488  0.29769  1.0000
  H   H29       1.0  0.07698  0.53409  0.33499  1.0000
  H   H30       1.0  0.04229  0.54178  0.20456  1.0000
  H   H31       1.0  0.29192  0.86083  0.17489  1.0000
  H   H32       1.0  0.57432  0.85007  0.66908  1.0000
  H   H33       1.0  0.39682  0.66318  0.17382  1.0000
  H   H34       1.0  0.4209  0.66385  0.29992  1.0000
  H   H35       1.0  0.31561  0.86223  0.30135  1.0000
  H   H36       1.0  0.86859  0.67261  0.77899  1.0000
  H   H37       1.0  0.8191400000000001  0.66244  0.66253  1.0000
  H   H38       1.0  0.69886  0.4618  0.84039  1.0000
  H   H39       1.0  0.52401  0.60752  0.84152  1.0000
  H   H40       1.0  0.5050399999999998  0.54986  0.72503  1.0000
  O   O1        1.0  0.50738  0.2557  0.58144  1.0000
  O   O2        1.0  0.52448  0.69581  0.42404  1.0000
  O   O3        1.0  0.73639  0.50429  0.41479  1.0000
  O   O4        1.0  0.6913  0.27729  0.42217  1.0000
  O   O5        1.0  0.4999899999999999  0.49999000000000005  0.49998  1.0000
  O   O6        1.0  0.08940000000000002  0.82569  0.93057  1.0000
  O   O7        1.0  0.81846  0.05444000000000001  0.9298500000000001  1.0000
  O   O8        1.0  0.60606  0.07715  0.91551  1.0000
  O   O9        1.0  0.6465499999999997  0.80668  0.9175700000000001  1.0000
  O   O10       1.0  0.83717  0.59341  0.9152500000000001  1.0000
  O   O11       1.0  0.0652  0.63553  0.93157  1.0000
  O   O12       1.0  0.28032  0.52735  0.57893  1.0000
  O   O13       1.0  0.06826000000000004  0.82889  0.09184  1.0000
  O   O14       1.0  0.79887  0.05741000000000001  0.07934  1.0000
  O   O15       1.0  0.58493  0.08035  0.07678  1.0000
  O   O16       1.0  0.62696  0.80965  0.06706  1.0000
  O   O17       1.0  0.81604  0.59661  0.07651  1.0000
  O   O18       1.0  0.04561000000000001  0.6385  0.08106  1.0000
  O   O19       1.0  0.8336399999999999  0.83371  0.0011  1.0000
  O   O20       1.0  0.26051  0.73959  0.58459  1.0000
  O   O21       1.0  0.5323000000000002  0.69508  0.57382  1.0000
  O   O22       1.0  0.74484  0.5035  0.57637  1.0000
  O   O23       1.0  0.69912  0.27656  0.57196  1.0000
  O   O24       1.0  0.49894  0.2565  0.41986  1.0000
  O   O25       1.0  0.2725  0.52808  0.42915  1.0000
  O   O26       1.0  0.25206  0.74038  0.42301  1.0000
  O   O27       1.0  0.22821000000000002  0.326  0.68797  1.0000
  C   C61       1.0  0.14512  0.26164  0.68183  1.0000
  H   H41       1.0  0.07584000000000003  0.3045  0.63512  1.0000
  H   H42       1.0  0.08356  0.27208  0.73125  1.0000
  H   H43       1.0  0.21485000000000004  0.14754  0.67188  1.0000
  O   O28       1.0  0.8989  0.002380000000000001  0.34928  1.0000
  C   C62       1.0  0.98149  0.06703  0.34161  1.0000
  H   H44       1.0  0.08091  0.00308  0.36989  1.0000
  H   H45       1.0  0.9300900000000001  0.17116  0.36829  1.0000
  H   H46       1.0  0.007929999999999994  0.07483  0.28489  1.0000
