data_image0
_chemical_formula_structural       O8C4O8C4O4V4C8O4N4C64O4C4H16NH2NH2NH2NH2OCH3OCH3OCH3OCH3NH2NH2NH2NH2OCH3OCH3OCH3OCH3NH2NH2NH2NH2
_chemical_formula_sum              "O36 C92 V4 N16 H64"
_cell_length_a       28.12082
_cell_length_b       7.18005
_cell_length_c       17.30869
_cell_angle_alpha    89.99987
_cell_angle_beta     101.58010999999999
_cell_angle_gamma    90.00044

_space_group_name_H-M_alt    "P 1"
_space_group_IT_number       1

loop_
  _space_group_symop_operation_xyz
  'x, y, z'

loop_
  _atom_site_type_symbol
  _atom_site_label
  _atom_site_symmetry_multiplicity
  _atom_site_fract_x
  _atom_site_fract_y
  _atom_site_fract_z
  _atom_site_occupancy
  O   O1        1.0  0.0007000000000000044  0.4365100000000001  0.85792  1.0000
  O   O2        1.0  0.9993  0.56349  0.14208  1.0000
  O   O3        1.0  0.9993  0.93651  0.6420800000000001  1.0000
  O   O4        1.0  0.000699999999999998  0.06349  0.35792  1.0000
  O   O5        1.0  0.9300799999999999  0.7663800000000001  0.72189  1.0000
  O   O6        1.0  0.06992  0.23362000000000005  0.2781100000000001  1.0000
  O   O7        1.0  0.06992  0.26638  0.77811  1.0000
  O   O8        1.0  0.9300799999999999  0.7336200000000003  0.22189  1.0000
  C   C1        1.0  0.91044  0.5975300000000001  0.70796  1.0000
  C   C2        1.0  0.08955  0.4022400000000001  0.2914  1.0000
  C   C3        1.0  0.08956000000000001  0.09753  0.7920300000000001  1.0000
  C   C4        1.0  0.9104499999999999  0.90224  0.20860000000000006  1.0000
  O   O9        1.0  0.99618  0.7662300000000002  0.8623100000000002  1.0000
  O   O10       1.0  0.0038199999999999987  0.23377000000000003  0.13769  1.0000
  O   O11       1.0  0.003820000000000002  0.26623  0.63769  1.0000
  O   O12       1.0  0.99618  0.7337700000000003  0.36231  1.0000
  O   O13       1.0  0.06587  0.9364600000000002  0.7835  1.0000
  O   O14       1.0  0.93413  0.06354000000000003  0.2165  1.0000
  O   O15       1.0  0.93413  0.4364600000000001  0.7165  1.0000
  O   O16       1.0  0.06587  0.56354  0.2835  1.0000
  C   C5        1.0  0.9991800000000001  0.59635  0.8946100000000002  1.0000
  C   C6        1.0  0.0007200000000000006  0.40366  0.10536  1.0000
  C   C7        1.0  0.0008199999999999926  0.09635000000000003  0.60539  1.0000
  C   C8        1.0  0.9992799999999998  0.9036600000000002  0.39464  1.0000
  O   O17       1.0  0.022789999999999998  0.60302  0.72398  1.0000
  O   O18       1.0  0.97721  0.3969800000000001  0.27602  1.0000
  O   O19       1.0  0.97721  0.10302  0.77602  1.0000
  O   O20       1.0  0.022790000000000005  0.89698  0.22398  1.0000
  V   V1        1.0  0.99577  0.8779  0.75483  1.0000
  V   V2        1.0  0.004230000000000001  0.1221  0.24517000000000003  1.0000
  V   V3        1.0  0.004229999999999996  0.3779000000000001  0.74517  1.0000
  V   V4        1.0  0.99577  0.6221  0.25483  1.0000
  C   C9        1.0  0.99524  0.08191  0.51796  1.0000
  C   C10       1.0  0.004930000000000002  0.9182000000000002  0.48208000000000006  1.0000
  C   C11       1.0  0.00476000000000001  0.5819100000000003  0.9820400000000001  1.0000
  C   C12       1.0  0.99506  0.41820000000000007  0.01792  1.0000
  C   C13       1.0  0.6829099999999999  0.96024  0.02825  1.0000
  C   C14       1.0  0.31696  0.06907  0.9796000000000001  1.0000
  C   C15       1.0  0.31709  0.46028  0.4717400000000001  1.0000
  C   C16       1.0  0.68304  0.5691  0.5204  1.0000
  O   O21       1.0  0.7123600000000001  0.9285000000000002  0.9769900000000001  1.0000
  O   O22       1.0  0.2866  0.05852000000000001  0.030690000000000002  1.0000
  O   O23       1.0  0.28763999999999995  0.42853  0.52299  1.0000
  O   O24       1.0  0.7134000000000001  0.5586  0.4693100000000001  1.0000
  N   N1        1.0  0.70268  0.97282  0.10714  1.0000
  N   N2        1.0  0.29788  0.08571000000000002  0.90059  1.0000
  N   N3        1.0  0.29731  0.4728700000000001  0.3928500000000001  1.0000
  N   N4        1.0  0.7021199999999999  0.58572  0.59941  1.0000
  C   C17       1.0  0.6745  0.014650000000000002  0.16067  1.0000
  C   C18       1.0  0.32734  0.10470000000000003  0.84708  1.0000
  C   C19       1.0  0.3255  0.51472  0.33932  1.0000
  C   C20       1.0  0.67266  0.60471  0.65292  1.0000
  C   C21       1.0  0.78338  0.10568000000000002  0.15733  1.0000
  C   C22       1.0  0.22145  0.25105  0.84966  1.0000
  C   C23       1.0  0.21661  0.60571  0.34266  1.0000
  C   C24       1.0  0.77855  0.7510600000000001  0.65036  1.0000
  C   C25       1.0  0.83349  0.08796  0.18218  1.0000
  C   C26       1.0  0.17117  0.2533500000000001  0.82303  1.0000
  C   C27       1.0  0.1665  0.58798  0.3178  1.0000
  C   C28       1.0  0.82883  0.75336  0.67697  1.0000
  C   C29       1.0  0.8273  0.7546300000000002  0.15783  1.0000
  C   C30       1.0  0.16816  0.91954  0.84509  1.0000
  C   C31       1.0  0.1727  0.2546600000000001  0.34216  1.0000
  C   C32       1.0  0.8318399999999999  0.41954000000000014  0.65489  1.0000
  C   C33       1.0  0.77634  0.77222  0.13585  1.0000
  C   C34       1.0  0.21919  0.9173300000000002  0.86929  1.0000
  C   C35       1.0  0.22366  0.27226  0.36414  1.0000
  C   C36       1.0  0.78081  0.41734  0.63069  1.0000
  C   C37       1.0  0.75442  0.94955  0.13373  1.0000
  C   C38       1.0  0.24582  0.08459000000000003  0.8733300000000003  1.0000
  C   C39       1.0  0.24558  0.44959000000000005  0.36625  1.0000
  C   C40       1.0  0.75418  0.5846000000000001  0.62667  1.0000
  C   C41       1.0  0.60277  0.025110000000000004  0.05532  1.0000
  C   C42       1.0  0.39872  0.08334  0.9527499999999999  1.0000
  C   C43       1.0  0.39723  0.5251500000000001  0.44467  1.0000
  C   C44       1.0  0.60128  0.58335  0.54724  1.0000
  C   C45       1.0  0.63232  0.9825400000000001  0.00051  1.0000
  C   C46       1.0  0.36789  0.06418  0.00757  1.0000
  C   C47       1.0  0.36768  0.4825700000000001  0.49948000000000004  1.0000
  C   C48       1.0  0.63211  0.56419  0.49243  1.0000
  C   C49       1.0  0.61049  0.9624600000000001  0.92006  1.0000
  C   C50       1.0  0.38881  0.038510000000000016  0.08816  1.0000
  C   C51       1.0  0.38951  0.4624800000000001  0.5799300000000001  1.0000
  C   C52       1.0  0.6112  0.5385  0.41184  1.0000
  C   C53       1.0  0.6242  0.04253000000000001  0.13578  1.0000
  C   C54       1.0  0.37814  0.10495000000000003  0.87214  1.0000
  C   C55       1.0  0.3758  0.54258  0.36421  1.0000
  C   C56       1.0  0.62186  0.60496  0.62786  1.0000
  C   C57       1.0  0.85647  0.91354  0.1828  1.0000
  C   C58       1.0  0.14354  0.08887  0.82003  1.0000
  C   C59       1.0  0.14353  0.4135600000000001  0.3172000000000001  1.0000
  C   C60       1.0  0.85646  0.58887  0.67997  1.0000
  C   C61       1.0  0.48058  0.0856  0.92207  1.0000
  C   C62       1.0  0.52209  0.08095000000000002  0.08597  1.0000
  C   C63       1.0  0.51942  0.58562  0.5779200000000002  1.0000
  C   C64       1.0  0.47791  0.5809700000000001  0.4140200000000001  1.0000
  C   C65       1.0  0.4707  0.06900000000000002  0.05988  1.0000
  C   C66       1.0  0.53087  0.04443000000000001  0.9482599999999999  1.0000
  C   C67       1.0  0.5293  0.56901  0.44011  1.0000
  C   C68       1.0  0.46913  0.54445  0.5517300000000003  1.0000
  C   C69       1.0  0.4501  0.08009  0.9783  1.0000
  C   C70       1.0  0.55183  0.050860000000000016  0.02981  1.0000
  C   C71       1.0  0.5499  0.5801100000000002  0.5217  1.0000
  C   C72       1.0  0.44817  0.5508800000000001  0.47019  1.0000
  C   C73       1.0  0.45897  0.13044000000000003  0.84227  1.0000
  C   C74       1.0  0.54544  0.12039000000000002  0.16554000000000005  1.0000
  C   C75       1.0  0.5410299999999999  0.6304600000000002  0.65772  1.0000
  C   C76       1.0  0.4545699999999999  0.62041  0.33446  1.0000
  C   C77       1.0  0.40853000000000006  0.13264000000000004  0.8183700000000003  1.0000
  C   C78       1.0  0.5954599999999999  0.09488000000000003  0.18939  1.0000
  C   C79       1.0  0.59147  0.63266  0.68162  1.0000
  C   C80       1.0  0.40454  0.5949100000000003  0.3106  1.0000
  O   O25       1.0  0.30750999999999995  0.12237000000000003  0.76969  1.0000
  O   O26       1.0  0.6950999999999999  0.02934  0.23786000000000002  1.0000
  O   O27       1.0  0.69249  0.62236  0.73031  1.0000
  O   O28       1.0  0.3049  0.5294300000000001  0.26214  1.0000
  C   C81       1.0  0.56021  0.9850300000000002  0.89604  1.0000
  C   C82       1.0  0.43944  0.03359000000000001  0.11226  1.0000
  C   C83       1.0  0.43979  0.4850500000000001  0.60396  1.0000
  C   C84       1.0  0.56056  0.53358  0.38774  1.0000
  H   H1        1.0  0.15398000000000006  0.3851900000000001  0.8045000000000001  1.0000
  H   H2        1.0  0.85429  0.21232  0.2012  1.0000
  H   H3        1.0  0.84602  0.8852100000000003  0.69551  1.0000
  H   H4        1.0  0.14571  0.7123200000000002  0.29877  1.0000
  H   H5        1.0  0.24176  0.37929000000000007  0.85138  1.0000
  H   H6        1.0  0.76686  0.24185000000000006  0.15672  1.0000
  H   H7        1.0  0.75824  0.8793000000000002  0.64864  1.0000
  H   H8        1.0  0.23314000000000004  0.7418900000000002  0.34327  1.0000
  H   H9        1.0  0.39319  0.16256  0.75711  1.0000
  H   H10       1.0  0.6120599999999999  0.12326  0.25036  1.0000
  H   H11       1.0  0.60681  0.6625800000000002  0.74288  1.0000
  H   H12       1.0  0.38794  0.6232900000000002  0.24963000000000002  1.0000
  H   H13       1.0  0.54429  0.9472800000000002  0.83632  1.0000
  H   H14       1.0  0.45381  0.9929200000000002  0.17218000000000006  1.0000
  H   H15       1.0  0.45571  0.4472700000000001  0.66367  1.0000
  H   H16       1.0  0.54618  0.4928400000000001  0.32783  1.0000
  N   N5        1.0  0.97488  0.23920000000000005  0.47064  1.0000
  H   H17       1.0  0.9725500000000001  0.35661  0.5052400000000002  1.0000
  H   H18       1.0  0.93921  0.20453  0.44412  1.0000
  N   N6        1.0  0.025339999999999994  0.7609800000000002  0.5294  1.0000
  H   H19       1.0  0.028000000000000008  0.64396  0.49473000000000006  1.0000
  H   H20       1.0  0.060910000000000006  0.7962400000000002  0.5562700000000002  1.0000
  N   N7        1.0  0.025119999999999996  0.73919  0.02936  1.0000
  H   H21       1.0  0.027440000000000006  0.8566300000000001  0.99476  1.0000
  H   H22       1.0  0.06079  0.7045400000000003  0.055850000000000004  1.0000
  N   N8        1.0  0.97465  0.26099  0.9706  1.0000
  H   H23       1.0  0.97198  0.14398  0.00527  1.0000
  H   H24       1.0  0.93909  0.29626000000000013  0.94373  1.0000
  O   O29       1.0  0.848  0.5799100000000003  0.15802  1.0000
  C   C85       1.0  0.8572  0.5444800000000002  0.08218  1.0000
  H   H25       1.0  0.88176  0.6512500000000001  0.0647  1.0000
  H   H26       1.0  0.82285  0.53624  0.03735  1.0000
  H   H27       1.0  0.87571  0.40781  0.08314  1.0000
  O   O30       1.0  0.14305  0.75318  0.84184  1.0000
  C   C86       1.0  0.13309  0.71633  0.91708  1.0000
  H   H28       1.0  0.1113  0.83005  0.93666  1.0000
  H   H29       1.0  0.16703000000000004  0.6935200000000002  0.9616300000000001  1.0000
  H   H30       1.0  0.11134  0.58657  0.91365  1.0000
  O   O31       1.0  0.15201  0.07994000000000002  0.34199000000000007  1.0000
  C   C87       1.0  0.14282  0.04452000000000001  0.41784  1.0000
  H   H31       1.0  0.11821999999999999  0.15119  0.4352900000000001  1.0000
  H   H32       1.0  0.17717  0.03646  0.46268  1.0000
  H   H33       1.0  0.12435000000000002  0.9077700000000002  0.41692  1.0000
  O   O32       1.0  0.85696  0.25319  0.65805  1.0000
  C   C88       1.0  0.86693  0.21659  0.58279  1.0000
  H   H34       1.0  0.83299  0.19390000000000004  0.5382300000000002  1.0000
  H   H35       1.0  0.88867  0.08683  0.58615  1.0000
  H   H36       1.0  0.8887000000000002  0.3304400000000001  0.56328  1.0000
  N   N9        1.0  0.74741  0.6077700000000003  0.11733  1.0000
  H   H37       1.0  0.72877  0.6156800000000002  0.05883  1.0000
  H   H38       1.0  0.72192  0.60357  0.15374000000000004  1.0000
  N   N10       1.0  0.24349  0.7427800000000001  0.88785  1.0000
  H   H39       1.0  0.26156  0.7449600000000002  0.94678  1.0000
  H   H40       1.0  0.26933  0.7276600000000002  0.85247  1.0000
  N   N11       1.0  0.2526  0.10782  0.38263  1.0000
  H   H41       1.0  0.27124  0.11571000000000002  0.44113  1.0000
  H   H42       1.0  0.27808  0.10364000000000002  0.34621  1.0000
  N   N12       1.0  0.7565099999999998  0.24278000000000005  0.6121  1.0000
  H   H43       1.0  0.73844  0.24500000000000005  0.55317  1.0000
  H   H44       1.0  0.73067  0.22761000000000006  0.64748  1.0000
  O   O33       1.0  0.63747  0.9035500000000002  0.86588  1.0000
  C   C89       1.0  0.639  0.046890000000000015  0.81057  1.0000
  H   H45       1.0  0.65106  0.18163  0.84003  1.0000
  H   H46       1.0  0.60331  0.06372  0.7698  1.0000
  H   H47       1.0  0.66578  0.007960000000000004  0.77425  1.0000
  O   O34       1.0  0.35996  0.9996900000000002  0.14234  1.0000
  C   C90       1.0  0.36401  0.14592  0.19782  1.0000
  H   H48       1.0  0.35738  0.2843  0.16851000000000005  1.0000
  H   H49       1.0  0.39992  0.14414000000000002  0.23878  1.0000
  H   H50       1.0  0.33597  0.12594  0.23392  1.0000
  O   O35       1.0  0.36252  0.40356  0.63411  1.0000
  C   C91       1.0  0.36104  0.54679  0.6894800000000002  1.0000
  H   H51       1.0  0.34904  0.68169  0.66008  1.0000
  H   H52       1.0  0.39673  0.5633100000000002  0.73029  1.0000
  H   H53       1.0  0.33422  0.50794  0.72575  1.0000
  O   O36       1.0  0.64006  0.49963000000000013  0.35768  1.0000
  C   C92       1.0  0.63586  0.6454100000000003  0.30195  1.0000
  H   H54       1.0  0.64221  0.78422  0.33102  1.0000
  H   H55       1.0  0.6  0.6424800000000003  0.26083000000000006  1.0000
  H   H56       1.0  0.66404  0.6257600000000002  0.26606  1.0000
  N   N13       1.0  0.48599  0.20378  0.78697  1.0000
  H   H57       1.0  0.49191  0.09881000000000001  0.74821  1.0000
  H   H58       1.0  0.5185299999999998  0.26494  0.81537  1.0000
  N   N14       1.0  0.52174  0.21522000000000005  0.22037000000000007  1.0000
  H   H59       1.0  0.51184  0.11932000000000002  0.25966  1.0000
  H   H60       1.0  0.49189  0.2921600000000001  0.19153  1.0000
  N   N15       1.0  0.51401  0.70379  0.71303  1.0000
  H   H61       1.0  0.50809  0.59881  0.75178  1.0000
  H   H62       1.0  0.48147  0.76494  0.6846200000000002  1.0000
  N   N16       1.0  0.4782600000000001  0.7152100000000002  0.2796200000000001  1.0000
  H   H63       1.0  0.48816999999999994  0.61928  0.24033  1.0000
  H   H64       1.0  0.50812  0.7921400000000002  0.30846  1.0000
