data_image0
_chemical_formula_structural       C140Cr12H68O52F4
_chemical_formula_sum              "C140 Cr12 H68 O52 F4"
_cell_length_a       19.14161
_cell_length_b       11.12128
_cell_length_c       18.82759
_cell_angle_alpha    90.05508999999999
_cell_angle_beta     91.22641
_cell_angle_gamma    89.65501999999998

_space_group_name_H-M_alt    "P 1"
_space_group_IT_number       1

loop_
  _space_group_symop_operation_xyz
  'x, y, z'

loop_
  _atom_site_type_symbol
  _atom_site_label
  _atom_site_symmetry_multiplicity
  _atom_site_fract_x
  _atom_site_fract_y
  _atom_site_fract_z
  _atom_site_occupancy
  C   C1        1.0  0.72964  0.3740200000000001  0.14547  1.0000
  C   C2        1.0  0.271  0.37245  0.85508  1.0000
  C   C3        1.0  0.22964  0.87403  0.14547  1.0000
  C   C4        1.0  0.77101  0.87243  0.8550900000000001  1.0000
  C   C5        1.0  0.50315  0.05056  0.022  1.0000
  C   C6        1.0  0.55007  0.10725000000000001  0.96694  1.0000
  C   C7        1.0  0.00316  0.55057  0.022  1.0000
  C   C8        1.0  0.05007  0.60727  0.96694  1.0000
  C   C9        1.0  0.7564  0.89899  0.9302200000000002  1.0000
  C   C10       1.0  0.24582999999999997  0.90432  0.0712  1.0000
  C   C11       1.0  0.25638  0.39903999999999995  0.93021  1.0000
  C   C12       1.0  0.74582  0.40431  0.07119  1.0000
  C   C13       1.0  0.69984  0.84739  0.96763  1.0000
  C   C14       1.0  0.30192  0.85067  0.03354  1.0000
  C   C15       1.0  0.19981999999999997  0.34745  0.96761  1.0000
  C   C16       1.0  0.80192  0.35068  0.03354  1.0000
  C   C17       1.0  0.70262  0.84631  0.04316  1.0000
  C   C18       1.0  0.29869  0.84871  0.9579600000000001  1.0000
  C   C19       1.0  0.2026  0.34636  0.04314  1.0000
  C   C20       1.0  0.79869  0.34871  0.9579600000000001  1.0000
  C   C21       1.0  0.81036  0.95939  0.04188  1.0000
  C   C22       1.0  0.19202  0.9669099999999999  0.9598  1.0000
  C   C23       1.0  0.31034  0.45943  0.04187  1.0000
  C   C24       1.0  0.692  0.46685  0.95979  1.0000
  C   C25       1.0  0.81141  0.9517  0.96922  1.0000
  C   C26       1.0  0.19193  0.96152  0.03257  1.0000
  C   C27       1.0  0.31139  0.45174999999999993  0.9692  1.0000
  C   C28       1.0  0.6919  0.46146  0.03256  1.0000
  C   C29       1.0  0.64069  0.79641  0.93308  1.0000
  C   C30       1.0  0.36047999999999997  0.79692  0.06801  1.0000
  C   C31       1.0  0.14067  0.29649  0.93306  1.0000
  C   C32       1.0  0.86048  0.29695  0.06801  1.0000
  C   C33       1.0  0.09195  0.23204  0.97112  1.0000
  C   C34       1.0  0.90769  0.22789  0.03004  1.0000
  C   C35       1.0  0.59197  0.73198  0.97115  1.0000
  C   C36       1.0  0.4077  0.7278699999999999  0.03003  1.0000
  C   C37       1.0  0.59988  0.71909  0.04422  1.0000
  C   C38       1.0  0.39981  0.71551  0.95692  1.0000
  C   C39       1.0  0.09987  0.21913  0.044180000000000004  1.0000
  C   C40       1.0  0.89981  0.21551  0.95693  1.0000
  C   C41       1.0  0.65428  0.7762400000000002  0.0802  1.0000
  C   C42       1.0  0.34634  0.7761200000000001  0.92088  1.0000
  C   C43       1.0  0.15427  0.27627  0.08017  1.0000
  C   C44       1.0  0.8463499999999999  0.27613  0.92089  1.0000
  C   C45       1.0  0.5336599999999999  0.1552  0.1439  1.0000
  C   C46       1.0  0.46563999999999994  0.1554  0.85632  1.0000
  C   C47       1.0  0.03366  0.6552  0.1439  1.0000
  C   C48       1.0  0.96563  0.6554  0.85632  1.0000
  C   C49       1.0  0.75425  0.9143299999999999  0.07948  1.0000
  C   C50       1.0  0.24703999999999998  0.91777  0.9217200000000001  1.0000
  C   C51       1.0  0.25423  0.41436000000000006  0.07946  1.0000
  C   C52       1.0  0.74703  0.41775  0.9217100000000001  1.0000
  C   C53       1.0  0.45812  0.147  0.56494  1.0000
  C   C54       1.0  0.51096  0.16024  0.42779000000000006  1.0000
  C   C55       1.0  0.9805599999999999  0.66253  0.56932  1.0000
  C   C56       1.0  0.01281  0.65767  0.42605  1.0000
  C   C57       1.0  0.49739  0.04768  0.53743  1.0000
  C   C58       1.0  0.53287  0.06723  0.47484000000000004  1.0000
  C   C59       1.0  0.9723199999999999  0.55908  0.52779  1.0000
  C   C60       1.0  0.00598  0.54946  0.46421  1.0000
  C   C61       1.0  0.46055999999999997  0.2431  0.44932  1.0000
  C   C62       1.0  0.43770999999999993  0.24110999999999996  0.51926  1.0000
  C   C63       1.0  0.00264  0.76663  0.46135  1.0000
  C   C64       1.0  0.0020499999999999997  0.76675  0.53533  1.0000
  C   C65       1.0  0.50367  0.92934  0.56815  1.0000
  C   C66       1.0  0.58675  0.9869900000000001  0.4583900000000001  1.0000
  C   C67       1.0  0.93657  0.46038  0.5503  1.0000
  C   C68       1.0  0.026090000000000002  0.43146  0.44281  1.0000
  C   C69       1.0  0.96501  0.34998  0.53983  1.0000
  C   C70       1.0  0.00682  0.33399  0.48161  1.0000
  C   C71       1.0  0.54546  0.8412100000000001  0.53943  1.0000
  C   C72       1.0  0.58629  0.86987  0.48343  1.0000
  C   C73       1.0  0.79239  0.8241699999999998  0.56147  1.0000
  C   C74       1.0  0.24660999999999997  0.92091  0.42628  1.0000
  C   C75       1.0  0.23964  0.45407999999999993  0.58673  1.0000
  C   C76       1.0  0.71735  0.36701999999999996  0.4389  1.0000
  C   C77       1.0  0.83285  0.91185  0.52965  1.0000
  C   C78       1.0  0.1942  0.9792  0.4650000000000001  1.0000
  C   C79       1.0  0.28473  0.53641  0.55566  1.0000
  C   C80       1.0  0.6578  0.398  0.48084000000000005  1.0000
  C   C81       1.0  0.80363  0.97069  0.47176000000000007  1.0000
  C   C82       1.0  0.21373999999999999  0.04914  0.52227  1.0000
  C   C83       1.0  0.29677  0.52848  0.48206000000000004  1.0000
  C   C84       1.0  0.66618  0.40272  0.55586  1.0000
  C   C85       1.0  0.73877  0.79244  0.44422000000000006  1.0000
  C   C86       1.0  0.32561  0.95106  0.52536  1.0000
  C   C87       1.0  0.19419  0.40007  0.47141000000000005  1.0000
  C   C88       1.0  0.7866  0.34564  0.5456  1.0000
  C   C89       1.0  0.74248  0.96762  0.14975000000000002  1.0000
  C   C90       1.0  0.2578  0.96804  0.85058  1.0000
  C   C91       1.0  0.24248  0.46763  0.14975000000000002  1.0000
  C   C92       1.0  0.7578  0.46802999999999995  0.85058  1.0000
  C   C93       1.0  0.74773  0.7566099999999999  0.5163  1.0000
  C   C94       1.0  0.31401  0.91117  0.45585000000000003  1.0000
  C   C95       1.0  0.18659000000000003  0.40559  0.54459  1.0000
  C   C96       1.0  0.78197  0.35496  0.47258  1.0000
  C   C97       1.0  0.89455  0.95756  0.55998  1.0000
  C   C98       1.0  0.12229  0.9658799999999998  0.45138  1.0000
  C   C99       1.0  0.32268  0.61786  0.5984800000000001  1.0000
  C   C100      1.0  0.59148  0.43185  0.45204000000000005  1.0000
  C   C101      1.0  0.9197599999999999  0.06527  0.53923  1.0000
  C   C102      1.0  0.07431  0.04048  0.48241000000000006  1.0000
  C   C103      1.0  0.37938999999999995  0.67762  0.5717600000000002  1.0000
  C   C104      1.0  0.53726  0.46703  0.49551999999999996  1.0000
  C   C105      1.0  0.88468  0.12927  0.48677  1.0000
  C   C106      1.0  0.09678  0.12170999999999998  0.53341  1.0000
  C   C107      1.0  0.39728  0.66118  0.5014500000000001  1.0000
  C   C108      1.0  0.54415  0.45901  0.56866  1.0000
  C   C109      1.0  0.8215  0.08983  0.46232000000000006  1.0000
  C   C110      1.0  0.16612  0.13103  0.5486  1.0000
  C   C111      1.0  0.35746999999999995  0.5866  0.45720000000000005  1.0000
  C   C112      1.0  0.6076499999999999  0.42377  0.59879  1.0000
  C   C113      1.0  0.76001  0.90867  0.42434  1.0000
  C   C114      1.0  0.27388  0.01677  0.56025  1.0000
  C   C115      1.0  0.24844  0.46077  0.43832  1.0000
  C   C116      1.0  0.73355  0.39011  0.58649  1.0000
  C   C117      1.0  0.71217  0.33747  0.36243  1.0000
  C   C118      1.0  0.26639  0.38673  0.6496300000000002  1.0000
  C   C119      1.0  0.2287  0.8741899999999999  0.35638000000000003  1.0000
  C   C120      1.0  0.79154  0.82369  0.64032  1.0000
  C   C121      1.0  0.53515  0.15689  0.35431  1.0000
  C   C122      1.0  0.43755  0.15115  0.63943  1.0000
  C   C123      1.0  0.03609  0.65594  0.35396  1.0000
  C   C124      1.0  0.96287  0.65706  0.64471  1.0000
  C   C125      1.0  0.7438099999999999  0.9668499999999999  0.35507  1.0000
  C   C126      1.0  0.27361  0.02844  0.63796  1.0000
  C   C127      1.0  0.24096  0.48163  0.36075000000000007  1.0000
  C   C128      1.0  0.75409  0.46178  0.64902  1.0000
  C   C129      1.0  0.49393  0.27835  0.97748  1.0000
  C   C130      1.0  0.44651  0.22083  0.03411  1.0000
  C   C131      1.0  0.99391  0.77835  0.97748  1.0000
  C   C132      1.0  0.9464999999999999  0.72081  0.03412  1.0000
  C   C133      1.0  0.55933  0.21982  0.013680000000000001  1.0000
  C   C134      1.0  0.43795000000000006  0.10736  0.98674  1.0000
  C   C135      1.0  0.05932  0.7198399999999999  0.013680000000000001  1.0000
  C   C136      1.0  0.9379499999999998  0.60734  0.98674  1.0000
  C   C137      1.0  0.51133  0.16221  0.06899  1.0000
  C   C138      1.0  0.4861599999999999  0.16435  0.93139  1.0000
  C   C139      1.0  0.01133  0.66221  0.06899  1.0000
  C   C140      1.0  0.9861500000000001  0.66435  0.93139  1.0000
  Cr  Cr1       1.0  0.77282  0.16982  0.25264  1.0000
  Cr  Cr2       1.0  0.22718  0.16982  0.74736  1.0000
  Cr  Cr3       1.0  0.27282000000000006  0.66982  0.25264  1.0000
  Cr  Cr4       1.0  0.7271800000000002  0.66982  0.74736  1.0000
  Cr  Cr5       1.0  0.6150399999999999  0.32361  0.24915000000000004  1.0000
  Cr  Cr6       1.0  0.38496  0.32361  0.75085  1.0000
  Cr  Cr7       1.0  0.11504  0.82361  0.24915000000000004  1.0000
  Cr  Cr8       1.0  0.88496  0.82361  0.75085  1.0000
  Cr  Cr9       1.0  0.61672  0.01113  0.25066  1.0000
  Cr  Cr10      1.0  0.38328  0.01113  0.74934  1.0000
  Cr  Cr11      1.0  0.11672  0.51113  0.25066  1.0000
  Cr  Cr12      1.0  0.88328  0.51113  0.74934  1.0000
  H   H1        1.0  0.60991  0.2636  0.02613  1.0000
  H   H2        1.0  0.3881  0.0605  0.97454  1.0000
  H   H3        1.0  0.10989  0.76365  0.02613  1.0000
  H   H4        1.0  0.8881  0.56046  0.97455  1.0000
  H   H5        1.0  0.44124  0.31183  0.41308  1.0000
  H   H6        1.0  0.40323  0.31187  0.53741  1.0000
  H   H7        1.0  0.99829  0.8491500000000001  0.43204  1.0000
  H   H8        1.0  0.015470000000000001  0.84706  0.56442  1.0000
  H   H9        1.0  0.47298999999999997  0.89406  0.60992  1.0000
  H   H10       1.0  0.62593  0.014879999999999999  0.42343  1.0000
  H   H11       1.0  0.89314  0.47169000000000005  0.58314  1.0000
  H   H12       1.0  0.058269999999999995  0.40552  0.39968  1.0000
  H   H13       1.0  0.94934  0.27946  0.5741  1.0000
  H   H14       1.0  0.01858  0.24718  0.46071  1.0000
  H   H15       1.0  0.54573  0.7504699999999999  0.56038  1.0000
  H   H16       1.0  0.61398  0.79924  0.45799  1.0000
  H   H17       1.0  0.70968  0.73659  0.40704  1.0000
  H   H18       1.0  0.37252  0.9256800000000001  0.55289  1.0000
  H   H19       1.0  0.15815  0.3465  0.44046  1.0000
  H   H20       1.0  0.83348  0.31326  0.57117  1.0000
  H   H21       1.0  0.92217  0.9155699999999999  0.60291  1.0000
  H   H22       1.0  0.10254  0.89479  0.4193  1.0000
  H   H23       1.0  0.31044  0.63052  0.65395  1.0000
  H   H24       1.0  0.57856  0.43614  0.39656  1.0000
  H   H25       1.0  0.71991  0.67965  0.5362100000000001  1.0000
  H   H26       1.0  0.35525  0.86574  0.42777  1.0000
  H   H27       1.0  0.14191  0.36501999999999996  0.56873  1.0000
  H   H28       1.0  0.82818  0.34434  0.44148  1.0000
  H   H29       1.0  0.96566  0.09562999999999999  0.56596  1.0000
  H   H30       1.0  0.02094  0.03524  0.46492000000000006  1.0000
  H   H31       1.0  0.41069  0.7324499999999999  0.6069  1.0000
  H   H32       1.0  0.48809  0.49325  0.47152000000000005  1.0000
  H   H33       1.0  0.90408  0.20792  0.46316000000000007  1.0000
  H   H34       1.0  0.0626  0.1776  0.56359  1.0000
  H   H35       1.0  0.44295999999999996  0.70448  0.48089  1.0000
  H   H36       1.0  0.50019  0.47955  0.60191  1.0000
  H   H37       1.0  0.7893  0.14895  0.43138999999999994  1.0000
  H   H38       1.0  0.18067  0.19108000000000003  0.58876  1.0000
  H   H39       1.0  0.37934  0.57029  0.40593000000000007  1.0000
  H   H40       1.0  0.61125  0.41528  0.65605  1.0000
  H   H41       1.0  0.4905900000000001  0.37232  0.9577600000000001  1.0000
  H   H42       1.0  0.40411  0.26595  0.06343  1.0000
  H   H43       1.0  0.9905500000000002  0.8723199999999999  0.9577699999999999  1.0000
  H   H44       1.0  0.9040999999999999  0.7659099999999999  0.06344  1.0000
  H   H45       1.0  0.85319  0.00531  0.06849  1.0000
  H   H46       1.0  0.14924  0.01406  0.9334200000000001  1.0000
  H   H47       1.0  0.35318  0.50534  0.06848  1.0000
  H   H48       1.0  0.64921  0.51397  0.9334  1.0000
  H   H49       1.0  0.62957  0.80797  0.8771400000000001  1.0000
  H   H50       1.0  0.37161  0.8083399999999998  0.12398  1.0000
  H   H51       1.0  0.12955  0.30807  0.8771200000000001  1.0000
  H   H52       1.0  0.8716000000000002  0.30838  0.12399  1.0000
  H   H53       1.0  0.85743  0.9852400000000001  0.9438300000000001  1.0000
  H   H54       1.0  0.14651  0.99735  0.05834000000000001  1.0000
  H   H55       1.0  0.35741  0.48528999999999994  0.94381  1.0000
  H   H56       1.0  0.64648  0.49727  0.05832  1.0000
  H   H57       1.0  0.04919  0.189  0.9432500000000001  1.0000
  H   H58       1.0  0.94937  0.18124000000000004  0.05799000000000001  1.0000
  H   H59       1.0  0.5492  0.68893  0.9432900000000001  1.0000
  H   H60       1.0  0.44937999999999995  0.68122  0.05797  1.0000
  H   H61       1.0  0.06437  0.16371  0.07337  1.0000
  H   H62       1.0  0.93444  0.15736  0.9278700000000001  1.0000
  H   H63       1.0  0.56438  0.66368  0.07342  1.0000
  H   H64       1.0  0.43444  0.65737  0.9278400000000001  1.0000
  H   H65       1.0  0.65963  0.76102  0.13678  1.0000
  H   H66       1.0  0.34084999999999993  0.7610399999999999  0.8643  1.0000
  H   H67       1.0  0.15961  0.26105  0.13674  1.0000
  H   H68       1.0  0.8408600000000002  0.26105  0.86431  1.0000
  O   O1        1.0  0.78819  0.043  0.17252  1.0000
  O   O2        1.0  0.21181  0.043  0.82748  1.0000
  O   O3        1.0  0.28819  0.543  0.17252  1.0000
  O   O4        1.0  0.71181  0.543  0.82748  1.0000
  O   O5        1.0  0.55655  0.25326  0.32348  1.0000
  O   O6        1.0  0.44345  0.25326  0.67652  1.0000
  O   O7        1.0  0.05655  0.75326  0.32348  1.0000
  O   O8        1.0  0.9434499999999999  0.75326  0.67652  1.0000
  O   O9        1.0  0.54583  0.05161  0.33016  1.0000
  O   O10       1.0  0.45416999999999996  0.05161  0.66984  1.0000
  O   O11       1.0  0.04583  0.55161  0.33016  1.0000
  O   O12       1.0  0.95417  0.55161  0.66984  1.0000
  O   O13       1.0  0.68192  0.9597199999999999  0.32707  1.0000
  O   O14       1.0  0.31808  0.9597199999999999  0.67293  1.0000
  O   O15       1.0  0.18192  0.45972  0.32707  1.0000
  O   O16       1.0  0.81808  0.45972  0.67293  1.0000
  O   O17       1.0  0.66819  0.16819  0.25082  1.0000
  O   O18       1.0  0.33181  0.16819  0.74918  1.0000
  O   O19       1.0  0.16819  0.66819  0.25082  1.0000
  O   O20       1.0  0.83181  0.66819  0.74918  1.0000
  O   O21       1.0  0.76624  0.2923  0.17686  1.0000
  O   O22       1.0  0.23376  0.2923  0.82314  1.0000
  O   O23       1.0  0.26624  0.7922999999999999  0.17686  1.0000
  O   O24       1.0  0.73376  0.7922999999999999  0.82314  1.0000
  O   O25       1.0  0.67031  0.40916  0.16872  1.0000
  O   O26       1.0  0.32969  0.40916  0.83128  1.0000
  O   O27       1.0  0.17031  0.9091600000000001  0.16872  1.0000
  O   O28       1.0  0.82969  0.9091600000000001  0.83128  1.0000
  O   O29       1.0  0.55616  0.2519  0.17338  1.0000
  O   O30       1.0  0.44384  0.2519  0.82662  1.0000
  O   O31       1.0  0.05616  0.7519  0.17338  1.0000
  O   O32       1.0  0.9438400000000001  0.7519  0.82662  1.0000
  O   O33       1.0  0.54541  0.05014  0.16824  1.0000
  O   O34       1.0  0.45459  0.05014  0.83176  1.0000
  O   O35       1.0  0.04541  0.55014  0.16824  1.0000
  O   O36       1.0  0.9545899999999999  0.55014  0.83176  1.0000
  O   O37       1.0  0.68153  0.95835  0.17697  1.0000
  O   O38       1.0  0.31847  0.95835  0.82303  1.0000
  O   O39       1.0  0.18153  0.45835  0.17697  1.0000
  O   O40       1.0  0.81847  0.45835  0.82303  1.0000
  O   O41       1.0  0.78861  0.04448  0.33445  1.0000
  O   O42       1.0  0.21139  0.04448  0.66555  1.0000
  O   O43       1.0  0.28861  0.54448  0.33445  1.0000
  O   O44       1.0  0.71139  0.54448  0.66555  1.0000
  O   O45       1.0  0.76663  0.29367  0.32697  1.0000
  O   O46       1.0  0.23337  0.29367  0.67303  1.0000
  O   O47       1.0  0.26663  0.79367  0.32697  1.0000
  O   O48       1.0  0.73337  0.79367  0.67303  1.0000
  O   O49       1.0  0.67073  0.41064  0.33064  1.0000
  O   O50       1.0  0.32927  0.41064  0.66936  1.0000
  O   O51       1.0  0.17073  0.91064  0.33064  1.0000
  O   O52       1.0  0.82927  0.91064  0.66936  1.0000
  F   F1        1.0  0.50735  0.93319  0.045290000000000004  1.0000
  F   F2        1.0  0.60318  0.05179  0.93066  1.0000
  F   F3        1.0  0.007369999999999999  0.43319  0.045290000000000004  1.0000
  F   F4        1.0  0.10319  0.55184  0.93065  1.0000
