data_image0
_chemical_formula_structural       C84Cr12H36O52SO3HSO3HSO3HSO3HCHOCHOCHOCHOSO3HSO3HSO3HSO3HSO3HSO3HSO3HSO3H
_chemical_formula_sum              "C88 Cr12 H52 O92 S12"
_cell_length_a       19.3183
_cell_length_b       10.85602
_cell_length_c       18.69166
_cell_angle_alpha    90.39192
_cell_angle_beta     89.38511999999999
_cell_angle_gamma    90.13638000000002

_symmetry_space_group_name_H-M    'P 1'
_symmetry_Int_Tables_number       1

loop_
  _symmetry_equiv_pos_as_xyz
  'x,y,z'

loop_
  _atom_site_type_symbol
  _atom_site_label
  _atom_site_symmetry_multiplicity
  _atom_site_fract_x
  _atom_site_fract_y
  _atom_site_fract_z
  _atom_site_occupancy
  C   C1        1.0  0.26681000000000005  0.06103  0.8416700000000003  1.0000
  C   C2        1.0  0.72738  0.042370000000000005  0.14661  1.0000
  C   C3        1.0  0.7727600000000002  0.54255  0.85359  1.0000
  C   C4        1.0  0.22527  0.53677  0.14432  1.0000
  C   C5        1.0  0.43634  0.9440000000000001  0.11474  1.0000
  C   C6        1.0  0.36687  0.8048399999999999  0.01807  1.0000
  C   C7        1.0  0.97186  0.5712  0.07993  1.0000
  C   C8        1.0  0.9992500000000001  0.57009  0.9314200000000001  1.0000
  C   C9        1.0  0.96648  0.67784  0.0391  1.0000
  C   C10       1.0  0.9797200000000001  0.67731  0.96692  1.0000
  C   C11       1.0  0.37451  0.8905800000000001  0.13637000000000002  1.0000
  C   C12       1.0  0.34419  0.80565  0.09037000000000002  1.0000
  C   C13       1.0  0.24432000000000004  0.564  0.9141500000000002  1.0000
  C   C14       1.0  0.75176  0.57595  0.08023000000000002  1.0000
  C   C15       1.0  0.74882  0.07869  0.9202900000000003  1.0000
  C   C16       1.0  0.22721  0.17915  0.06180000000000001  1.0000
  C   C17       1.0  0.24220000000000003  0.56793  0.07072  1.0000
  C   C18       1.0  0.75056  0.58615  0.92375  1.0000
  C   C19       1.0  0.75011  0.08691  0.07712000000000001  1.0000
  C   C20       1.0  0.23613000000000003  0.13769  0.9009  1.0000
  C   C21       1.0  0.28661  0.50007  0.03135000000000001  1.0000
  C   C22       1.0  0.70707  0.51734  0.96341  1.0000
  C   C23       1.0  0.7937200000000001  0.0193  0.03663  1.0000
  C   C24       1.0  0.18398  0.09738000000000001  0.9436500000000001  1.0000
  C   C25       1.0  0.29624  0.52249  0.9546200000000002  1.0000
  C   C26       1.0  0.69827  0.53984  0.039980000000000016  1.0000
  C   C27       1.0  0.80253  0.0436  0.9603300000000001  1.0000
  C   C28       1.0  0.17590000000000003  0.13064  0.021600000000000005  1.0000
  C   C29       1.0  0.45444  0.82125  0.5638300000000002  1.0000
  C   C30       1.0  0.48524  0.8324400000000001  0.41304  1.0000
  C   C31       1.0  0.9545900000000002  0.32129  0.56386  1.0000
  C   C32       1.0  0.9852300000000002  0.33243  0.41304  1.0000
  C   C33       1.0  0.46134  0.72956  0.4451  1.0000
  C   C34       1.0  0.46982  0.72056  0.52278  1.0000
  C   C35       1.0  0.96147  0.22949  0.4451600000000001  1.0000
  C   C36       1.0  0.97001  0.22059000000000004  0.52284  1.0000
  C   C37       1.0  0.25188  0.59975  0.57282  1.0000
  C   C38       1.0  0.74447  0.59393  0.4262700000000001  1.0000
  C   C39       1.0  0.75192  0.09982  0.57278  1.0000
  C   C40       1.0  0.24444  0.09402  0.4262800000000001  1.0000
  C   C41       1.0  0.20426  0.47209  0.43419  1.0000
  C   C42       1.0  0.79297  0.48146  0.5652  1.0000
  C   C43       1.0  0.7042600000000001  0.97213  0.43418000000000007  1.0000
  C   C44       1.0  0.29291  0.9815  0.5652  1.0000
  C   C45       1.0  0.44489  0.8172899999999998  0.86344  1.0000
  C   C46       1.0  0.56453  0.81832  0.13888  1.0000
  C   C47       1.0  0.9699600000000002  0.32376  0.85462  1.0000
  C   C48       1.0  0.02666  0.32359  0.14851  1.0000
  C   C49       1.0  0.16839  0.53879  0.4827600000000001  1.0000
  C   C50       1.0  0.8273200000000002  0.55424  0.5189700000000002  1.0000
  C   C51       1.0  0.66842  0.03894  0.48271  1.0000
  C   C52       1.0  0.32726  0.05424  0.51896  1.0000
  C   C53       1.0  0.19473  0.53565  0.55543  1.0000
  C   C54       1.0  0.80591  0.548  0.4450200000000001  1.0000
  C   C55       1.0  0.69475  0.0358  0.55538  1.0000
  C   C56       1.0  0.30584  0.04796000000000001  0.44503  1.0000
  C   C57       1.0  0.25878  0.62805  0.8473100000000002  1.0000
  C   C58       1.0  0.73919  0.63504  0.14900000000000002  1.0000
  C   C59       1.0  0.76097  0.1361  0.85125  1.0000
  C   C60       1.0  0.22500000000000003  0.19043000000000002  0.14128  1.0000
  C   C61       1.0  0.29457  0.99007  0.64253  1.0000
  C   C62       1.0  0.70474  0.98855  0.35683000000000004  1.0000
  C   C63       1.0  0.79458  0.49007  0.64253  1.0000
  C   C64       1.0  0.20474  0.48855  0.35683000000000004  1.0000
  C   C65       1.0  0.43985  0.81774  0.63987  1.0000
  C   C66       1.0  0.52439  0.82384  0.34754  1.0000
  C   C67       1.0  0.93991  0.31775  0.6398600000000001  1.0000
  C   C68       1.0  0.024410000000000005  0.32383  0.34757  1.0000
  C   C69       1.0  0.26048  0.6354  0.6465000000000002  1.0000
  C   C70       1.0  0.73825  0.63778  0.35421  1.0000
  C   C71       1.0  0.7605  0.13546  0.64647  1.0000
  C   C72       1.0  0.23824000000000004  0.13779  0.35421  1.0000
  C   C73       1.0  0.54036  0.8385700000000001  0.06714  1.0000
  C   C74       1.0  0.47525  0.82203  0.93564  1.0000
  C   C75       1.0  0.9923000000000001  0.33765  0.07953  1.0000
  C   C76       1.0  0.99344  0.33754  0.92919  1.0000
  C   C77       1.0  0.4736  0.88491  0.05873000000000001  1.0000
  C   C78       1.0  0.43693000000000004  0.83643  0.00181  1.0000
  C   C79       1.0  0.9857200000000002  0.45422000000000007  0.04402000000000001  1.0000
  C   C80       1.0  0.99367  0.45377000000000006  0.96698  1.0000
  C   C81       1.0  0.5475  0.8049  0.94015  1.0000
  C   C82       1.0  0.5788800000000001  0.80199  0.00706  1.0000
  C   C83       1.0  0.9925100000000002  0.22783  0.96757  1.0000
  C   C84       1.0  0.98874  0.22797  0.04043  1.0000
  Cr  Cr1       1.0  0.23053000000000004  0.83634  0.74887  1.0000
  Cr  Cr2       1.0  0.7694700000000001  0.83634  0.2511300000000001  1.0000
  Cr  Cr3       1.0  0.73053  0.33634  0.74887  1.0000
  Cr  Cr4       1.0  0.26947  0.33634  0.2511300000000001  1.0000
  Cr  Cr5       1.0  0.38742  0.98943  0.75082  1.0000
  Cr  Cr6       1.0  0.61258  0.98943  0.24918  1.0000
  Cr  Cr7       1.0  0.8874200000000001  0.48943  0.75082  1.0000
  Cr  Cr8       1.0  0.11258000000000001  0.48943  0.24918  1.0000
  Cr  Cr9       1.0  0.38564  0.67786  0.74923  1.0000
  Cr  Cr10      1.0  0.61436  0.67786  0.25077  1.0000
  Cr  Cr11      1.0  0.8856400000000001  0.17786  0.74923  1.0000
  Cr  Cr12      1.0  0.11436000000000002  0.17785999999999996  0.25077  1.0000
  H   H1        1.0  0.57837  0.78577  0.89263  1.0000
  H   H2        1.0  0.6323800000000002  0.7740200000000002  0.01183  1.0000
  H   H3        1.0  0.99161  0.13867  0.9411300000000001  1.0000
  H   H4        1.0  0.9894  0.13889  0.06629  1.0000
  H   H5        1.0  0.16211  0.49550000000000005  0.5969600000000003  1.0000
  H   H6        1.0  0.84557  0.53021  0.40455  1.0000
  H   H7        1.0  0.6621  0.99569  0.5968900000000001  1.0000
  H   H8        1.0  0.34549  0.030040000000000004  0.40456  1.0000
  H   H9        1.0  0.24146  0.40539  0.45375  1.0000
  H   H10       1.0  0.7562900000000001  0.41484  0.54392  1.0000
  H   H11       1.0  0.74143  0.9053900000000001  0.45376  1.0000
  H   H12       1.0  0.25621  0.9149000000000002  0.54394  1.0000
  H   H13       1.0  0.9549200000000001  0.76606  0.06373  1.0000
  H   H14       1.0  0.98005  0.76486  0.9393800000000001  1.0000
  H   H15       1.0  0.34619  0.92485  0.18266  1.0000
  H   H16       1.0  0.29205  0.77908  0.10451000000000003  1.0000
  H   H17       1.0  0.31845  0.43015  0.055940000000000004  1.0000
  H   H18       1.0  0.6784000000000001  0.44099  0.9402000000000001  1.0000
  H   H19       1.0  0.82225  0.94266  0.058870000000000006  1.0000
  H   H20       1.0  0.15193  0.02166  0.92498  1.0000
  H   H21       1.0  0.34841  0.51354  0.9330100000000001  1.0000
  H   H22       1.0  0.6463000000000001  0.53191  0.062290000000000005  1.0000
  H   H23       1.0  0.8544700000000001  0.03631  0.93787  1.0000
  H   H24       1.0  0.12942  0.09754000000000002  0.04845  1.0000
  H   H25       1.0  0.21201000000000003  0.64034  0.04641000000000001  1.0000
  H   H26       1.0  0.7776  0.66442  0.9470300000000001  1.0000
  H   H27       1.0  0.72328  0.16546  0.054770000000000006  1.0000
  H   H28       1.0  0.26643  0.21681000000000003  0.91775  1.0000
  H   H29       1.0  0.19187  0.56838  0.93549  1.0000
  H   H30       1.0  0.8039  0.57986  0.057830000000000006  1.0000
  H   H31       1.0  0.69673  0.08194  0.9428300000000001  1.0000
  H   H32       1.0  0.27363  0.21360000000000004  0.03593000000000001  1.0000
  H   H33       1.0  0.49816000000000005  0.9137  0.44398  1.0000
  H   H34       1.0  0.43723000000000006  0.90527  0.5391  1.0000
  H   H35       1.0  0.99806  0.41378  0.44393000000000005  1.0000
  H   H36       1.0  0.9373400000000001  0.40528  0.53912  1.0000
  O   O1        1.0  0.21509  0.70986  0.82813  1.0000
  O   O2        1.0  0.78491  0.70986  0.17187  1.0000
  O   O3        1.0  0.7150900000000001  0.20986  0.82813  1.0000
  O   O4        1.0  0.28491  0.20986  0.17187  1.0000
  O   O5        1.0  0.44566000000000006  0.9192500000000001  0.67678  1.0000
  O   O6        1.0  0.55434  0.9192500000000001  0.32322  1.0000
  O   O7        1.0  0.94566  0.41925  0.67678  1.0000
  O   O8        1.0  0.05434  0.41925  0.32322  1.0000
  O   O9        1.0  0.45626000000000005  0.71817  0.67  1.0000
  O   O10       1.0  0.54374  0.71817  0.33  1.0000
  O   O11       1.0  0.9562600000000001  0.21817  0.67  1.0000
  O   O12       1.0  0.04374  0.21817  0.33  1.0000
  O   O13       1.0  0.32094  0.62676  0.67437  1.0000
  O   O14       1.0  0.6790600000000001  0.62676  0.32563  1.0000
  O   O15       1.0  0.82094  0.12676  0.67437  1.0000
  O   O16       1.0  0.17906  0.12676  0.32563  1.0000
  O   O17       1.0  0.33453  0.8345400000000001  0.74964  1.0000
  O   O18       1.0  0.66547  0.8345400000000001  0.25036  1.0000
  O   O19       1.0  0.83453  0.33454  0.74964  1.0000
  O   O20       1.0  0.16547  0.33454  0.25036  1.0000
  O   O21       1.0  0.23699  0.95839  0.8237100000000003  1.0000
  O   O22       1.0  0.7630100000000001  0.95839  0.17629000000000006  1.0000
  O   O23       1.0  0.73699  0.45839  0.8237100000000003  1.0000
  O   O24       1.0  0.26301  0.45839  0.17629000000000006  1.0000
  O   O25       1.0  0.33238  0.07475  0.8308500000000002  1.0000
  O   O26       1.0  0.66762  0.07475  0.16915000000000002  1.0000
  O   O27       1.0  0.8323800000000001  0.57475  0.8308500000000002  1.0000
  O   O28       1.0  0.16762  0.57475  0.16915000000000002  1.0000
  O   O29       1.0  0.44580000000000003  0.91777  0.8250700000000002  1.0000
  O   O30       1.0  0.5542  0.91777  0.17493  1.0000
  O   O31       1.0  0.9458000000000001  0.41777000000000003  0.8250700000000002  1.0000
  O   O32       1.0  0.054200000000000005  0.41777000000000003  0.17493  1.0000
  O   O33       1.0  0.45641  0.71658  0.82997  1.0000
  O   O34       1.0  0.54359  0.71658  0.17003  1.0000
  O   O35       1.0  0.95641  0.21658  0.82997  1.0000
  O   O36       1.0  0.04359  0.21658  0.17003  1.0000
  O   O37       1.0  0.32108  0.62529  0.82265  1.0000
  O   O38       1.0  0.67892  0.62529  0.17735  1.0000
  O   O39       1.0  0.8210800000000001  0.12529  0.82265  1.0000
  O   O40       1.0  0.17892  0.12529  0.17735  1.0000
  O   O41       1.0  0.21493  0.71145  0.66816  1.0000
  O   O42       1.0  0.7850700000000002  0.71145  0.33184  1.0000
  O   O43       1.0  0.71493  0.21145  0.66816  1.0000
  O   O44       1.0  0.28507  0.21145  0.33184  1.0000
  O   O45       1.0  0.23685  0.95987  0.6754200000000001  1.0000
  O   O46       1.0  0.76315  0.95987  0.3245800000000001  1.0000
  O   O47       1.0  0.73685  0.45987000000000006  0.6754200000000001  1.0000
  O   O48       1.0  0.26315  0.45987000000000006  0.3245800000000001  1.0000
  O   O49       1.0  0.33223  0.07635  0.67088  1.0000
  O   O50       1.0  0.66777  0.07635  0.32912  1.0000
  O   O51       1.0  0.83223  0.57635  0.67088  1.0000
  O   O52       1.0  0.16777  0.57635  0.32912  1.0000
  S   S1        1.0  0.11017  0.66084  0.46404000000000006  1.0000
  O   O53       1.0  0.14795  0.76417  0.42732  1.0000
  O   O54       1.0  0.05314000000000001  0.61682  0.41653  1.0000
  O   O55       1.0  0.07619  0.71635  0.54088  1.0000
  H   H37       1.0  0.06783  0.64326  0.57111  1.0000
  S   S2        1.0  0.8822800000000001  0.67978  0.5414600000000003  1.0000
  O   O56       1.0  0.8403000000000002  0.7765999999999998  0.5798800000000001  1.0000
  O   O57       1.0  0.9396500000000001  0.63824  0.5890000000000002  1.0000
  O   O58       1.0  0.9166100000000001  0.7429  0.46728000000000003  1.0000
  H   H38       1.0  0.9310100000000001  0.67263  0.43681000000000003  1.0000
  S   S3        1.0  0.61025  0.16105  0.46396000000000004  1.0000
  O   O59       1.0  0.64806  0.26426  0.42716  1.0000
  O   O60       1.0  0.55316  0.11703000000000001  0.41652  1.0000
  O   O61       1.0  0.57634  0.21674  0.54078  1.0000
  H   H39       1.0  0.56782  0.14368  0.57098  1.0000
  S   S4        1.0  0.38218  0.17985  0.5414  1.0000
  O   O62       1.0  0.3402  0.27661  0.5798800000000001  1.0000
  O   O63       1.0  0.43962  0.13835  0.58886  1.0000
  O   O64       1.0  0.4164  0.243  0.4671800000000001  1.0000
  H   H40       1.0  0.43096000000000007  0.17275  0.43678  1.0000
  C   C85       1.0  0.29277  0.67781  0.52253  1.0000
  H   H41       1.0  0.3345600000000001  0.73146  0.54372  1.0000
  O   O65       1.0  0.27911  0.68992  0.45949  1.0000
  C   C86       1.0  0.68894  0.63146  0.47859  1.0000
  H   H42       1.0  0.6875200000000001  0.59858  0.5329300000000001  1.0000
  O   O66       1.0  0.64333  0.70255  0.46113  1.0000
  C   C87       1.0  0.79288  0.17776  0.52248  1.0000
  H   H43       1.0  0.83472  0.23131  0.54368  1.0000
  O   O67       1.0  0.77924  0.18986000000000003  0.45944  1.0000
  C   C88       1.0  0.18897  0.13179000000000002  0.47862000000000005  1.0000
  H   H44       1.0  0.18762  0.09917999999999999  0.53301  1.0000
  O   O68       1.0  0.14334  0.20279  0.46109  1.0000
  S   S5        1.0  0.45555000000000007  0.09833  0.14006  1.0000
  O   O69       1.0  0.52772  0.13325  0.11701000000000002  1.0000
  O   O70       1.0  0.4060700000000001  0.18391  0.1043  1.0000
  O   O71       1.0  0.44711  0.11333  0.22936000000000004  1.0000
  H   H45       1.0  0.45586000000000004  0.2017  0.23935000000000003  1.0000
  S   S6        1.0  0.30784  0.87885  0.96805  1.0000
  O   O72       1.0  0.31485  0.83369  0.8938400000000001  1.0000
  O   O73       1.0  0.23471  0.8623400000000001  0.9946100000000001  1.0000
  O   O74       1.0  0.3342  0.025720000000000003  0.97382  1.0000
  H   H46       1.0  0.33779  0.04265  0.025490000000000006  1.0000
  S   S7        1.0  0.9543800000000001  0.59938  0.17298  1.0000
  O   O75       1.0  0.020420000000000004  0.62846  0.21131000000000005  1.0000
  O   O76       1.0  0.91085  0.7123500000000001  0.18176  1.0000
  O   O77       1.0  0.91375  0.47901000000000005  0.21124  1.0000
  H   H47       1.0  0.90904  0.50179  0.26247  1.0000
  S   S8        1.0  0.04728  0.59821  0.8517600000000001  1.0000
  O   O78       1.0  0.99963  0.62578  0.7908800000000002  1.0000
  O   O79       1.0  0.0899  0.71152  0.8649600000000001  1.0000
  O   O80       1.0  0.09913  0.47894  0.8304100000000001  1.0000
  H   H48       1.0  0.12178  0.50253  0.78471  1.0000
  S   S9        1.0  0.42504  0.60215  0.3961  1.0000
  O   O81       1.0  0.37749  0.65148  0.34004000000000006  1.0000
  O   O82       1.0  0.47969  0.52456  0.36004000000000014  1.0000
  O   O83       1.0  0.3806  0.5092  0.45143  1.0000
  H   H49       1.0  0.36236  0.44315000000000004  0.4201300000000001  1.0000
  S   S10       1.0  0.5074  0.58151  0.5557  1.0000
  O   O84       1.0  0.5630900000000001  0.61134  0.6087  1.0000
  O   O85       1.0  0.45225000000000004  0.50541  0.5919  1.0000
  O   O86       1.0  0.54378  0.49854  0.48899000000000004  1.0000
  H   H50       1.0  0.51826  0.4194  0.48806000000000005  1.0000
  S   S11       1.0  0.9252500000000001  0.10193  0.39624  1.0000
  O   O87       1.0  0.8777200000000001  0.15108  0.34011000000000013  1.0000
  O   O88       1.0  0.97996  0.02434  0.36027  1.0000
  O   O89       1.0  0.88081  0.009040000000000001  0.45160000000000006  1.0000
  H   H51       1.0  0.8624000000000002  0.9431400000000002  0.4203000000000001  1.0000
  S   S12       1.0  0.007650000000000001  0.08161  0.55581  1.0000
  O   O90       1.0  0.06328  0.11158  0.60886  1.0000
  O   O91       1.0  0.95251  0.005440000000000003  0.5920000000000002  1.0000
  O   O92       1.0  0.0441  0.99864  0.48916  1.0000
  H   H52       1.0  0.01863  0.9194600000000002  0.48823  1.0000
