data_image0
_chemical_formula_structural       O2CO2CZn2O4C4HC6HC14H4C14H5C14H3O2CO2CZn2O4C2O2CO2CZn2O4C16H3C14HNO2NO2NO2NH2NO2NO2NO2NO2NH2NO2NH2NH2NH2NH2NO2NH2NH2NH2NO2NO2NO2NH2NO2NH2NH2NO2NH2NO2
_chemical_formula_sum              "O54 C90 Zn6 H44 N28"
_cell_length_a       18.72371
_cell_length_b       19.1656
_cell_length_c       18.86028
_cell_angle_alpha    109.72890999999998
_cell_angle_beta     109.78534
_cell_angle_gamma    109.92531999999999

_space_group_name_H-M_alt    "P 1"
_space_group_IT_number       1

loop_
  _space_group_symop_operation_xyz
  'x, y, z'

loop_
  _atom_site_type_symbol
  _atom_site_label
  _atom_site_symmetry_multiplicity
  _atom_site_fract_x
  _atom_site_fract_y
  _atom_site_fract_z
  _atom_site_occupancy
  O   O1        1.0  0.5920099999999999  0.5399  0.44866  1.0000
  O   O2        1.0  0.5912100000000001  0.6433200000000001  0.5513300000000002  1.0000
  C   C1        1.0  0.62393  0.61938  0.50314  1.0000
  O   O3        1.0  0.4080799999999999  0.44828999999999997  0.35636  1.0000
  O   O4        1.0  0.40727999999999986  0.55171  0.45903  1.0000
  C   C2        1.0  0.37978  0.49936  0.37908  1.0000
  Zn  Zn1       1.0  0.50054  0.43095  0.43145  1.0000
  Zn  Zn2       1.0  0.49945999999999996  0.56905  0.56855  1.0000
  O   O5        1.0  0.4087899999999998  0.35667999999999994  0.44867000000000007  1.0000
  O   O6        1.0  0.40799  0.46009999999999995  0.55134  1.0000
  O   O7        1.0  0.59272  0.4482900000000001  0.5409700000000001  1.0000
  O   O8        1.0  0.5919199999999999  0.55171  0.6436400000000002  1.0000
  C   C3        1.0  0.37954999999999994  0.38074  0.49943  1.0000
  C   C4        1.0  0.6168200000000001  0.49630000000000013  0.6210100000000002  1.0000
  C   C5        1.0  0.3021599999999999  0.5778999999999999  0.32589  1.0000
  C   C6        1.0  0.20148000000000005  0.5142000000000001  0.2773400000000001  1.0000
  H   H1        1.0  0.34155  0.64181  0.38723  1.0000
  C   C7        1.0  0.19303999999999996  0.4992599999999999  0.18881  1.0000
  C   C8        1.0  0.2933999999999999  0.56068  0.23623  1.0000
  C   C9        1.0  0.30666  0.48405999999999993  0.22332  1.0000
  C   C10       1.0  0.20576000000000005  0.42061  0.17434000000000005  1.0000
  C   C11       1.0  0.21498999999999996  0.43788999999999995  0.26408  1.0000
  C   C12       1.0  0.3147  0.4994199999999999  0.31142  1.0000
  H   H2        1.0  0.16776  0.35705  0.11305000000000003  1.0000
  C   C13       1.0  0.5779899999999999  0.7282600000000001  0.4550800000000001  1.0000
  C   C14       1.0  0.55786  0.79  0.45117  1.0000
  C   C15       1.0  0.62165  0.8674000000000001  0.4695600000000001  1.0000
  C   C16       1.0  0.7065  0.88094  0.4865000000000001  1.0000
  C   C17       1.0  0.7278899999999998  0.81498  0.48792  1.0000
  C   C18       1.0  0.66423  0.7422399999999999  0.48024  1.0000
  C   C19       1.0  0.80653  0.81466  0.4938000000000001  1.0000
  C   C20       1.0  0.81381  0.7407700000000002  0.4818100000000001  1.0000
  C   C21       1.0  0.7605199999999998  0.67934  0.4938500000000001  1.0000
  C   C22       1.0  0.6862599999999999  0.68299  0.49608  1.0000
  C   C23       1.0  0.87336  0.7270000000000001  0.45671  1.0000
  C   C24       1.0  0.88629  0.65872  0.45105  1.0000
  C   C25       1.0  0.8443  0.60509  0.47629  1.0000
  C   C26       1.0  0.7828299999999999  0.6158  0.49954  1.0000
  H   H3        1.0  0.52388  0.66852  0.43704  1.0000
  H   H4        1.0  0.4916400000000001  0.7775200000000001  0.43412  1.0000
  H   H5        1.0  0.91077  0.7686199999999999  0.4401500000000001  1.0000
  H   H6        1.0  0.56434  0.19196  0.53421  1.0000
  C   C27       1.0  0.7666099999999998  0.65719  0.7750400000000002  1.0000
  C   C28       1.0  0.8326  0.73551  0.85311  1.0000
  C   C29       1.0  0.89068  0.73419  0.92118  1.0000
  C   C30       1.0  0.8844499999999997  0.6566799999999999  0.91017  1.0000
  C   C31       1.0  0.8172099999999998  0.5765299999999999  0.83141  1.0000
  C   C32       1.0  0.7538599999999998  0.5755799999999999  0.76446  1.0000
  C   C33       1.0  0.8137199999999997  0.49829  0.81802  1.0000
  C   C34       1.0  0.7467399999999997  0.4179500000000001  0.7407700000000003  1.0000
  C   C35       1.0  0.67674  0.41345000000000004  0.67542  1.0000
  C   C36       1.0  0.6819100000000001  0.49429  0.6881300000000002  1.0000
  C   C37       1.0  0.7508399999999998  0.34183  0.72695  1.0000
  C   C38       1.0  0.6871499999999999  0.26261000000000007  0.65257  1.0000
  C   C39       1.0  0.61585  0.25545  0.59072  1.0000
  C   C40       1.0  0.60778  0.32762000000000013  0.6007700000000002  1.0000
  H   H7        1.0  0.72914  0.66317  0.7223800000000001  1.0000
  H   H8        1.0  0.9425599999999997  0.7934500000000002  0.9825700000000003  1.0000
  H   H9        1.0  0.9339299999999998  0.6618300000000001  0.9651200000000002  1.0000
  H   H10       1.0  0.8057499999999999  0.34209  0.77099  1.0000
  H   H11       1.0  0.6926200000000001  0.20614000000000005  0.64345  1.0000
  C   C41       1.0  0.4194200000000001  0.3800000000000001  0.6565400000000002  1.0000
  C   C42       1.0  0.44120999999999994  0.38596  0.7364  1.0000
  C   C43       1.0  0.3779399999999999  0.33324999999999994  0.74565  1.0000
  C   C44       1.0  0.29221999999999987  0.27032999999999996  0.67277  1.0000
  C   C45       1.0  0.27026999999999995  0.25594  0.58497  1.0000
  C   C46       1.0  0.33421000000000006  0.31743  0.5807800000000002  1.0000
  C   C47       1.0  0.19118000000000002  0.18455  0.5018  1.0000
  C   C48       1.0  0.1793  0.17558999999999997  0.41829  1.0000
  C   C49       1.0  0.23763000000000006  0.24694000000000005  0.4207000000000001  1.0000
  C   C50       1.0  0.31424  0.31522  0.50079  1.0000
  C   C51       1.0  0.11358999999999998  0.09940000000000003  0.33159  1.0000
  C   C52       1.0  0.10617999999999998  0.09985999999999999  0.25475  1.0000
  C   C53       1.0  0.16211  0.17363  0.25998  1.0000
  C   C54       1.0  0.22257999999999997  0.24746  0.34194  1.0000
  H   H12       1.0  0.47271  0.42370999999999986  0.655  1.0000
  H   H13       1.0  0.5072799999999998  0.43382999999999994  0.79234  1.0000
  H   H14       1.0  0.26217  0.30443  0.3431400000000001  1.0000
  O   O9        1.0  0.9514400000000002  0.5399  0.09474  1.0000
  O   O10       1.0  0.05486999999999997  0.64331  0.0947  1.0000
  C   C55       1.0  0.0020200000000000196  0.6201100000000002  0.12253000000000003  1.0000
  O   O11       1.0  0.04444000000000001  0.44827  0.09611  1.0000
  O   O12       1.0  0.14787  0.55168  0.09608000000000003  1.0000
  C   C56       1.0  0.1251  0.49921  0.12289000000000003  1.0000
  Zn  Zn3       1.0  0.93477  0.4309299999999999  0.003810000000000001  1.0000
  Zn  Zn4       1.0  0.07289999999999999  0.56902  0.0037700000000000008  1.0000
  O   O13       1.0  0.9528099999999998  0.35665  0.91288  1.0000
  O   O14       1.0  0.05623999999999996  0.46005999999999997  0.91284  1.0000
  O   O15       1.0  0.8598  0.44828  0.9115  1.0000
  O   O16       1.0  0.96324  0.5516900000000001  0.9114700000000002  1.0000
  C   C57       1.0  0.0004900000000000393  0.38102  0.87965  1.0000
  C   C58       1.0  0.8824199999999999  0.5003300000000002  0.8843600000000003  1.0000
  O   O17       1.0  0.05286000000000002  0.90843  0.46123  1.0000
  O   O18       1.0  0.9486199999999998  0.9083999999999999  0.35698  1.0000
  C   C59       1.0  0.0002499999999999963  0.8800899999999999  0.38089  1.0000
  O   O19       1.0  0.9605099999999999  0.90841  0.55214  1.0000
  O   O20       1.0  0.8562699999999999  0.9083899999999999  0.4478900000000001  1.0000
  C   C60       1.0  0.87835  0.88498  0.50323  1.0000
  Zn  Zn5       1.0  0.06959999999999997  2.99999999999986e-05  0.56962  1.0000
  Zn  Zn6       1.0  0.9303999999999999  4.9293126793604906e-17  0.4304100000000001  1.0000
  O   O21       1.0  0.051379999999999953  0.09161999999999998  0.64304  1.0000
  O   O22       1.0  0.9471399999999998  0.09160000000000013  0.5388000000000002  1.0000
  O   O23       1.0  0.14372999999999994  0.09164  0.55213  1.0000
  O   O24       1.0  0.03949000000000003  0.09161000000000005  0.4478900000000001  1.0000
  C   C61       1.0  0.99986  0.12029  0.6198  1.0000
  C   C62       1.0  0.12157  0.12073  0.50162  1.0000
  C   C63       1.0  0.16903999999999988  0.7793699999999999  0.27353  1.0000
  C   C64       1.0  0.24341999999999994  0.86293  0.32839  1.0000
  C   C65       1.0  0.23934999999999995  0.9297999999999998  0.38205  1.0000
  C   C66       1.0  0.16061999999999996  0.9120799999999999  0.38087  1.0000
  C   C67       1.0  0.08105999999999998  0.83086  0.31786  1.0000
  C   C68       1.0  0.08321999999999999  0.76443  0.25861  1.0000
  C   C69       1.0  0.0006100000000001675  0.8144100000000002  0.3153200000000001  1.0000
  C   C70       1.0  0.9210499999999999  0.73502  0.25233  1.0000
  C   C71       1.0  0.9178699999999999  0.67375  0.18225000000000005  1.0000
  C   C72       1.0  0.0006900000000000316  0.68673  0.18816000000000002  1.0000
  C   C73       1.0  0.84412  0.71635  0.25847  1.0000
  C   C74       1.0  0.7643299999999996  0.63947  0.19612  1.0000
  C   C75       1.0  0.75667  0.58323  0.12009  1.0000
  C   C76       1.0  0.8311  0.6026899999999998  0.11027  1.0000
  H   H15       1.0  0.30702  0.87407  0.33608  1.0000
  H   H16       1.0  0.16448999999999997  0.9638099999999998  0.43112  1.0000
  H   H17       1.0  0.8444399999999997  0.76061  0.31235  1.0000
  C   C77       1.0  0.011020000000000172  0.3994200000000001  0.7295200000000002  1.0000
  C   C78       1.0  0.03211000000000011  0.4135300000000001  0.6690200000000002  1.0000
  C   C79       1.0  0.04914999999999998  0.35850999999999994  0.61858  1.0000
  C   C80       1.0  0.04204000000000011  0.2858700000000001  0.6244600000000002  1.0000
  C   C81       1.0  0.018459999999999997  0.26709  0.68395  1.0000
  C   C82       1.0  0.009929999999999967  0.32881999999999995  0.74272  1.0000
  C   C83       1.0  0.0035200000000000686  0.18936  0.6869500000000001  1.0000
  C   C84       1.0  0.99452  0.17908  0.75575  1.0000
  C   C85       1.0  0.00769  0.25013  0.82442  1.0000
  C   C86       1.0  0.004280000000000082  0.31854  0.8131800000000002  1.0000
  C   C87       1.0  0.97289  0.10130000000000011  0.7599500000000002  1.0000
  C   C88       1.0  0.97496  0.10071  0.83537  1.0000
  C   C89       1.0  0.003109999999999965  0.17711  0.90894  1.0000
  C   C90       1.0  0.022849999999999936  0.2513299999999999  0.90382  1.0000
  H   H18       1.0  0.04941999999999998  0.31041999999999986  0.96321  1.0000
  N   N1        1.0  0.14228  0.526  0.30783  1.0000
  O   O25       1.0  0.17450999999999994  0.58943  0.38563  1.0000
  O   O26       1.0  0.05823999999999995  0.46849999999999997  0.26119  1.0000
  N   N2        1.0  0.59918  0.9324499999999999  0.47128  1.0000
  O   O27       1.0  0.55142  0.9445699999999999  0.50528  1.0000
  O   O28       1.0  0.6132699999999999  0.96929  0.4268900000000001  1.0000
  N   N3        1.0  0.76861  0.9635  0.50642  1.0000
  O   O29       1.0  0.7616299999999999  0.97626  0.44141  1.0000
  O   O30       1.0  0.8006000000000001  0.030100000000000127  0.5819100000000003  1.0000
  N   N4        1.0  0.94748  0.6478  0.42562  1.0000
  H   H19       1.0  0.92598  0.6389900000000001  0.3627  1.0000
  H   H20       1.0  0.009149999999999998  0.70489  0.46846  1.0000
  N   N5        1.0  0.7507799999999998  0.5671299999999999  0.53595  1.0000
  O   O31       1.0  0.7144999999999999  0.48351  0.4931200000000001  1.0000
  O   O32       1.0  0.78095  0.60721  0.6196300000000002  1.0000
  N   N6        1.0  0.84062  0.81606  0.86263  1.0000
  O   O33       1.0  0.90522  0.8891500000000001  0.93329  1.0000
  O   O34       1.0  0.7817999999999999  0.8169099999999999  0.80196  1.0000
  N   N7        1.0  0.5246  0.30658  0.53647  1.0000
  O   O35       1.0  0.50921  0.27984  0.45665  1.0000
  O   O36       1.0  0.45787  0.27291  0.5457700000000002  1.0000
  N   N8        1.0  0.16375  0.17207000000000006  0.18350000000000005  1.0000
  O   O37       1.0  0.14378999999999995  0.10109  0.11918  1.0000
  O   O38       1.0  0.20007999999999998  0.24373  0.18425000000000005  1.0000
  N   N9        1.0  0.39978  0.34461  0.8309  1.0000
  H   H21       1.0  0.45354  0.336  0.85382  1.0000
  H   H22       1.0  0.4198399999999999  0.40824999999999995  0.87327  1.0000
  N   N10       1.0  0.23030000000000006  0.23007000000000014  0.6948000000000002  1.0000
  O   O39       1.0  0.23966  0.17682  0.72024  1.0000
  O   O40       1.0  0.19945999999999997  0.2744500000000001  0.7289300000000001  1.0000
  N   N11       1.0  0.06092  0.016019999999999993  0.31616  1.0000
  H   H23       1.0  0.09221999999999995  0.00868999999999999  0.36726  1.0000
  H   H24       1.0  0.9977699999999998  0.004939999999999992  0.30177  1.0000
  N   N12       1.0  0.04070999999999999  0.02387  0.16995  1.0000
  H   H25       1.0  0.9782199999999999  0.006450000000000008  0.16264  1.0000
  H   H26       1.0  0.05230999999999995  0.9734999999999999  0.16649  1.0000
  N   N13       1.0  0.3373799999999999  0.62669  0.21935  1.0000
  H   H27       1.0  0.4054  0.65737  0.26195  1.0000
  H   H28       1.0  0.32548  0.59518  0.15574  1.0000
  N   N14       1.0  0.67267  0.50798  0.04875  1.0000
  H   H29       1.0  0.62062  0.50635  0.05855000000000001  1.0000
  H   H30       1.0  0.6752999999999999  0.45377  0.04673  1.0000
  N   N15       1.0  0.18616000000000005  0.71054  0.24957000000000004  1.0000
  O   O41       1.0  0.15261  0.64943  0.26433  1.0000
  O   O42       1.0  0.25077000000000005  0.7196900000000002  0.23467000000000002  1.0000
  N   N16       1.0  0.31614999999999993  0.014820000000000024  0.4428700000000001  1.0000
  H   H31       1.0  0.3693599999999999  0.018339999999999985  0.43432  1.0000
  H   H32       1.0  0.33439  0.025569999999999992  0.50614  1.0000
  N   N17       1.0  0.69003  0.62094  0.20849000000000006  1.0000
  H   H33       1.0  0.6773799999999999  0.67126  0.21566  1.0000
  H   H34       1.0  0.70765  0.62039  0.26709  1.0000
  N   N18       1.0  0.81147  0.55841  0.02201  1.0000
  H   H35       1.0  0.80025  0.49633999999999995  0.00505  1.0000
  H   H36       1.0  0.8605399999999999  0.59329  0.013430000000000003  1.0000
  N   N19       1.0  0.00804999999999998  0.17965999999999996  0.98781  1.0000
  O   O43       1.0  0.02048  0.12474  0.0082  1.0000
  O   O44       1.0  5.000000000000401e-05  0.23736  0.04011  1.0000
  N   N20       1.0  0.3669899999999999  0.4698  0.19616000000000006  1.0000
  O   O45       1.0  0.33721999999999996  0.39916999999999997  0.12524  1.0000
  O   O46       1.0  0.45098  0.52755  0.24298  1.0000
  N   N21       1.0  0.9825999999999998  0.45342  0.76858  1.0000
  O   O47       1.0  0.04065000000000006  0.5356500000000001  0.8212600000000001  1.0000
  O   O48       1.0  0.90075  0.4307  0.72268  1.0000
  N   N22       1.0  0.03383000000000001  0.48351  0.65571  1.0000
  H   H37       1.0  0.9728199999999999  0.47941999999999996  0.63931  1.0000
  H   H38       1.0  0.08394000000000017  0.5421800000000002  0.7132900000000002  1.0000
  N   N23       1.0  0.07395000000000003  0.37645  0.55966  1.0000
  O   O49       1.0  0.14478000000000008  0.4484200000000001  0.5902100000000002  1.0000
  O   O50       1.0  0.020609999999999944  0.3260799999999999  0.47525  1.0000
  N   N24       1.0  0.06569  0.23558999999999997  0.57308  1.0000
  H   H39       1.0  0.02097  0.21101000000000006  0.50744  1.0000
  H   H40       1.0  0.12868999999999992  0.27649  0.58725  1.0000
  N   N25       1.0  0.9411099999999998  0.02056000000000003  0.68607  1.0000
  H   H41       1.0  0.9845  0.9987699999999999  0.70436  1.0000
  H   H42       1.0  0.8790099999999998  0.9754099999999999  0.67015  1.0000
  N   N26       1.0  0.94234  0.02072000000000002  0.83419  1.0000
  O   O51       1.0  0.98387  0.97851  0.83006  1.0000
  O   O52       1.0  0.8713  0.99068  0.83857  1.0000
  N   N27       1.0  0.17266999999999996  0.37226000000000004  0.2821  1.0000
  H   H43       1.0  0.10438999999999997  0.34104999999999996  0.24041  1.0000
  H   H44       1.0  0.1859399999999999  0.40394  0.34627  1.0000
  N   N28       1.0  0.8676399999999999  0.54253  0.4828300000000001  1.0000
  O   O53       1.0  0.86813  0.48989  0.41802  1.0000
  O   O54       1.0  0.89657  0.54357  0.55656  1.0000
