data_image0
_chemical_formula_structural       C56Cr6H24O26CO2HCl3
_chemical_formula_sum              "C57 Cr6 H25 O28 Cl3"
_cell_length_a       10.92097
_cell_length_b       10.92892
_cell_length_c       18.82701
_cell_angle_alpha    89.90977
_cell_angle_beta     90.11847
_cell_angle_gamma    119.96895999999998

_space_group_name_H-M_alt    "P 1"
_space_group_IT_number       1

loop_
  _space_group_symop_operation_xyz
  'x, y, z'

loop_
  _atom_site_type_symbol
  _atom_site_label
  _atom_site_symmetry_multiplicity
  _atom_site_fract_x
  _atom_site_fract_y
  _atom_site_fract_z
  _atom_site_occupancy
  C   C1        1.0  0.86599  0.6369  0.60417  1.0000
  C   C2        1.0  0.42144  0.62439  0.7777  1.0000
  C   C3        1.0  0.4003  0.61569  0.70541  1.0000
  C   C4        1.0  0.3221200000000001  0.6714300000000001  0.67547  1.0000
  C   C5        1.0  0.83679  0.15737  0.81937  1.0000
  C   C6        1.0  0.08521  0.21849  0.8211899999999999  1.0000
  C   C7        1.0  0.20508000000000004  0.23634000000000002  0.78629  1.0000
  C   C8        1.0  0.19779  0.20078  0.71491  1.0000
  C   C9        1.0  0.07316  0.15636  0.67636  1.0000
  C   C10       1.0  0.9556400000000002  0.15675  0.7087  1.0000
  C   C11       1.0  0.9581999999999999  0.17487  0.7837699999999997  1.0000
  C   C12       1.0  0.27025  0.6326  0.60379  1.0000
  C   C13       1.0  0.71255  0.10929000000000001  0.7057  1.0000
  C   C14       1.0  0.72155  0.14525000000000002  0.77782  1.0000
  C   C15       1.0  0.58252  0.05872  0.66954  1.0000
  C   C16       1.0  0.47241  0.06908  0.70028  1.0000
  C   C17       1.0  0.48979000000000006  0.12758  0.76749  1.0000
  C   C18       1.0  0.61381  0.16806  0.80546  1.0000
  C   C19       1.0  0.8370500000000002  0.14116000000000004  0.66917  1.0000
  C   C20       1.0  0.72058  0.53782  0.71323  1.0000
  C   C21       1.0  0.71163  0.54514  0.78682  1.0000
  C   C22       1.0  0.8125200000000001  0.66595  0.8227299999999997  1.0000
  C   C23       1.0  0.85993  0.21979  0.60104  1.0000
  C   C24       1.0  0.92007  0.7790100000000001  0.7845999999999999  1.0000
  C   C25       1.0  0.92564  0.77381  0.71251  1.0000
  C   C26       1.0  0.82922  0.6525  0.6760799999999999  1.0000
  C   C27       1.0  0.24517000000000003  0.54181  0.27621  1.0000
  C   C28       1.0  0.2609000000000001  0.5569500000000001  0.20374  1.0000
  C   C29       1.0  0.3383200000000001  0.6913600000000002  0.17444  1.0000
  C   C30       1.0  0.39048  0.81175  0.21789999999999998  1.0000
  C   C31       1.0  0.37628  0.7982000000000001  0.2917  1.0000
  C   C32       1.0  0.30551000000000017  0.6607200000000002  0.32097  1.0000
  C   C33       1.0  0.9184000000000001  0.12609000000000004  0.29099  1.0000
  C   C34       1.0  0.86852  0.6373700000000001  0.39607  1.0000
  C   C35       1.0  0.9157699999999999  0.10812000000000001  0.21779  1.0000
  C   C36       1.0  0.85023  0.16260000000000002  0.17363  1.0000
  C   C37       1.0  0.79615  0.24337000000000003  0.20228  1.0000
  C   C38       1.0  0.79866  0.26165  0.27481  1.0000
  C   C39       1.0  0.8553200000000001  0.19960000000000006  0.31977999999999995  1.0000
  C   C40       1.0  0.9624000000000001  0.70614  0.27686  1.0000
  C   C41       1.0  0.9468300000000001  0.7082500000000002  0.20437  1.0000
  C   C42       1.0  0.81186  0.65166  0.17533  1.0000
  C   C43       1.0  0.69166  0.5834200000000002  0.21894999999999998  1.0000
  C   C44       1.0  0.70671  0.58057  0.29214  1.0000
  C   C45       1.0  0.26888  0.63278  0.3955899999999999  1.0000
  C   C46       1.0  0.84324  0.64629  0.32136  1.0000
  C   C47       1.0  0.80693  0.10452  0.8943599999999999  1.0000
  C   C48       1.0  0.39945  0.70221  0.89541  1.0000
  C   C49       1.0  0.79663  0.69257  0.89658  1.0000
  C   C50       1.0  0.8088299999999999  0.1071  0.10236  1.0000
  C   C51       1.0  0.39446000000000003  0.7048300000000001  0.10336  1.0000
  C   C52       1.0  0.7973300000000001  0.6929700000000002  0.10422  1.0000
  C   C53       1.0  0.8636  0.23294  0.39463  1.0000
  C   C54       1.0  0.26994000000000007  0.7410600000000002  0.71816  1.0000
  C   C55       1.0  0.29446  0.75293  0.79082  1.0000
  C   C56       1.0  0.3667  0.69071  0.8207299999999998  1.0000
  Cr  Cr1       1.0  0.79166  0.39025  0.49993  1.0000
  Cr  Cr2       1.0  0.09851999999999998  0.70829  0.50054  1.0000
  Cr  Cr3       1.0  0.10977  0.40143  0.49947999999999987  1.0000
  Cr  Cr4       1.0  0.87479  0.92589  7e-05  1.0000
  Cr  Cr5       1.0  0.57412  0.94867  0.9993  1.0000
  Cr  Cr6       1.0  0.55142  0.62532  0.00092  1.0000
  H   H1        1.0  0.20557000000000009  0.78139  0.6959  1.0000
  H   H2        1.0  0.37533  0.03555  0.67108  1.0000
  H   H3        1.0  0.56869  0.01733  0.6160399999999999  1.0000
  H   H4        1.0  0.40649  0.13982  0.79083  1.0000
  H   H5        1.0  0.6462  0.44175  0.6859699999999997  1.0000
  H   H6        1.0  0.62641  0.45824000000000004  0.81529  1.0000
  H   H7        1.0  0.99933  0.8755200000000001  0.8098199999999998  1.0000
  H   H8        1.0  0.012510000000000004  0.86251  0.6861799999999999  1.0000
  H   H9        1.0  0.18433000000000002  0.43561000000000005  0.29727  1.0000
  H   H10       1.0  0.21893  0.46317  0.17086  1.0000
  H   H11       1.0  0.4526200000000001  0.9161000000000001  0.19488999999999995  1.0000
  H   H12       1.0  0.25416  0.80642  0.82352  1.0000
  H   H13       1.0  0.95618  0.043410000000000004  0.19616  1.0000
  H   H14       1.0  0.74581  0.28648  0.16893  1.0000
  H   H15       1.0  0.75587  0.32477  0.29579999999999995  1.0000
  H   H16       1.0  0.06856000000000015  0.7514100000000002  0.29812  1.0000
  H   H17       1.0  0.0404199999999999  0.7605  0.17138  1.0000
  H   H18       1.0  0.58639  0.54087  0.19692  1.0000
  H   H19       1.0  0.48075000000000007  0.57876  0.80014  1.0000
  H   H20       1.0  0.43963  0.56029  0.67346  1.0000
  H   H21       1.0  0.30299000000000004  0.27477000000000007  0.8154  1.0000
  H   H22       1.0  0.28914  0.20620000000000005  0.6895399999999999  1.0000
  H   H23       1.0  0.09452000000000002  0.24557  0.8769799999999999  1.0000
  H   H24       1.0  0.62532  0.22052000000000002  0.85571  1.0000
  O   O1        1.0  0.7665  0.25004  0.57979  1.0000
  O   O2        1.0  0.21869000000000005  0.7019  0.42595999999999995  1.0000
  O   O3        1.0  0.24949  0.51644  0.4194199999999999  1.0000
  O   O4        1.0  0.9828800000000002  0.2819100000000001  0.42489  1.0000
  O   O5        1.0  0.9999800000000001  0.49999  0.49998  1.0000
  O   O6        1.0  0.8951100000000001  0.8068600000000002  0.92043  1.0000
  O   O7        1.0  0.8722599999999999  0.04697  0.925  1.0000
  O   O8        1.0  0.69143  0.08506  0.9185499999999999  1.0000
  O   O9        1.0  0.45149  0.82246  0.9252499999999999  1.0000
  O   O10       1.0  0.41333  0.60336  0.9204399999999999  1.0000
  O   O11       1.0  0.67611  0.6262500000000002  0.92675  1.0000
  O   O12       1.0  0.7985700000000002  0.5167800000000001  0.57478  1.0000
  O   O13       1.0  0.89535  0.80987  0.08095  1.0000
  O   O14       1.0  0.8724900000000001  0.049760000000000006  0.0738  1.0000
  O   O15       1.0  0.69168  0.08807  0.07906999999999997  1.0000
  O   O16       1.0  0.45172  0.82525  0.07405  1.0000
  O   O17       1.0  0.41358000000000006  0.6063700000000001  0.08095999999999998  1.0000
  O   O18       1.0  0.67634  0.62904  0.07555  1.0000
  O   O19       1.0  0.6667800000000002  0.8332900000000001  9e-05  1.0000
  O   O20       1.0  0.984  0.73295  0.58109  1.0000
  O   O21       1.0  0.2186000000000001  0.7008900000000002  0.5747599999999999  1.0000
  O   O22       1.0  0.24939000000000008  0.5153500000000001  0.57994  1.0000
  O   O23       1.0  0.98279  0.2809  0.5737  1.0000
  O   O24       1.0  0.7666  0.25113000000000013  0.41925999999999997  1.0000
  O   O25       1.0  0.79866  0.51779  0.42598  1.0000
  O   O26       1.0  0.9841000000000001  0.73404  0.4205699999999999  1.0000
  C   C57       1.0  0.4420800000000001  0.9284000000000001  0.33573  1.0000
  O   O27       1.0  0.48560999999999993  0.92733  0.39549999999999996  1.0000
  O   O28       1.0  0.4572  0.05394  0.3079  1.0000
  H   H25       1.0  0.50235  0.13521  0.34284  1.0000
  Cl  Cl1       1.0  0.9928200000000001  0.04783  0.34473  1.0000
  Cl  Cl2       1.0  0.55352  0.50228  0.3452299999999999  1.0000
  Cl  Cl3       1.0  0.06358  0.08054000000000001  0.59216  1.0000
