data_image0
_chemical_formula_structural       C50Cr6H21O27HOHCO2HOHOHOHCO2HCO2HOHCO2HOH
_chemical_formula_sum              "C54 Cr6 H32 O41"
_cell_length_a       11.01955
_cell_length_b       10.91707
_cell_length_c       18.74111
_cell_angle_alpha    89.86202
_cell_angle_beta     89.58182
_cell_angle_gamma    59.82644

_space_group_name_H-M_alt    "P 1"
_space_group_IT_number       1

loop_
  _space_group_symop_operation_xyz
  'x, y, z'

loop_
  _atom_site_type_symbol
  _atom_site_label
  _atom_site_symmetry_multiplicity
  _atom_site_fract_x
  _atom_site_fract_y
  _atom_site_fract_z
  _atom_site_occupancy
  C   C1        1.0  0.23633  0.64681  0.61011  1.0000
  C   C2        1.0  0.6563899999999999  0.60583  0.80173  1.0000
  C   C3        1.0  0.7282800000000001  0.6962  0.806  1.0000
  C   C4        1.0  0.6844800000000001  0.6601  0.6712299999999999  1.0000
  C   C5        1.0  0.8464300000000001  0.58919  0.6847599999999999  1.0000
  C   C6        1.0  0.63112  0.58407  0.72349  1.0000
  C   C7        1.0  0.78316  0.15271  0.7102  1.0000
  C   C8        1.0  0.80026  0.13607  0.78404  1.0000
  C   C9        1.0  0.6839  0.17183000000000004  0.82822  1.0000
  C   C10       1.0  0.55094  0.23171  0.79883  1.0000
  C   C11       1.0  0.53672  0.22597999999999996  0.72659  1.0000
  C   C12       1.0  0.65731  0.62665  0.5981799999999999  1.0000
  C   C13       1.0  0.6516400000000001  0.19376  0.68031  1.0000
  C   C14       1.0  0.20771000000000003  0.54913  0.7249  1.0000
  C   C15       1.0  0.20827000000000004  0.55107  0.79939  1.0000
  C   C16       1.0  0.18985000000000002  0.67142  0.83556  1.0000
  C   C17       1.0  0.19107  0.78196  0.796  1.0000
  C   C18       1.0  0.17778  0.78358  0.72215  1.0000
  C   C19       1.0  0.19442999999999994  0.66408  0.6856999999999999  1.0000
  C   C20       1.0  0.7026599999999997  0.49720000000000003  0.26399  1.0000
  C   C21       1.0  0.71041  0.51995  0.19036  1.0000
  C   C22       1.0  0.6434199999999999  0.65944  0.16356  1.0000
  C   C23       1.0  0.6243999999999997  0.23332999999999998  0.60482  1.0000
  C   C24       1.0  0.55759  0.77353  0.20838  1.0000
  C   C25       1.0  0.5473599999999997  0.75098  0.28058  1.0000
  C   C26       1.0  0.62274  0.61397  0.30914  1.0000
  C   C27       1.0  0.51898  0.27249  0.27698  1.0000
  C   C28       1.0  0.53144  0.24694  0.20420999999999997  1.0000
  C   C29       1.0  0.6610599999999999  0.14356  0.1778  1.0000
  C   C30       1.0  0.77587  0.06331  0.22321  1.0000
  C   C31       1.0  0.76215  0.08763  0.29565  1.0000
  C   C32       1.0  0.6340300000000001  0.19248  0.32196  1.0000
  C   C33       1.0  0.23507000000000003  0.72612  0.28307  1.0000
  C   C34       1.0  0.22220000000000006  0.64995  0.40126  1.0000
  C   C35       1.0  0.22234999999999994  0.7231600000000001  0.21098  1.0000
  C   C36       1.0  0.14431999999999998  0.66743  0.18306  1.0000
  C   C37       1.0  0.08765999999999996  0.60401  0.22702999999999998  1.0000
  C   C38       1.0  0.10424999999999998  0.6016  0.30063  1.0000
  C   C39       1.0  0.17689000000000002  0.66629  0.32852  1.0000
  C   C40       1.0  0.70083  0.1059  0.89762  1.0000
  C   C41       1.0  0.75522  0.71171  0.88266  1.0000
  C   C42       1.0  0.12196  0.70512  0.90646  1.0000
  C   C43       1.0  0.67686  0.10289  0.1046  1.0000
  C   C44       1.0  0.69303  0.68737  0.09602  1.0000
  C   C45       1.0  0.61655  0.58955  0.38583  1.0000
  C   C46       1.0  0.09304999999999994  0.7079200000000001  0.11228999999999999  1.0000
  C   C47       1.0  0.61611  0.23011  0.39533  1.0000
  C   C48       1.0  0.62374  0.84254  0.77081  1.0000
  C   C49       1.0  0.6167700000000003  0.82252  0.6888  1.0000
  C   C50       1.0  0.8710599999999998  0.62548  0.76253  1.0000
  Cr  Cr1       1.0  0.39292999999999995  0.3979  0.50223  1.0000
  Cr  Cr2       1.0  0.39824  0.7086  0.50126  1.0000
  Cr  Cr3       1.0  0.7088  0.39347  0.49645999999999996  1.0000
  Cr  Cr4       1.0  0.93762  0.9385400000000002  0.007639999999999999  1.0000
  Cr  Cr5       1.0  0.6251499999999998  0.93745  0.99452  1.0000
  Cr  Cr6       1.0  0.93799  0.62508  0.00119  1.0000
  H   H1        1.0  0.65688  0.9215900000000001  0.78107  1.0000
  H   H2        1.0  0.6922700000000002  0.46760000000000007  0.71246  1.0000
  H   H3        1.0  0.8885  0.47252  0.68352  1.0000
  H   H4        1.0  0.8727400000000001  0.12896  0.67658  1.0000
  H   H5        1.0  0.90402  0.08806  0.80626  1.0000
  H   H6        1.0  0.45987000000000006  0.25984  0.8322899999999998  1.0000
  H   H7        1.0  0.20786000000000004  0.46269  0.69752  1.0000
  H   H8        1.0  0.20985  0.46453000000000005  0.82847  1.0000
  H   H9        1.0  0.5190999999999999  0.8878  0.79667  1.0000
  H   H10       1.0  0.1671999999999999  0.8734  0.69248  1.0000
  H   H11       1.0  0.50663  0.88145  0.18881  1.0000
  H   H12       1.0  0.4845599999999999  0.84176  0.31452  1.0000
  H   H13       1.0  0.42034  0.35615  0.29852  1.0000
  H   H14       1.0  0.8754100000000001  0.97941  0.20284  1.0000
  H   H15       1.0  0.8503899999999999  0.02673  0.33063  1.0000
  H   H16       1.0  0.2942899999999999  0.77295  0.3031  1.0000
  H   H17       1.0  0.26615  0.77239  0.17723  1.0000
  H   H18       1.0  0.024060000000000026  0.56393  0.20439  1.0000
  H   H19       1.0  0.68401  0.8597300000000001  0.6646  1.0000
  H   H20       1.0  0.71974  0.50115  0.82795  1.0000
  H   H21       1.0  0.5549499999999999  0.65955  0.83156  1.0000
  O   O1        1.0  0.50743  0.25557  0.58142  1.0000
  O   O2        1.0  0.5244599999999998  0.69592  0.42406  1.0000
  O   O3        1.0  0.7365300000000001  0.50426  0.41481  1.0000
  O   O4        1.0  0.69146  0.27716  0.42218  1.0000
  O   O5        1.0  0.49998999999999993  0.49999  0.49998  1.0000
  O   O6        1.0  0.08948999999999999  0.8256100000000001  0.93061  1.0000
  O   O7        1.0  0.81837  0.05454  0.9298799999999999  1.0000
  O   O8        1.0  0.60587  0.07731  0.91553  1.0000
  O   O9        1.0  0.64644  0.8067  0.91757  1.0000
  O   O10       1.0  0.8372  0.59329  0.91525  1.0000
  O   O11       1.0  0.06533000000000003  0.63537  0.93159  1.0000
  O   O12       1.0  0.28019  0.52739  0.57891  1.0000
  O   O13       1.0  0.06830000000000003  0.82879  0.09186  1.0000
  O   O14       1.0  0.79873  0.05748000000000001  0.07937  1.0000
  O   O15       1.0  0.58468  0.08048  0.07679  1.0000
  O   O16       1.0  0.62679  0.80964  0.06705  1.0000
  O   O17       1.0  0.81601  0.59646  0.0765  1.0000
  O   O18       1.0  0.04567999999999995  0.63831  0.08106999999999999  1.0000
  O   O19       1.0  0.83359  0.83369  0.0011199999999999997  1.0000
  O   O20       1.0  0.26030999999999993  0.73974  0.58458  1.0000
  O   O21       1.0  0.53225  0.69515  0.57383  1.0000
  O   O22       1.0  0.7449299999999999  0.50343  0.5763799999999999  1.0000
  O   O23       1.0  0.6992499999999999  0.27639  0.57195  1.0000
  O   O24       1.0  0.4990200000000001  0.2564  0.41985  1.0000
  O   O25       1.0  0.2724  0.52816  0.42914  1.0000
  O   O26       1.0  0.25191  0.74057  0.42301999999999995  1.0000
  O   O27       1.0  0.97281  0.49923  0.79558  1.0000
  H   H22       1.0  0.9398  0.42991  0.79668  1.0000
  O   O28       1.0  0.40937999999999997  0.24789999999999998  0.70421  1.0000
  H   H23       1.0  0.42736  0.17219  0.67033  1.0000
  C   C51       1.0  0.21263000000000007  0.89311  0.82969  1.0000
  O   O29       1.0  0.2922699999999998  0.8627300000000001  0.88028  1.0000
  O   O30       1.0  0.14804  0.03021  0.80154  1.0000
  H   H24       1.0  0.17334999999999998  0.09474000000000002  0.82836  1.0000
  O   O31       1.0  0.7727499999999999  0.36363  0.2939  1.0000
  H   H25       1.0  0.8200399999999999  0.29089  0.25663  1.0000
  O   O32       1.0  0.78636  0.40843000000000007  0.14416  1.0000
  H   H26       1.0  0.8830200000000002  0.35365  0.16315  1.0000
  O   O33       1.0  0.42051  0.32066  0.1583  1.0000
  H   H27       1.0  0.3346799999999999  0.37929  0.18691  1.0000
  C   C52       1.0  0.47602000000000017  0.9195699999999999  0.65436  1.0000
  O   O34       1.0  0.47339  0.9732000000000001  0.59661  1.0000
  O   O35       1.0  0.34976000000000007  0.94617  0.68442  1.0000
  H   H28       1.0  0.36561  0.8856100000000001  0.7275199999999998  1.0000
  C   C53       1.0  0.042489999999999944  0.5346800000000002  0.34585  1.0000
  O   O36       1.0  0.0015699999999999764  0.57756  0.40646999999999994  1.0000
  O   O37       1.0  0.02979999999999995  0.42269000000000007  0.3184  1.0000
  H   H29       1.0  0.99143  0.3819  0.35481  1.0000
  O   O38       1.0  0.9240400000000001  0.71911  0.76316  1.0000
  H   H30       1.0  0.86897  0.80091  0.73166  1.0000
  C   C54       1.0  0.9292199999999999  0.61162  0.62543  1.0000
  O   O39       1.0  0.021679999999999977  0.50827  0.5939899999999999  1.0000
  O   O40       1.0  0.8980799999999998  0.7471500000000001  0.60417  1.0000
  H   H31       1.0  0.9569999999999999  0.74555  0.56201  1.0000
  O   O41       1.0  0.48908000000000007  0.62966  0.7127  1.0000
  H   H32       1.0  0.47158  0.55741  0.73516  1.0000
