data_image0
_chemical_formula_structural       C38Cu2H9N2O9CH3C2H5C2H5OCH3OCH3C2H5OCH3OCH3OCH3OCH3C2H5
_chemical_formula_sum              "C53 Cu2 H50 N2 O15"
_cell_length_a       14.97557
_cell_length_b       10.86113
_cell_length_c       9.733300000000002
_cell_angle_alpha    91.056
_cell_angle_beta     89.34863
_cell_angle_gamma    95.75377

_symmetry_space_group_name_H-M    'P 1'
_symmetry_Int_Tables_number       1

loop_
  _symmetry_equiv_pos_as_xyz
  'x,y,z'

loop_
  _atom_site_type_symbol
  _atom_site_label
  _atom_site_symmetry_multiplicity
  _atom_site_fract_x
  _atom_site_fract_y
  _atom_site_fract_z
  _atom_site_occupancy
  C   C1        1.0  0.48996000000000006  0.26113  0.50043  1.0000
  C   C2        1.0  0.9162600000000001  0.61835  0.49927000000000005  1.0000
  C   C3        1.0  0.93528  0.27843  0.53309  1.0000
  C   C4        1.0  0.02840000000000001  0.27586  0.53808  1.0000
  C   C5        1.0  0.08489  0.38621  0.52226  1.0000
  C   C6        1.0  0.04738  0.50037  0.51243  1.0000
  C   C7        1.0  0.1039  0.61157  0.50549  1.0000
  C   C8        1.0  0.06771  0.72448  0.50389  1.0000
  C   C9        1.0  0.97478  0.73082  0.49781000000000003  1.0000
  C   C10       1.0  0.17838  0.38533999999999996  0.51757  1.0000
  C   C11       1.0  0.23314  0.49621999999999994  0.50421  1.0000
  C   C12       1.0  0.32933  0.49621999999999994  0.50088  1.0000
  C   C13       1.0  0.1966  0.60868  0.50082  1.0000
  C   C14       1.0  0.45591  0.12396  0.76217  1.0000
  C   C15       1.0  0.48903  0.07473  0.8791700000000001  1.0000
  C   C16       1.0  0.47622  0.94543  0.8901100000000001  1.0000
  C   C17       1.0  0.45048  0.8750299999999999  0.77101  1.0000
  C   C18       1.0  0.46292  0.93115  0.63953  1.0000
  C   C19       1.0  0.46481  0.06141  0.63553  1.0000
  C   C20       1.0  0.46813999999999995  0.12348  0.50748  1.0000
  C   C21       1.0  0.44349  0.05186999999999999  0.39022  1.0000
  C   C22       1.0  0.43226  0.92141  0.39742  1.0000
  C   C23       1.0  0.48726  0.73437  0.50276  1.0000
  C   C24       1.0  0.4622  0.8636399999999999  0.51325  1.0000
  C   C25       1.0  0.63805  0.63486  0.14758  1.0000
  C   C26       1.0  0.71833  0.68004  0.08549  1.0000
  C   C27       1.0  0.7255  0.6719  0.9420900000000001  1.0000
  C   C28       1.0  0.64591  0.64143  0.86623  1.0000
  C   C29       1.0  0.57117  0.56613  0.9273300000000001  1.0000
  C   C30       1.0  0.56944  0.5651  0.07576  1.0000
  C   C31       1.0  0.4306100000000001  0.44272  0.07116  1.0000
  C   C32       1.0  0.42918  0.45081  0.92518  1.0000
  C   C33       1.0  0.67087  0.50178  0.49943999999999994  1.0000
  C   C34       1.0  0.82205  0.61511  0.49183  1.0000
  C   C35       1.0  0.76777  0.50279  0.49921  1.0000
  C   C36       1.0  0.80511  0.39157999999999993  0.5138200000000002  1.0000
  C   C37       1.0  0.89787  0.39067  0.5187  1.0000
  C   C38       1.0  0.95379  0.50339  0.51038  1.0000
  Cu  Cu1       1.0  0.49999  0.49999  0.64066  1.0000
  Cu  Cu2       1.0  0.50001  0.50001  0.35934  1.0000
  H   H1        1.0  0.7884700000000001  0.69746  0.48106000000000004  1.0000
  H   H2        1.0  0.62971  0.6608799999999999  0.25222  1.0000
  H   H3        1.0  0.76157  0.3058  0.52134  1.0000
  H   H4        1.0  0.37077  0.41175  0.8699400000000002  1.0000
  H   H5        1.0  0.89231  0.1923  0.54093  1.0000
  H   H6        1.0  0.20899  0.29929  0.52351  1.0000
  H   H7        1.0  0.24082  0.69356  0.49460999999999994  1.0000
  H   H8        1.0  0.11288999999999999  0.8088899999999999  0.5065  1.0000
  H   H9        1.0  0.42893  0.09664999999999999  0.29609  1.0000
  N   N1        1.0  0.50086  0.50121  0.14791  1.0000
  N   N2        1.0  0.50089  0.50129  0.8520400000000001  1.0000
  O   O1        1.0  0.49999  0.31964  0.61881  1.0000
  O   O2        1.0  0.5  0.31966  0.38124  1.0000
  O   O3        1.0  0.37025  0.49996  0.6188  1.0000
  O   O4        1.0  0.37026  0.49998  0.38123  1.0000
  O   O5        1.0  0.5  0.68034  0.61876  1.0000
  O   O6        1.0  0.50001  0.68036  0.38119  1.0000
  O   O7        1.0  0.62974  0.50002  0.61877  1.0000
  O   O8        1.0  0.62975  0.50004  0.3812  1.0000
  O   O9        1.0  0.39638  0.2126  0.77943  1.0000
  C   C39       1.0  0.30767  0.15696  0.7643  1.0000
  H   H10       1.0  0.26099000000000006  0.22713000000000003  0.79021  1.0000
  H   H11       1.0  0.2927600000000001  0.07864  0.8359400000000001  1.0000
  H   H12       1.0  0.29441  0.12562  0.65637  1.0000
  C   C40       1.0  0.52733  0.16221  0.99077  1.0000
  C   C41       1.0  0.62979  0.17797  0.98265  1.0000
  H   H13       1.0  0.65815  0.08748  0.98112  1.0000
  H   H14       1.0  0.65204  0.22751  0.88741  1.0000
  H   H15       1.0  0.6568  0.23359999999999997  0.07252  1.0000
  H   H16       1.0  0.50593  0.25461  0.97577  1.0000
  H   H17       1.0  0.50267  0.13472  0.09396  1.0000
  C   C42       1.0  0.46585  0.88812  0.02923  1.0000
  C   C43       1.0  0.5541  0.88869  0.10455000000000002  1.0000
  H   H18       1.0  0.60596  0.8589999999999999  0.03365  1.0000
  H   H19       1.0  0.57685  0.97949  0.15154  1.0000
  H   H20       1.0  0.54499  0.82414  0.19056  1.0000
  H   H21       1.0  0.41925  0.94198  0.08775  1.0000
  H   H22       1.0  0.43505  0.79084  0.02335  1.0000
  O   O10       1.0  0.40006  0.7618899999999998  0.78573  1.0000
  C   C44       1.0  0.30827  0.781  0.78594  1.0000
  H   H23       1.0  0.28927  0.82617  0.6903  1.0000
  H   H24       1.0  0.2906  0.83678  0.8775000000000001  1.0000
  H   H25       1.0  0.26804  0.68971  0.79142  1.0000
  O   O11       1.0  0.38615  0.84831  0.2985400000000001  1.0000
  C   C45       1.0  0.29697  0.87982  0.29158  1.0000
  H   H26       1.0  0.29391  0.96639  0.23352999999999996  1.0000
  H   H27       1.0  0.26589  0.8899999999999999  0.3952  1.0000
  H   H28       1.0  0.25605  0.8045800000000001  0.23561  1.0000
  C   C46       1.0  0.35585  0.3571  0.1336  1.0000
  C   C47       1.0  0.26588  0.41250999999999993  0.13059  1.0000
  H   H29       1.0  0.27212  0.50851  0.1731  1.0000
  H   H30       1.0  0.24125  0.41424  0.02353  1.0000
  H   H31       1.0  0.21543  0.35494  0.19245  1.0000
  H   H32       1.0  0.34887  0.2685  0.07374  1.0000
  H   H33       1.0  0.37120999999999993  0.32937  0.23805  1.0000
  O   O12       1.0  0.78809  0.73381  0.16525  1.0000
  C   C48       1.0  0.76527  0.84935  0.21675000000000003  1.0000
  H   H34       1.0  0.71496  0.83797  0.30145  1.0000
  H   H35       1.0  0.74231  0.9082599999999998  0.13476  1.0000
  H   H36       1.0  0.82544  0.90163  0.25947  1.0000
  O   O13       1.0  0.80689  0.68541  0.87013  1.0000
  C   C49       1.0  0.86211  0.7934099999999998  0.908  1.0000
  H   H37       1.0  0.90628  0.7746199999999999  0.9943100000000001  1.0000
  H   H38       1.0  0.82339  0.8735499999999999  0.9313600000000001  1.0000
  H   H39       1.0  0.9069300000000002  0.82011  0.81974  1.0000
  O   O14       1.0  0.63902  0.69168  0.73759  1.0000
  C   C50       1.0  0.67659  0.8162099999999999  0.72714  1.0000
  H   H40       1.0  0.7479699999999999  0.8201599999999999  0.69498  1.0000
  H   H41       1.0  0.66832  0.87195  0.8222600000000001  1.0000
  H   H42       1.0  0.64206  0.8606  0.64419  1.0000
  O   O15       1.0  0.06427  0.16455  0.5529200000000001  1.0000
  C   C51       1.0  0.06108  0.13469  0.69339  1.0000
  H   H43       1.0  0.09578  0.21021  0.75794  1.0000
  H   H44       1.0  0.09642  0.05079  0.70712  1.0000
  H   H45       1.0  0.99062  0.11322999999999998  0.72967  1.0000
  C   C52       1.0  0.9443  0.86014  0.49475  1.0000
  C   C53       1.0  0.9851600000000001  0.93339  0.37212  1.0000
  H   H46       1.0  0.05788000000000001  0.9604099999999999  0.38666  1.0000
  H   H47       1.0  0.97634  0.8774899999999999  0.27563  1.0000
  H   H48       1.0  0.95214  0.0198  0.36173  1.0000
  H   H49       1.0  0.87095  0.86189  0.49249  1.0000
  H   H50       1.0  0.96641  0.9099899999999999  0.5908500000000001  1.0000
