data_image0
_chemical_formula_structural       C56Cr6H25O26FCHOCHO
_chemical_formula_sum              "C58 Cr6 H27 O28 F1"
_cell_length_a       10.95641
_cell_length_b       10.9175
_cell_length_c       18.77265
_cell_angle_alpha    90.25768999999998
_cell_angle_beta     89.51313
_cell_angle_gamma    120.12532

_space_group_name_H-M_alt    "P 1"
_space_group_IT_number       1

loop_
  _space_group_symop_operation_xyz
  'x, y, z'

loop_
  _atom_site_type_symbol
  _atom_site_label
  _atom_site_symmetry_multiplicity
  _atom_site_fract_x
  _atom_site_fract_y
  _atom_site_fract_z
  _atom_site_occupancy
  C   C1        1.0  0.90388  0.6111800000000001  0.61129  1.0000
  C   C2        1.0  0.32592  0.55965  0.78475  1.0000
  C   C3        1.0  0.35646  0.57233  0.7119  1.0000
  C   C4        1.0  0.34133  0.6749800000000001  0.6733400000000002  1.0000
  C   C5        1.0  0.84945  0.15764  0.82028  1.0000
  C   C6        1.0  0.04113  0.09567  0.8068  1.0000
  C   C7        1.0  0.12161  0.05842  0.76368  1.0000
  C   C8        1.0  0.10334  0.04842  0.69046  1.0000
  C   C9        1.0  0.006639999999999999  0.0788  0.65976  1.0000
  C   C10       1.0  0.92544  0.11886000000000001  0.70223  1.0000
  C   C11       1.0  0.9382599999999999  0.12351  0.7776400000000002  1.0000
  C   C12       1.0  0.2765  0.63549  0.60249  1.0000
  C   C13       1.0  0.72389  0.15365  0.71393  1.0000
  C   C14       1.0  0.75542  0.19131  0.7854000000000002  1.0000
  C   C15       1.0  0.59386  0.13135  0.68706  1.0000
  C   C16       1.0  0.50995  0.16896000000000005  0.72683  1.0000
  C   C17       1.0  0.55433  0.22965000000000002  0.7935900000000002  1.0000
  C   C18       1.0  0.67932  0.24651  0.82161  1.0000
  C   C19       1.0  0.82649  0.14725  0.67055  1.0000
  C   C20       1.0  0.73815  0.5398000000000001  0.71461  1.0000
  C   C21       1.0  0.71216  0.55808  0.78525  1.0000
  C   C22       1.0  0.82487  0.64249  0.83004  1.0000
  C   C23       1.0  0.8574399999999999  0.22025000000000003  0.6009400000000001  1.0000
  C   C24       1.0  0.96377  0.70651  0.80369  1.0000
  C   C25       1.0  0.9880100000000002  0.6967600000000002  0.73199  1.0000
  C   C26       1.0  0.8755499999999999  0.61589  0.68681  1.0000
  C   C27       1.0  0.40349  0.60345  0.29818  1.0000
  C   C28       1.0  0.43912000000000007  0.6205200000000001  0.22693000000000002  1.0000
  C   C29       1.0  0.4324800000000001  0.7244700000000001  0.18705000000000002  1.0000
  C   C30       1.0  0.39822000000000013  0.8186600000000003  0.22073  1.0000
  C   C31       1.0  0.35701999999999995  0.7983500000000001  0.29227  1.0000
  C   C32       1.0  0.35359  0.68618  0.33034  1.0000
  C   C33       1.0  0.77584  0.24044000000000001  0.27666  1.0000
  C   C34       1.0  0.86999  0.63669  0.39536  1.0000
  C   C35       1.0  0.77609  0.22739000000000004  0.20392000000000002  1.0000
  C   C36       1.0  0.85058  0.16836000000000004  0.17247  1.0000
  C   C37       1.0  0.9372999999999999  0.13648  0.21408000000000002  1.0000
  C   C38       1.0  0.9407299999999998  0.15434  0.28756  1.0000
  C   C39       1.0  0.8555399999999999  0.20135000000000006  0.31913  1.0000
  C   C40       1.0  0.96071  0.7432100000000001  0.27915  1.0000
  C   C41       1.0  0.95072  0.7426000000000003  0.20642  1.0000
  C   C42       1.0  0.8224899999999999  0.65066  0.17321  1.0000
  C   C43       1.0  0.71104  0.54489  0.21301  1.0000
  C   C44       1.0  0.72164  0.54394  0.2869  1.0000
  C   C45       1.0  0.27583  0.6366  0.39746  1.0000
  C   C46       1.0  0.84544  0.64646  0.32035  1.0000
  C   C47       1.0  0.8095499999999999  0.1043  0.89463  1.0000
  C   C48       1.0  0.39399  0.6999  0.89618  1.0000
  C   C49       1.0  0.79881  0.6890800000000002  0.89823  1.0000
  C   C50       1.0  0.8089199999999999  0.10827  0.10192  1.0000
  C   C51       1.0  0.4602900000000001  0.7292500000000001  0.11070000000000002  1.0000
  C   C52       1.0  0.7990499999999999  0.69155  0.10331  1.0000
  C   C53       1.0  0.8642899999999999  0.23423000000000002  0.39424  1.0000
  C   C54       1.0  0.3440400000000001  0.7883600000000002  0.70992  1.0000
  C   C55       1.0  0.35155999999999993  0.7944300000000001  0.7840300000000001  1.0000
  C   C56       1.0  0.34266  0.67999  0.82237  1.0000
  Cr  Cr1       1.0  0.7916599999999999  0.39025000000000004  0.49993  1.0000
  Cr  Cr2       1.0  0.09852000000000002  0.7082900000000001  0.50054  1.0000
  Cr  Cr3       1.0  0.10976999999999999  0.40143  0.4994800000000001  1.0000
  Cr  Cr4       1.0  0.8747899999999998  0.9258900000000001  7e-05  1.0000
  Cr  Cr5       1.0  0.57412  0.94867  0.9993  1.0000
  Cr  Cr6       1.0  0.5514200000000001  0.6253200000000002  0.00092  1.0000
  H   H1        1.0  0.3346700000000001  0.8690200000000001  0.6812800000000001  1.0000
  H   H2        1.0  0.41232999999999986  0.15385  0.7051100000000001  1.0000
  H   H3        1.0  0.55606  0.08373  0.6353  1.0000
  H   H4        1.0  0.4910999999999999  0.26208  0.82408  1.0000
  H   H5        1.0  0.65059  0.47071  0.6812200000000002  1.0000
  H   H6        1.0  0.6041700000000001  0.5111900000000001  0.8039300000000003  1.0000
  H   H7        1.0  0.052960000000000056  0.77304  0.83726  1.0000
  H   H8        1.0  0.09370000000000016  0.7558500000000002  0.71113  1.0000
  H   H9        1.0  0.4043499999999999  0.5175  0.32636  1.0000
  H   H10       1.0  0.4645699999999999  0.54709  0.20191  1.0000
  H   H11       1.0  0.3955800000000001  0.9022300000000002  0.19117  1.0000
  H   H12       1.0  0.3202500000000001  0.8644400000000001  0.31633  1.0000
  H   H13       1.0  0.71346  0.28248  0.29953  1.0000
  H   H14       1.0  0.7099600000000001  0.25438  0.17285  1.0000
  H   H15       1.0  0.99549  0.09015  0.19061  1.0000
  H   H16       1.0  0.0065700000000000055  0.12863  0.3196200000000001  1.0000
  H   H17       1.0  0.06060999999999998  0.81888  0.30272  1.0000
  H   H18       1.0  0.04119999999999998  0.82205  0.17687  1.0000
  H   H19       1.0  0.6146299999999998  0.46751000000000004  0.18742000000000003  1.0000
  H   H20       1.0  0.63414  0.46359  0.31766  1.0000
  H   H21       1.0  0.19938  0.03807  0.7874  1.0000
  H   H22       1.0  0.16435999999999995  0.01712  0.65729  1.0000
  H   H23       1.0  0.0692  0.11052  0.86221  1.0000
  H   H24       1.0  0.9921  0.0657  0.6027  1.0000
  H   H25       1.0  0.71228  0.2962  0.8733700000000001  1.0000
  O   O1        1.0  0.7665  0.25004  0.57979  1.0000
  O   O2        1.0  0.21869  0.7019  0.42596  1.0000
  O   O3        1.0  0.24949  0.51644  0.4194200000000001  1.0000
  O   O4        1.0  0.98288  0.28191  0.42489  1.0000
  O   O5        1.0  0.99998  0.49999  0.49998  1.0000
  O   O6        1.0  0.8951100000000001  0.8068600000000001  0.92043  1.0000
  O   O7        1.0  0.87226  0.04697  0.925  1.0000
  O   O8        1.0  0.69143  0.08506  0.91855  1.0000
  O   O9        1.0  0.45149000000000006  0.8224600000000002  0.92525  1.0000
  O   O10       1.0  0.41333  0.60336  0.9204400000000001  1.0000
  O   O11       1.0  0.67611  0.62625  0.92675  1.0000
  O   O12       1.0  0.79857  0.51678  0.57478  1.0000
  O   O13       1.0  0.89535  0.8098700000000001  0.08095000000000001  1.0000
  O   O14       1.0  0.87249  0.04976000000000001  0.0738  1.0000
  O   O15       1.0  0.69168  0.08807  0.07907  1.0000
  O   O16       1.0  0.45171999999999995  0.82525  0.07405  1.0000
  O   O17       1.0  0.41358  0.60637  0.08096  1.0000
  O   O18       1.0  0.67634  0.62904  0.07555  1.0000
  O   O19       1.0  0.66678  0.8332900000000002  9e-05  1.0000
  O   O20       1.0  0.9839999999999998  0.73295  0.58109  1.0000
  O   O21       1.0  0.21859999999999996  0.70089  0.57476  1.0000
  O   O22       1.0  0.24939  0.51535  0.5799400000000001  1.0000
  O   O23       1.0  0.9827899999999998  0.2809  0.5737  1.0000
  O   O24       1.0  0.7666  0.25113  0.4192600000000001  1.0000
  O   O25       1.0  0.79866  0.51779  0.42598000000000014  1.0000
  O   O26       1.0  0.9841000000000002  0.7340400000000002  0.42057  1.0000
  F   F1        1.0  0.36064000000000007  0.9083000000000001  0.8182800000000002  1.0000
  C   C57       1.0  0.27167  0.42089000000000004  0.82088  1.0000
  H   H26       1.0  0.30932  0.34937  0.80697  1.0000
  O   O27       1.0  0.18238000000000001  0.3856300000000001  0.86783  1.0000
  C   C58       1.0  0.40207  0.47915  0.6764100000000001  1.0000
  H   H27       1.0  0.37287000000000003  0.3755700000000001  0.69697  1.0000
  O   O28       1.0  0.47748  0.52032  0.62338  1.0000
