data_image0
_chemical_formula_structural       O4C2O4C2O2V2C2H2C26H6C4O4C2O4C2O2V2C3H7C3H13
_chemical_formula_sum              "O20 C46 V4 H28"
_cell_length_a       18.36531
_cell_length_b       7.07697
_cell_length_c       13.41729
_cell_angle_alpha    90.00039
_cell_angle_beta     69.76978
_cell_angle_gamma    89.9999

_symmetry_space_group_name_H-M    'P 1'
_symmetry_Int_Tables_number       1

loop_
  _symmetry_equiv_pos_as_xyz
  'x,y,z'

loop_
  _atom_site_type_symbol
  _atom_site_label
  _atom_site_symmetry_multiplicity
  _atom_site_fract_x
  _atom_site_fract_y
  _atom_site_fract_z
  _atom_site_occupancy
  O   O1        1.0  0.45388  0.5062  0.15001  1.0000
  O   O2        1.0  0.54612  0.0062  0.8499900000000002  1.0000
  O   O3        1.0  0.60408  0.17777  0.007280000000000001  1.0000
  O   O4        1.0  0.39591999999999994  0.6777700000000001  0.99272  1.0000
  C   C1        1.0  0.63607  0.34473  0.0017900000000000001  1.0000
  C   C2        1.0  0.3639299999999999  0.8447300000000002  0.99821  1.0000
  O   O5        1.0  0.45801  0.17664  0.15913  1.0000
  O   O6        1.0  0.54199  0.6766400000000002  0.84087  1.0000
  O   O7        1.0  0.39901  0.00401  0.00293  1.0000
  O   O8        1.0  0.6009899999999999  0.50401  0.9970700000000002  1.0000
  C   C3        1.0  0.44091  0.34460000000000013  0.20042000000000001  1.0000
  C   C4        1.0  0.55908  0.8446000000000002  0.79957  1.0000
  O   O9        1.0  0.4808099999999999  0.33844000000000013  0.94857  1.0000
  O   O10       1.0  0.51919  0.83844  0.05143000000000001  1.0000
  V   V1        1.0  0.50356  0.06449  0.009540000000000002  1.0000
  V   V2        1.0  0.49644  0.56449  0.99046  1.0000
  C   C5        1.0  0.58888  0.76769  0.5154800000000002  1.0000
  C   C6        1.0  0.41111999999999993  0.26772  0.4845100000000001  1.0000
  H   H1        1.0  0.48999000000000004  0.79524  0.65659  1.0000
  H   H2        1.0  0.51001  0.29524  0.34340000000000004  1.0000
  C   C7        1.0  0.59654  0.8464100000000001  0.68522  1.0000
  C   C8        1.0  0.4034499999999999  0.34641  0.31477  1.0000
  C   C9        1.0  0.9587699999999998  0.90969  0.3772000000000001  1.0000
  C   C10       1.0  0.041219999999999965  0.40965  0.6228100000000001  1.0000
  C   C11       1.0  0.92728  0.91867  0.48739000000000005  1.0000
  C   C12       1.0  0.07270999999999998  0.41862000000000005  0.51261  1.0000
  C   C13       1.0  0.8483500000000002  0.88534  0.53988  1.0000
  C   C14       1.0  0.15164  0.38531000000000004  0.46012  1.0000
  C   C15       1.0  0.79879  0.83901  0.4826200000000001  1.0000
  C   C16       1.0  0.2012  0.33900000000000013  0.51738  1.0000
  C   C17       1.0  0.83287  0.81717  0.37065  1.0000
  C   C18       1.0  0.16712000000000002  0.31718  0.62935  1.0000
  C   C19       1.0  0.71644  0.82139  0.53168  1.0000
  C   C20       1.0  0.28355  0.3214000000000001  0.46832  1.0000
  C   C21       1.0  0.67053  0.77597  0.46815  1.0000
  C   C22       1.0  0.32946  0.276  0.53184  1.0000
  C   C23       1.0  0.7066599999999998  0.7467300000000002  0.3580000000000001  1.0000
  C   C24       1.0  0.29333999999999993  0.24676  0.64199  1.0000
  C   C25       1.0  0.78653  0.76505  0.3116  1.0000
  C   C26       1.0  0.21347000000000002  0.26507  0.68839  1.0000
  C   C27       1.0  0.67747  0.8548200000000001  0.64123  1.0000
  C   C28       1.0  0.32252  0.35482  0.35877  1.0000
  C   C29       1.0  0.55261  0.80436  0.62234  1.0000
  C   C30       1.0  0.44738  0.30438000000000004  0.3776500000000001  1.0000
  C   C31       1.0  0.91229  0.85901  0.31816  1.0000
  C   C32       1.0  0.08769999999999999  0.359  0.68184  1.0000
  H   H3        1.0  0.7080299999999999  0.88421  0.6950800000000003  1.0000
  H   H4        1.0  0.29195  0.3842100000000001  0.30491  1.0000
  H   H5        1.0  0.82806  0.8986  0.6250500000000001  1.0000
  H   H6        1.0  0.17193000000000003  0.39856000000000014  0.37495  1.0000
  H   H7        1.0  0.81144  0.7507200000000003  0.22625000000000003  1.0000
  H   H8        1.0  0.18855999999999998  0.25075  0.77375  1.0000
  C   C33       1.0  0.21651000000000004  0.8585600000000002  0.9999000000000001  1.0000
  C   C34       1.0  0.78349  0.35856000000000005  0.0001  1.0000
  C   C35       1.0  0.28362999999999994  0.85288  0.9988000000000001  1.0000
  C   C36       1.0  0.71637  0.35288  0.0012  1.0000
  O   O11       1.0  0.89903  0.20549000000000006  0.00279  1.0000
  O   O12       1.0  0.10096999999999992  0.70549  0.9972100000000003  1.0000
  O   O13       1.0  0.04199999999999998  0.53637  0.8408400000000001  1.0000
  O   O14       1.0  0.958  0.03637000000000001  0.15916000000000005  1.0000
  C   C37       1.0  0.05415999999999997  0.36752  0.79848  1.0000
  C   C38       1.0  0.94584  0.86752  0.20152000000000003  1.0000
  O   O15       1.0  0.89593  0.53507  0.99269  1.0000
  O   O16       1.0  0.10407  0.03507  0.0073100000000000005  1.0000
  O   O17       1.0  0.9538700000000001  0.70752  0.15004  1.0000
  O   O18       1.0  0.046130000000000025  0.20752  0.84996  1.0000
  C   C39       1.0  0.8639300000000001  0.3665900000000001  0.9989900000000003  1.0000
  C   C40       1.0  0.13607  0.86659  0.00101  1.0000
  O   O19       1.0  0.01919999999999999  0.3743400000000001  0.05134000000000001  1.0000
  O   O20       1.0  0.9807999999999999  0.87434  0.94866  1.0000
  V   V3        1.0  0.99644  0.64835  0.99047  1.0000
  V   V4        1.0  0.00356  0.14835000000000007  0.00953  1.0000
  C   C41       1.0  0.6614799999999998  0.74149  0.2836000000000001  1.0000
  C   C42       1.0  0.63665  0.9443  0.27273  1.0000
  C   C43       1.0  0.58971  0.9523200000000003  0.20111000000000004  1.0000
  H   H9        1.0  0.62493  0.89654  0.1217  1.0000
  H   H10       1.0  0.53523  0.86999  0.23571000000000003  1.0000
  H   H11       1.0  0.57559  0.10214  0.19433000000000003  1.0000
  H   H12       1.0  0.60119  0.00415  0.35107  1.0000
  H   H13       1.0  0.68894  0.03499  0.23856  1.0000
  H   H14       1.0  0.69794  0.68808  0.20389  1.0000
  H   H15       1.0  0.61153  0.64287  0.3114  1.0000
  C   C44       1.0  0.33852  0.24152000000000007  0.7164000000000001  1.0000
  C   C45       1.0  0.36333  0.4443300000000001  0.72727  1.0000
  C   C46       1.0  0.41029999999999994  0.45236  0.7988600000000001  1.0000
  H   H16       1.0  0.37511  0.39652  0.87826  1.0000
  H   H17       1.0  0.46477999999999997  0.3700800000000001  0.7642100000000002  1.0000
  H   H18       1.0  0.42441000000000006  0.6021700000000002  0.80566  1.0000
  H   H19       1.0  0.39876999999999996  0.50422  0.6489400000000001  1.0000
  H   H20       1.0  0.31104000000000004  0.53499  0.76148  1.0000
  H   H21       1.0  0.30206  0.18810000000000002  0.7961  1.0000
  H   H22       1.0  0.38847  0.14292000000000002  0.68859  1.0000
  H   H23       1.0  0.55142  0.7334200000000002  0.4713600000000001  1.0000
  H   H24       1.0  0.4485799999999999  0.23346  0.52863  1.0000
  H   H25       1.0  0.019599999999999982  0.94281  0.33769000000000005  1.0000
  H   H26       1.0  0.9803899999999999  0.44276000000000004  0.6623200000000002  1.0000
  H   H27       1.0  0.96398  0.9560700000000002  0.5325  1.0000
  H   H28       1.0  0.03600999999999998  0.4559900000000001  0.4675100000000001  1.0000
