data_image0
_chemical_formula_structural       C140Cr12H68O52F4
_chemical_formula_sum              "C140 Cr12 H68 O52 F4"
_cell_length_a       18.99954
_cell_length_b       11.07208
_cell_length_c       18.68534
_cell_angle_alpha    89.84276
_cell_angle_beta     90.82483000000002
_cell_angle_gamma    89.91602

_symmetry_space_group_name_H-M    'P 1'
_symmetry_Int_Tables_number       1

loop_
  _symmetry_equiv_pos_as_xyz
  'x,y,z'

loop_
  _atom_site_type_symbol
  _atom_site_label
  _atom_site_symmetry_multiplicity
  _atom_site_fract_x
  _atom_site_fract_y
  _atom_site_fract_z
  _atom_site_occupancy
  C   C1        1.0  0.7156499999999999  0.33756  0.13834999999999995  1.0000
  C   C2        1.0  0.26958999999999994  0.37604  0.85395  1.0000
  C   C3        1.0  0.23034999999999997  0.87616  0.14599999999999996  1.0000
  C   C4        1.0  0.78433  0.8374299999999998  0.86168  1.0000
  C   C5        1.0  0.44534  0.10358  0.03569  1.0000
  C   C6        1.0  0.49313999999999997  0.04499  0.9793  1.0000
  C   C7        1.0  0.006520000000000001  0.5449599999999999  0.021369999999999997  1.0000
  C   C8        1.0  0.05444  0.60258  0.9646599999999999  1.0000
  C   C9        1.0  0.77014  0.8578399999999998  0.9383099999999999  1.0000
  C   C10       1.0  0.24631999999999998  0.9087199999999999  0.07157  1.0000
  C   C11       1.0  0.25329  0.4089899999999999  0.92821  1.0000
  C   C12       1.0  0.72993  0.35832  0.06179  1.0000
  C   C13       1.0  0.7108699999999999  0.81124  0.97667  1.0000
  C   C14       1.0  0.30381  0.85824  0.03418  1.0000
  C   C15       1.0  0.19648  0.35726999999999987  0.96613  1.0000
  C   C16       1.0  0.7897099999999999  0.31271999999999994  0.023889999999999998  1.0000
  C   C17       1.0  0.71089  0.82213  0.05247  1.0000
  C   C18       1.0  0.30002  0.8516399999999998  0.95841  1.0000
  C   C19       1.0  0.20056  0.35135  0.04195  1.0000
  C   C20       1.0  0.7896299999999998  0.32252999999999993  0.9480499999999998  1.0000
  C   C21       1.0  0.82114  0.9303299999999999  0.04942  1.0000
  C   C22       1.0  0.18824  0.9582099999999998  0.95924  1.0000
  C   C23       1.0  0.31105  0.46121999999999996  0.04006  1.0000
  C   C24       1.0  0.6785599999999999  0.42876999999999993  0.95014  1.0000
  C   C25       1.0  0.82559  0.9107399999999998  0.977  1.0000
  C   C26       1.0  0.19037  0.9607199999999998  0.03253999999999999  1.0000
  C   C27       1.0  0.30861  0.4632799999999999  0.96675  1.0000
  C   C28       1.0  0.67408  0.4097299999999999  0.02268  1.0000
  C   C29       1.0  0.65138  0.7549399999999999  0.9443599999999999  1.0000
  C   C30       1.0  0.36473  0.81353  0.06945999999999998  1.0000
  C   C31       1.0  0.13593  0.31071999999999994  0.9313499999999999  1.0000
  C   C32       1.0  0.8498  0.25851999999999997  0.05669  1.0000
  C   C33       1.0  0.08582  0.24678  0.96956  1.0000
  C   C34       1.0  0.90107  0.20231999999999994  0.01575  1.0000
  C   C35       1.0  0.60043  0.6987999999999998  0.98582  1.0000
  C   C36       1.0  0.41566  0.7506499999999999  0.031799999999999995  1.0000
  C   C37       1.0  0.6074299999999999  0.69459  0.05966  1.0000
  C   C38       1.0  0.40717999999999993  0.7313799999999998  0.9587  1.0000
  C   C39       1.0  0.09465  0.22846999999999998  0.04276  1.0000
  C   C40       1.0  0.8939399999999998  0.19649  0.9419499999999998  1.0000
  C   C41       1.0  0.6617399999999999  0.75677  0.09301  1.0000
  C   C42       1.0  0.35019  0.7817499999999997  0.92207  1.0000
  C   C43       1.0  0.15123  0.28049  0.07888  1.0000
  C   C44       1.0  0.83924  0.25739999999999996  0.90806  1.0000
  C   C45       1.0  0.53285  0.15552  0.14439  1.0000
  C   C46       1.0  0.46502999999999994  0.15431  0.85678  1.0000
  C   C47       1.0  0.03485  0.65455  0.14327  1.0000
  C   C48       1.0  0.9670999999999998  0.65523  0.8556299999999998  1.0000
  C   C49       1.0  0.7607299999999998  0.89726  0.08621999999999999  1.0000
  C   C50       1.0  0.24550999999999998  0.9136099999999998  0.92118  1.0000
  C   C51       1.0  0.25454  0.41488  0.07866  1.0000
  C   C52       1.0  0.73933  0.39651999999999993  0.91374  1.0000
  C   C53       1.0  0.49215  0.15247  0.57227  1.0000
  C   C54       1.0  0.50306  0.17014999999999997  0.4236  1.0000
  C   C55       1.0  0.005559999999999999  0.6740899999999999  0.57893  1.0000
  C   C56       1.0  0.007199999999999997  0.6664  0.4281699999999999  1.0000
  C   C57       1.0  0.47667  0.05072999999999998  0.52707  1.0000
  C   C58       1.0  0.46925  0.07024999999999999  0.45315999999999995  1.0000
  C   C59       1.0  0.02434  0.56943  0.54311  1.0000
  C   C60       1.0  0.006859999999999999  0.56107  0.47026  1.0000
  C   C61       1.0  0.5301699999999999  0.26117  0.4686  1.0000
  C   C62       1.0  0.51938  0.25694999999999996  0.54187  1.0000
  C   C63       1.0  0.004569999999999999  0.7782699999999999  0.4638  1.0000
  C   C64       1.0  0.9976499999999999  0.78128  0.53858  1.0000
  C   C65       1.0  0.47052  0.9296399999999999  0.5512399999999998  1.0000
  C   C66       1.0  0.43851  0.98052  0.4091999999999999  1.0000
  C   C67       1.0  0.04652  0.46640999999999994  0.5803899999999999  1.0000
  C   C68       1.0  0.9884799999999999  0.44771  0.44315999999999994  1.0000
  C   C69       1.0  0.03043  0.35483  0.55271  1.0000
  C   C70       1.0  0.9984399999999999  0.34643999999999997  0.48519  1.0000
  C   C71       1.0  0.44735  0.8389999999999997  0.50551  1.0000
  C   C72       1.0  0.43189  0.86375  0.43435999999999997  1.0000
  C   C73       1.0  0.7416799999999999  0.95155  0.5849399999999999  1.0000
  C   C74       1.0  0.24712999999999996  0.9026699999999999  0.43043  1.0000
  C   C75       1.0  0.26557  0.4015299999999999  0.56677  1.0000
  C   C76       1.0  0.7612199999999999  0.45281  0.4120999999999999  1.0000
  C   C77       1.0  0.79354  0.010269999999999996  0.54629  1.0000
  C   C78       1.0  0.20471999999999999  0.9863099999999999  0.46497999999999995  1.0000
  C   C79       1.0  0.32489  0.44204999999999994  0.52593  1.0000
  C   C80       1.0  0.7217999999999999  0.55056  0.43815999999999994  1.0000
  C   C81       1.0  0.80266  0.9754699999999998  0.47544  1.0000
  C   C82       1.0  0.1878  0.96137  0.53563  1.0000
  C   C83       1.0  0.3244099999999999  0.4186399999999999  0.45227999999999996  1.0000
  C   C84       1.0  0.7173  0.56652  0.51278  1.0000
  C   C85       1.0  0.6792299999999999  0.9269199999999999  0.47302999999999995  1.0000
  C   C86       1.0  0.28506  0.8249499999999999  0.54691  1.0000
  C   C87       1.0  0.20138  0.36204  0.45822  1.0000
  C   C88       1.0  0.8184699999999999  0.4306  0.52699  1.0000
  C   C89       1.0  0.74398  0.9640299999999999  0.15167  1.0000
  C   C90       1.0  0.25712  0.9664199999999998  0.85016  1.0000
  C   C91       1.0  0.2429  0.46682  0.14977999999999997  1.0000
  C   C92       1.0  0.75603  0.4637299999999999  0.8482899999999998  1.0000
  C   C93       1.0  0.68035  0.919  0.54802  1.0000
  C   C94       1.0  0.2834  0.81499  0.47242999999999996  1.0000
  C   C95       1.0  0.20657  0.3553299999999999  0.53152  1.0000
  C   C96       1.0  0.81281  0.39911999999999986  0.45548  1.0000
  C   C97       1.0  0.84063  0.09116999999999999  0.57801  1.0000
  C   C98       1.0  0.16855  0.07873  0.42844999999999994  1.0000
  C   C99       1.0  0.38466999999999996  0.50401  0.55426  1.0000
  C   C100      1.0  0.67963  0.62197  0.39151  1.0000
  C   C101      1.0  0.90155  0.11972999999999999  0.54277  1.0000
  C   C102      1.0  0.10555  0.11952999999999997  0.45508999999999994  1.0000
  C   C103      1.0  0.44478999999999996  0.5208799999999999  0.5137  1.0000
  C   C104      1.0  0.6209  0.68082  0.41703  1.0000
  C   C105      1.0  0.9174  0.06235  0.4778899999999999  1.0000
  C   C106      1.0  0.08262  0.07688  0.52107  1.0000
  C   C107      1.0  0.44546  0.48678999999999994  0.44247999999999993  1.0000
  C   C108      1.0  0.60986  0.68354  0.49002  1.0000
  C   C109      1.0  0.86903  0.98749  0.44544  1.0000
  C   C110      1.0  0.12311  0.99917  0.56152  1.0000
  C   C111      1.0  0.38649  0.43245  0.41229  1.0000
  C   C112      1.0  0.6598  0.63622  0.53751  1.0000
  C   C113      1.0  0.74285  0.9442899999999999  0.4356  1.0000
  C   C114      1.0  0.23831  0.9044899999999999  0.57899  1.0000
  C   C115      1.0  0.25909  0.39953  0.41857999999999995  1.0000
  C   C116      1.0  0.76821  0.5070499999999999  0.558  1.0000
  C   C117      1.0  0.7334699999999998  0.38598  0.35039  1.0000
  C   C118      1.0  0.27254  0.37473  0.64286  1.0000
  C   C119      1.0  0.23053999999999997  0.87594  0.35579  1.0000
  C   C120      1.0  0.76624  0.8873599999999999  0.64977  1.0000
  C   C121      1.0  0.5322899999999999  0.15837  0.35246  1.0000
  C   C122      1.0  0.46680999999999995  0.15505999999999998  0.64619  1.0000
  C   C123      1.0  0.03257999999999999  0.65764  0.3538  1.0000
  C   C124      1.0  0.9697599999999998  0.6592399999999999  0.64821  1.0000
  C   C125      1.0  0.74046  0.97543  0.35919  1.0000
  C   C126      1.0  0.25519  0.96431  0.6466999999999999  1.0000
  C   C127      1.0  0.24440999999999996  0.46411999999999987  0.35269  1.0000
  C   C128      1.0  0.77154  0.5241899999999999  0.6361099999999998  1.0000
  C   C129      1.0  0.5496399999999999  0.21658  0.96597  1.0000
  C   C130      1.0  0.5019499999999999  0.27603  0.02264  1.0000
  C   C131      1.0  0.99815  0.7757199999999999  0.9767  1.0000
  C   C132      1.0  0.95032  0.7172399999999999  0.03369  1.0000
  C   C133      1.0  0.55841  0.10383999999999997  0.01399  1.0000
  C   C134      1.0  0.43644999999999995  0.21659  0.9876  1.0000
  C   C135      1.0  0.06354  0.71585  0.01209  1.0000
  C   C136      1.0  0.9413599999999999  0.6042  0.9863199999999999  1.0000
  C   C137      1.0  0.51017  0.16278999999999996  0.06964  1.0000
  C   C138      1.0  0.4848799999999999  0.15828999999999996  0.93234  1.0000
  C   C139      1.0  0.014989999999999998  0.65861  0.06769  1.0000
  C   C140      1.0  0.98972  0.66217  0.93036  1.0000
  Cr  Cr1       1.0  0.7728199999999998  0.16981999999999997  0.25264  1.0000
  Cr  Cr2       1.0  0.22718  0.16981999999999997  0.74736  1.0000
  Cr  Cr3       1.0  0.27282  0.66982  0.25264  1.0000
  Cr  Cr4       1.0  0.72718  0.6698200000000001  0.74736  1.0000
  Cr  Cr5       1.0  0.61504  0.32361  0.24914999999999998  1.0000
  Cr  Cr6       1.0  0.38496  0.32361  0.75085  1.0000
  Cr  Cr7       1.0  0.11503999999999999  0.82361  0.24914999999999998  1.0000
  Cr  Cr8       1.0  0.88496  0.82361  0.75085  1.0000
  Cr  Cr9       1.0  0.61672  0.011129999999999998  0.25066  1.0000
  Cr  Cr10      1.0  0.38328  0.011129999999999998  0.74934  1.0000
  Cr  Cr11      1.0  0.11671999999999999  0.51113  0.25066  1.0000
  Cr  Cr12      1.0  0.88328  0.51113  0.74934  1.0000
  H   H1        1.0  0.6090099999999999  0.057239999999999985  0.02627  1.0000
  H   H2        1.0  0.3855199999999999  0.26012  0.9741399999999998  1.0000
  H   H3        1.0  0.11459  0.75862  0.025389999999999996  1.0000
  H   H4        1.0  0.89069  0.55801  0.97427  1.0000
  H   H5        1.0  0.56093  0.33491  0.44732999999999995  1.0000
  H   H6        1.0  0.53482  0.33276  0.57505  1.0000
  H   H7        1.0  0.00608  0.8619799999999999  0.43392  1.0000
  H   H8        1.0  0.98481  0.86572  0.56437  1.0000
  H   H9        1.0  0.48832  0.8991999999999999  0.60327  1.0000
  H   H10       1.0  0.4251599999999999  0.9980899999999998  0.35357  1.0000
  H   H11       1.0  0.06839  0.47216  0.63419  1.0000
  H   H12       1.0  0.9631299999999999  0.43707  0.39132  1.0000
  H   H13       1.0  0.040339999999999994  0.278  0.58656  1.0000
  H   H14       1.0  0.98107  0.26326999999999995  0.46370999999999996  1.0000
  H   H15       1.0  0.44128  0.74929  0.52603  1.0000
  H   H16       1.0  0.41515  0.7924599999999999  0.39849  1.0000
  H   H17       1.0  0.62945  0.9175799999999997  0.44481999999999994  1.0000
  H   H18       1.0  0.32123999999999997  0.77103  0.57891  1.0000
  H   H19       1.0  0.1507  0.34640999999999994  0.43303  1.0000
  H   H20       1.0  0.8587399999999998  0.3863  0.5591699999999998  1.0000
  H   H21       1.0  0.83121  0.12873  0.63054  1.0000
  H   H22       1.0  0.18523999999999996  0.11094999999999998  0.3765899999999999  1.0000
  H   H23       1.0  0.38587  0.5464699999999999  0.60608  1.0000
  H   H24       1.0  0.6885500000000001  0.62369  0.33437  1.0000
  H   H25       1.0  0.63491  0.88697  0.57664  1.0000
  H   H26       1.0  0.31036  0.73969  0.44822  1.0000
  H   H27       1.0  0.1639  0.31659999999999994  0.56107  1.0000
  H   H28       1.0  0.8451499999999998  0.32617  0.43572  1.0000
  H   H29       1.0  0.9361799999999999  0.18232999999999996  0.56883  1.0000
  H   H30       1.0  0.07445999999999998  0.17978  0.4223399999999999  1.0000
  H   H31       1.0  0.4908799999999999  0.56191  0.53779  1.0000
  H   H32       1.0  0.5849299999999998  0.7266399999999998  0.38058  1.0000
  H   H33       1.0  0.96535  0.07609  0.44956  1.0000
  H   H34       1.0  0.034469999999999994  0.10331  0.5431899999999998  1.0000
  H   H35       1.0  0.4915999999999999  0.50279  0.41052  1.0000
  H   H36       1.0  0.566  0.73272  0.5106699999999998  1.0000
  H   H37       1.0  0.88216  0.94554  0.39505  1.0000
  H   H38       1.0  0.10412  0.9693299999999999  0.61306  1.0000
  H   H39       1.0  0.38811  0.40641  0.35647  1.0000
  H   H40       1.0  0.64985  0.6572599999999998  0.59227  1.0000
  H   H41       1.0  0.59134  0.25452  0.93226  1.0000
  H   H42       1.0  0.50411  0.3707299999999999  0.04185  1.0000
  H   H43       1.0  0.99603  0.87028  0.95694  1.0000
  H   H44       1.0  0.90877  0.75611  0.06716999999999998  1.0000
  H   H45       1.0  0.40246  0.06002  0.06594  1.0000
  H   H46       1.0  0.49085999999999996  0.9503399999999999  0.96014  1.0000
  H   H47       1.0  0.00878  0.4503099999999999  0.04093  1.0000
  H   H48       1.0  0.09719999999999998  0.55817  0.9346999999999999  1.0000
  H   H49       1.0  0.64079  0.7530799999999997  0.88791  1.0000
  H   H50       1.0  0.37475  0.8288899999999999  0.12574  1.0000
  H   H51       1.0  0.12549  0.32541  0.87503  1.0000
  H   H52       1.0  0.86063  0.25862  0.11313  1.0000
  H   H53       1.0  0.87374  0.9375599999999998  0.95118  1.0000
  H   H54       1.0  0.14418  0.99582  0.05851  1.0000
  H   H55       1.0  0.35415  0.5000899999999999  0.94039  1.0000
  H   H56       1.0  0.62571  0.43582  0.0483  1.0000
  H   H57       1.0  0.04124  0.20842999999999995  0.94167  1.0000
  H   H58       1.0  0.9449799999999999  0.15809999999999996  0.041879999999999994  1.0000
  H   H59       1.0  0.55685  0.65337  0.96014  1.0000
  H   H60       1.0  0.46067  0.7139699999999999  0.06004999999999999  1.0000
  H   H61       1.0  0.05809999999999999  0.17334  0.07205999999999999  1.0000
  H   H62       1.0  0.93092  0.14524  0.91069  1.0000
  H   H63       1.0  0.57065  0.64353  0.09134  1.0000
  H   H64       1.0  0.44440999999999997  0.6770999999999999  0.92982  1.0000
  H   H65       1.0  0.66614  0.7504599999999999  0.1507  1.0000
  H   H66       1.0  0.34456  0.7619799999999998  0.86563  1.0000
  H   H67       1.0  0.15724  0.26124  0.13542  1.0000
  H   H68       1.0  0.83488  0.25031999999999993  0.8504199999999998  1.0000
  O   O1        1.0  0.7881899999999998  0.043  0.17252  1.0000
  O   O2        1.0  0.21181  0.043  0.82748  1.0000
  O   O3        1.0  0.28819  0.543  0.17252  1.0000
  O   O4        1.0  0.71181  0.543  0.82748  1.0000
  O   O5        1.0  0.55655  0.25326  0.32348  1.0000
  O   O6        1.0  0.44345  0.25326  0.67652  1.0000
  O   O7        1.0  0.05655  0.75326  0.32348  1.0000
  O   O8        1.0  0.94345  0.75326  0.67652  1.0000
  O   O9        1.0  0.54583  0.051609999999999996  0.33016  1.0000
  O   O10       1.0  0.45416999999999996  0.051609999999999996  0.66984  1.0000
  O   O11       1.0  0.045829999999999996  0.55161  0.33016  1.0000
  O   O12       1.0  0.95417  0.55161  0.66984  1.0000
  O   O13       1.0  0.6819199999999999  0.95972  0.32707  1.0000
  O   O14       1.0  0.31808  0.95972  0.67293  1.0000
  O   O15       1.0  0.18192  0.4597199999999999  0.32707  1.0000
  O   O16       1.0  0.81808  0.4597199999999999  0.67293  1.0000
  O   O17       1.0  0.66819  0.16818999999999998  0.25081999999999993  1.0000
  O   O18       1.0  0.33181  0.16818999999999998  0.74918  1.0000
  O   O19       1.0  0.16819  0.66819  0.25081999999999993  1.0000
  O   O20       1.0  0.83181  0.66819  0.74918  1.0000
  O   O21       1.0  0.76624  0.2923  0.17686  1.0000
  O   O22       1.0  0.23376  0.2923  0.82314  1.0000
  O   O23       1.0  0.26623999999999987  0.7923  0.17686  1.0000
  O   O24       1.0  0.73376  0.7923  0.82314  1.0000
  O   O25       1.0  0.67031  0.40915999999999997  0.16872  1.0000
  O   O26       1.0  0.32969  0.40915999999999997  0.83128  1.0000
  O   O27       1.0  0.17031  0.90916  0.16872  1.0000
  O   O28       1.0  0.82969  0.90916  0.83128  1.0000
  O   O29       1.0  0.55616  0.25189999999999996  0.17337999999999995  1.0000
  O   O30       1.0  0.44384  0.25189999999999996  0.82662  1.0000
  O   O31       1.0  0.056159999999999995  0.7518999999999998  0.17337999999999995  1.0000
  O   O32       1.0  0.94384  0.7518999999999998  0.82662  1.0000
  O   O33       1.0  0.54541  0.05013999999999999  0.16824  1.0000
  O   O34       1.0  0.45458999999999994  0.05013999999999999  0.83176  1.0000
  O   O35       1.0  0.04541  0.5501399999999999  0.16824  1.0000
  O   O36       1.0  0.95459  0.5501399999999999  0.83176  1.0000
  O   O37       1.0  0.68153  0.9583499999999999  0.17697  1.0000
  O   O38       1.0  0.3184699999999999  0.9583499999999999  0.82303  1.0000
  O   O39       1.0  0.18153  0.45834999999999987  0.17697  1.0000
  O   O40       1.0  0.8184699999999999  0.45834999999999987  0.82303  1.0000
  O   O41       1.0  0.7886099999999999  0.04448  0.33445  1.0000
  O   O42       1.0  0.21139  0.04448  0.66555  1.0000
  O   O43       1.0  0.28861  0.54448  0.33445  1.0000
  O   O44       1.0  0.71139  0.54448  0.66555  1.0000
  O   O45       1.0  0.76663  0.29366999999999993  0.32697  1.0000
  O   O46       1.0  0.23336999999999997  0.29366999999999993  0.67303  1.0000
  O   O47       1.0  0.26663  0.7936699999999998  0.32697  1.0000
  O   O48       1.0  0.73337  0.7936699999999998  0.67303  1.0000
  O   O49       1.0  0.67073  0.41063999999999995  0.33064  1.0000
  O   O50       1.0  0.32926999999999995  0.41063999999999995  0.66936  1.0000
  O   O51       1.0  0.17072999999999997  0.91064  0.33064  1.0000
  O   O52       1.0  0.82927  0.91064  0.66936  1.0000
  F   F1        1.0  0.87756  0.9784499999999998  0.08428  1.0000
  F   F2        1.0  0.12952  0.0012699999999999992  0.92554  1.0000
  F   F3        1.0  0.3693999999999999  0.50625  0.07321  1.0000
  F   F4        1.0  0.62193  0.47583  0.91479  1.0000
