data_image0
_chemical_formula_structural       O8C4O8C4O4V4C8O4N4C44H12C20O4C4H16OCH3OCH3OCH3OCH3OCH3OCH3OCH3OCH3
_chemical_formula_sum              "O36 C92 V4 N4 H52"
_cell_length_a       28.2196
_cell_length_b       7.184350000000001
_cell_length_c       17.24302
_cell_angle_alpha    89.9985
_cell_angle_beta     102.02839
_cell_angle_gamma    89.99990999999999

_space_group_name_H-M_alt    "P 1"
_space_group_IT_number       1

loop_
  _space_group_symop_operation_xyz
  'x, y, z'

loop_
  _atom_site_type_symbol
  _atom_site_label
  _atom_site_symmetry_multiplicity
  _atom_site_fract_x
  _atom_site_fract_y
  _atom_site_fract_z
  _atom_site_occupancy
  O   O1        1.0  0.000700000000000029  0.43650999999999995  0.8579200000000002  1.0000
  O   O2        1.0  0.9993  0.5634899999999998  0.14208  1.0000
  O   O3        1.0  0.9993  0.9365099999999997  0.64208  1.0000
  O   O4        1.0  0.0007000000000000056  0.06348999999999999  0.35792  1.0000
  O   O5        1.0  0.93008  0.76638  0.72189  1.0000
  O   O6        1.0  0.06992  0.23361999999999994  0.27811000000000013  1.0000
  O   O7        1.0  0.06992000000000002  0.26638  0.7781100000000002  1.0000
  O   O8        1.0  0.93008  0.73362  0.22189  1.0000
  C   C1        1.0  0.91058  0.59763  0.7084400000000001  1.0000
  C   C2        1.0  0.08944  0.40243  0.2911300000000001  1.0000
  C   C3        1.0  0.08941  0.09762999999999997  0.79156  1.0000
  C   C4        1.0  0.91056  0.9024299999999997  0.20886  1.0000
  O   O9        1.0  0.99618  0.76623  0.86231  1.0000
  O   O10       1.0  0.0038200000000000005  0.23377  0.13769  1.0000
  O   O11       1.0  0.0038200000000000113  0.2662299999999999  0.63769  1.0000
  O   O12       1.0  0.99618  0.73377  0.36231  1.0000
  O   O13       1.0  0.06587  0.93646  0.7835  1.0000
  O   O14       1.0  0.9341299999999998  0.06354  0.2165  1.0000
  O   O15       1.0  0.9341299999999998  0.4364599999999999  0.7165000000000002  1.0000
  O   O16       1.0  0.06587000000000001  0.56354  0.2835  1.0000
  C   C5        1.0  0.99767  0.5959399999999998  0.8942  1.0000
  C   C6        1.0  0.001980000000000003  0.4040699999999999  0.10580000000000003  1.0000
  C   C7        1.0  0.002330000000000009  0.09595  0.6058  1.0000
  C   C8        1.0  0.99802  0.9040599999999998  0.3942  1.0000
  O   O17       1.0  0.022790000000000026  0.60302  0.7239800000000002  1.0000
  O   O18       1.0  0.9772099999999998  0.3969799999999999  0.2760200000000001  1.0000
  O   O19       1.0  0.9772099999999998  0.10302  0.77602  1.0000
  O   O20       1.0  0.022789999999999998  0.89698  0.22398000000000004  1.0000
  V   V1        1.0  0.99577  0.8779  0.75483  1.0000
  V   V2        1.0  0.004230000000000001  0.12209999999999997  0.24517  1.0000
  V   V3        1.0  0.004229999999999999  0.37789999999999996  0.74517  1.0000
  V   V4        1.0  0.99577  0.6221  0.25483  1.0000
  C   C9        1.0  0.008019999999999994  0.07779  0.52203  1.0000
  C   C10       1.0  0.99195  0.9225299999999997  0.47759  1.0000
  C   C11       1.0  0.99198  0.57779  0.97797  1.0000
  C   C12       1.0  0.008049999999999998  0.42253999999999997  0.02241  1.0000
  C   C13       1.0  0.68377  0.9820399999999998  0.026790000000000005  1.0000
  C   C14       1.0  0.31598  0.01849  0.97638  1.0000
  C   C15       1.0  0.31623  0.48200999999999994  0.4732000000000001  1.0000
  C   C16       1.0  0.68402  0.51842  0.52362  1.0000
  O   O21       1.0  0.7133599999999998  0.00051  0.97505  1.0000
  O   O22       1.0  0.28636  0.0001  0.028070000000000008  1.0000
  O   O23       1.0  0.28663  0.50045  0.52494  1.0000
  O   O24       1.0  0.7136399999999998  0.4999399999999999  0.47194  1.0000
  N   N1        1.0  0.70311  0.9463999999999999  0.10499  1.0000
  N   N2        1.0  0.29668  0.054049999999999994  0.8981600000000002  1.0000
  N   N3        1.0  0.29689  0.4464  0.395  1.0000
  N   N4        1.0  0.7033199999999997  0.55406  0.60183  1.0000
  C   C17       1.0  0.67388  0.93018  0.15877  1.0000
  C   C18       1.0  0.3259399999999999  0.07002999999999997  0.84442  1.0000
  C   C19       1.0  0.32612  0.43022  0.34123  1.0000
  C   C20       1.0  0.67406  0.57012  0.65557  1.0000
  C   C21       1.0  0.77739  0.76333  0.15495  1.0000
  C   C22       1.0  0.22244  0.23749999999999993  0.8486400000000002  1.0000
  C   C23       1.0  0.22259999999999994  0.26326  0.3452  1.0000
  C   C24       1.0  0.77756  0.7374999999999998  0.65136  1.0000
  C   C25       1.0  0.82784  0.7522899999999998  0.18017  1.0000
  C   C26       1.0  0.17204  0.24840999999999996  0.82267  1.0000
  C   C27       1.0  0.17215  0.25222  0.3199900000000001  1.0000
  C   C28       1.0  0.8279599999999998  0.74841  0.67733  1.0000
  C   C29       1.0  0.8339399999999999  0.08444  0.15990000000000004  1.0000
  C   C30       1.0  0.16596  0.9156099999999998  0.84123  1.0000
  C   C31       1.0  0.16607  0.5845  0.3399300000000001  1.0000
  C   C32       1.0  0.83404  0.41562  0.6587600000000002  1.0000
  C   C33       1.0  0.78362  0.09483999999999997  0.13439  1.0000
  C   C34       1.0  0.21624  0.9053599999999998  0.8675300000000002  1.0000
  C   C35       1.0  0.21639  0.59489  0.36544  1.0000
  C   C36       1.0  0.78376  0.4053699999999999  0.63246  1.0000
  C   C37       1.0  0.75501  0.93455  0.13161  1.0000
  C   C38       1.0  0.24480000000000002  0.06599  0.8714200000000001  1.0000
  C   C39       1.0  0.24499  0.4345499999999999  0.36838  1.0000
  C   C40       1.0  0.7551899999999998  0.56599  0.62858  1.0000
  C   C41       1.0  0.60235  0.9769499999999998  0.05351  1.0000
  C   C42       1.0  0.39742000000000005  0.02329  0.9497400000000001  1.0000
  C   C43       1.0  0.39764  0.47696  0.44649000000000005  1.0000
  C   C44       1.0  0.6025699999999998  0.52331  0.5502600000000002  1.0000
  C   C45       1.0  0.63318  0.9992699999999998  0.99993  1.0000
  C   C46       1.0  0.36656999999999995  0.0011999999999999995  0.00331  1.0000
  C   C47       1.0  0.36681  0.4992499999999999  0.5000700000000002  1.0000
  C   C48       1.0  0.6334299999999998  0.50116  0.4967  1.0000
  C   C49       1.0  0.61344  0.0497  0.9218500000000002  1.0000
  C   C50       1.0  0.38629  0.9509499999999999  0.08141  1.0000
  C   C51       1.0  0.3865499999999999  0.54965  0.57815  1.0000
  C   C52       1.0  0.61371  0.4508699999999999  0.41861  1.0000
  C   C53       1.0  0.6232099999999999  0.94716  0.1342  1.0000
  C   C54       1.0  0.37660000000000005  0.05292  0.8690400000000003  1.0000
  C   C55       1.0  0.37679  0.4471999999999999  0.3658  1.0000
  C   C56       1.0  0.6234  0.5529999999999999  0.63096  1.0000
  C   C57       1.0  0.8568499999999999  0.9128899999999998  0.18295000000000006  1.0000
  C   C58       1.0  0.14307999999999996  0.08736  0.81846  1.0000
  C   C59       1.0  0.14314999999999997  0.41288  0.31704  1.0000
  C   C60       1.0  0.85693  0.58736  0.68154  1.0000
  H   H1        1.0  0.8548499999999998  0.21116999999999994  0.16101  1.0000
  H   H2        1.0  0.14508999999999997  0.78858  0.83918  1.0000
  H   H3        1.0  0.14516999999999994  0.7112799999999998  0.33868  1.0000
  H   H4        1.0  0.85491  0.28859  0.6608100000000002  1.0000
  H   H5        1.0  0.7667799999999998  0.22801  0.11682000000000002  1.0000
  H   H6        1.0  0.23307999999999995  0.7719799999999998  0.8847  1.0000
  H   H7        1.0  0.23324  0.72811  0.38288  1.0000
  H   H8        1.0  0.7669200000000002  0.27198999999999995  0.6152900000000002  1.0000
  H   H9        1.0  0.6376  0.08506999999999998  0.88295  1.0000
  H   H10       1.0  0.36211999999999994  0.91578  0.12031000000000001  1.0000
  H   H11       1.0  0.36239  0.58499  0.61705  1.0000
  H   H12       1.0  0.63788  0.4156699999999999  0.3797  1.0000
  C   C61       1.0  0.4791099999999998  0.02821999999999999  0.9199100000000001  1.0000
  C   C62       1.0  0.52067  0.9717899999999998  0.08339  1.0000
  C   C63       1.0  0.52089  0.52826  0.58009  1.0000
  C   C64       1.0  0.47933  0.47182  0.41662  1.0000
  C   C65       1.0  0.46901  0.9730099999999998  0.05751  1.0000
  C   C66       1.0  0.53075  0.027219999999999994  0.9458  1.0000
  C   C67       1.0  0.5309799999999999  0.47300999999999993  0.4425  1.0000
  C   C68       1.0  0.46923999999999993  0.5272399999999999  0.55421  1.0000
  C   C69       1.0  0.44877999999999985  0.01034  0.9761300000000002  1.0000
  C   C70       1.0  0.55099  0.9898199999999998  0.027160000000000007  1.0000
  C   C71       1.0  0.55121  0.51036  0.5238700000000002  1.0000
  C   C72       1.0  0.4490099999999999  0.48984  0.47284  1.0000
  C   C73       1.0  0.45622  0.034779999999999985  0.8386300000000002  1.0000
  C   C74       1.0  0.54359  0.9648799999999997  0.16466  1.0000
  C   C75       1.0  0.54378  0.5348699999999998  0.66137  1.0000
  C   C76       1.0  0.45640999999999987  0.46494999999999986  0.33535  1.0000
  C   C77       1.0  0.4064199999999999  0.05421  0.81403  1.0000
  C   C78       1.0  0.5934  0.9455599999999998  0.18922  1.0000
  C   C79       1.0  0.5935799999999998  0.55433  0.68597  1.0000
  C   C80       1.0  0.4066  0.44564  0.31078  1.0000
  O   O25       1.0  0.30608  0.09987999999999997  0.76722  1.0000
  O   O26       1.0  0.69376  0.9002399999999998  0.23595  1.0000
  O   O27       1.0  0.69391  0.60005  0.73277  1.0000
  O   O28       1.0  0.30624  0.40031  0.2640400000000001  1.0000
  C   C81       1.0  0.56318  0.06990999999999999  0.8943200000000002  1.0000
  C   C82       1.0  0.43655  0.9306599999999998  0.10898  1.0000
  C   C83       1.0  0.43682000000000004  0.56988  0.60569  1.0000
  C   C84       1.0  0.56344  0.43062  0.39103  1.0000
  H   H13       1.0  0.15587000000000004  0.3830099999999999  0.8058200000000002  1.0000
  H   H14       1.0  0.84403  0.61793  0.19748  1.0000
  H   H15       1.0  0.84413  0.8830099999999997  0.6941900000000002  1.0000
  H   H16       1.0  0.15596  0.11780999999999997  0.30281  1.0000
  H   H17       1.0  0.24410999999999997  0.36265999999999987  0.8514200000000002  1.0000
  H   H18       1.0  0.7556999999999998  0.6384399999999998  0.15308000000000005  1.0000
  H   H19       1.0  0.75589  0.86266  0.64858  1.0000
  H   H20       1.0  0.24428999999999995  0.13832  0.34721  1.0000
  H   H21       1.0  0.39124  0.06365999999999998  0.75102  1.0000
  H   H22       1.0  0.6086  0.9359299999999998  0.2522200000000001  1.0000
  H   H23       1.0  0.60876  0.5638299999999998  0.74898  1.0000
  H   H24       1.0  0.3914  0.43603999999999987  0.24778  1.0000
  H   H25       1.0  0.47539  0.01524  0.79166  1.0000
  H   H26       1.0  0.52446  0.9840999999999998  0.21168  1.0000
  H   H27       1.0  0.52462  0.51536  0.70835  1.0000
  H   H28       1.0  0.47554  0.4842  0.28833  1.0000
  O   O29       1.0  0.038550000000000015  0.20150999999999994  0.49451000000000006  1.0000
  C   C85       1.0  0.016169999999999993  0.3768699999999999  0.47959  1.0000
  H   H29       1.0  0.023710000000000026  0.4642399999999999  0.5337700000000002  1.0000
  H   H30       1.0  0.97643  0.36794  0.45482  1.0000
  H   H31       1.0  0.032900000000000006  0.44816  0.4351000000000001  1.0000
  O   O30       1.0  0.96835  0.7806799999999999  0.50894  1.0000
  C   C86       1.0  0.9182199999999999  0.79386  0.47717000000000004  1.0000
  H   H32       1.0  0.9037399999999998  0.9327299999999997  0.48921999999999993  1.0000
  H   H33       1.0  0.8992799999999999  0.68788  0.50638  1.0000
  H   H34       1.0  0.90979  0.7641399999999998  0.41243  1.0000
  O   O31       1.0  0.96145  0.70151  0.00549  1.0000
  C   C87       1.0  0.9838299999999998  0.87687  0.0204  1.0000
  H   H35       1.0  0.97629  0.96424  0.96623  1.0000
  H   H36       1.0  0.023569999999999997  0.86793  0.04517  1.0000
  H   H37       1.0  0.9670999999999997  0.94815  0.06489000000000003  1.0000
  O   O32       1.0  0.031650000000000005  0.28068  0.9910800000000001  1.0000
  C   C88       1.0  0.08178999999999997  0.29408  0.022750000000000006  1.0000
  H   H38       1.0  0.09623  0.4328999999999999  0.010520000000000002  1.0000
  H   H39       1.0  0.10072  0.18795999999999993  0.9936  1.0000
  H   H40       1.0  0.09025999999999998  0.2647299999999999  0.08752  1.0000
  O   O33       1.0  0.54666  0.16418  0.82342  1.0000
  C   C89       1.0  0.56317  0.07852999999999997  0.7600000000000002  1.0000
  H   H41       1.0  0.5642199999999999  0.9237099999999998  0.76458  1.0000
  H   H42       1.0  0.59917  0.13433  0.7554  1.0000
  H   H43       1.0  0.53762  0.11399  0.70386  1.0000
  O   O34       1.0  0.45300999999999997  0.8367  0.17996  1.0000
  C   C90       1.0  0.4366300000000001  0.92331  0.24330000000000002  1.0000
  H   H44       1.0  0.4005499999999999  0.86847  0.24797  1.0000
  H   H45       1.0  0.4358099999999999  0.07808999999999998  0.23854  1.0000
  H   H46       1.0  0.46212999999999993  0.8877499999999998  0.29948  1.0000
  O   O35       1.0  0.4533199999999999  0.66413  0.67659  1.0000
  C   C91       1.0  0.43683  0.57838  0.74  1.0000
  H   H47       1.0  0.43580999999999986  0.4235599999999999  0.7354200000000002  1.0000
  H   H48       1.0  0.4008199999999999  0.63407  0.74461  1.0000
  H   H49       1.0  0.46237000000000006  0.61387  0.79615  1.0000
  O   O36       1.0  0.54698  0.3366499999999999  0.32005  1.0000
  C   C92       1.0  0.56337  0.4232099999999999  0.25672  1.0000
  H   H50       1.0  0.59944  0.3683  0.25205  1.0000
  H   H51       1.0  0.5642  0.5779799999999998  0.26146  1.0000
  H   H52       1.0  0.53786  0.3876699999999999  0.20054  1.0000
