data_image0
_chemical_formula_structural       O4C2O4C2O2V2C4H4C4H2C36H20O4C2O4C2O2V2C3H7C3H7
_chemical_formula_sum              "O20 C58 V4 H40"
_cell_length_a       21.97437
_cell_length_b       7.20814
_cell_length_c       14.91138
_cell_angle_alpha    89.96998
_cell_angle_beta     106.86907
_cell_angle_gamma    89.96039

_space_group_name_H-M_alt    "P 1"
_space_group_IT_number       1

loop_
  _space_group_symop_operation_xyz
  'x, y, z'

loop_
  _atom_site_type_symbol
  _atom_site_label
  _atom_site_symmetry_multiplicity
  _atom_site_fract_x
  _atom_site_fract_y
  _atom_site_fract_z
  _atom_site_occupancy
  O   O1        1.0  0.58477  0.50577  0.00209  1.0000
  O   O2        1.0  0.41523000000000004  0.00577  0.99791  1.0000
  O   O3        1.0  0.46706  0.17333999999999994  0.8619500000000001  1.0000
  O   O4        1.0  0.53294  0.67334  0.13805000000000003  1.0000
  C   C1        1.0  0.4554700000000001  0.34456  0.8259600000000002  1.0000
  C   C2        1.0  0.54456  0.8444099999999999  0.17404  1.0000
  O   O5        1.0  0.58751  0.17589  0.99321  1.0000
  O   O6        1.0  0.4124900000000001  0.67589  0.006790000000000002  1.0000
  O   O7        1.0  0.53654  0.00815  0.1301  1.0000
  O   O8        1.0  0.46346000000000004  0.50815  0.8699000000000002  1.0000
  C   C3        1.0  0.6118700000000001  0.34476  0.9933000000000002  1.0000
  C   C4        1.0  0.38815000000000005  0.84489  0.006810000000000002  1.0000
  O   O9        1.0  0.48314  0.34004  0.04476  1.0000
  O   O10       1.0  0.5168600000000001  0.84004  0.9552400000000001  1.0000
  V   V1        1.0  0.5031300000000001  0.06419  0.9917  1.0000
  V   V2        1.0  0.49687000000000003  0.56419  0.0083  1.0000
  C   C5        1.0  0.21383000000000005  0.73626  0.99636  1.0000
  C   C6        1.0  0.7863600000000001  0.23648  0.00446  1.0000
  C   C7        1.0  0.17754  0.88939  0.9859200000000001  1.0000
  C   C8        1.0  0.82242  0.38978  0.01396  1.0000
  H   H1        1.0  0.19448  0.60275  0.00784  1.0000
  H   H2        1.0  0.80591  0.10269  0.99384  1.0000
  H   H3        1.0  0.1955  0.01893  0.96651  1.0000
  H   H4        1.0  0.80423  0.51974  0.03257  1.0000
  C   C9        1.0  0.27837  0.73909  0.98318  1.0000
  C   C10       1.0  0.7218500000000002  0.23969  0.01774  1.0000
  C   C11       1.0  0.32598  0.85668  0.026910000000000007  1.0000
  C   C12       1.0  0.67402  0.35614999999999997  0.97319  1.0000
  H   H5        1.0  0.2875  0.63469  0.93615  1.0000
  H   H6        1.0  0.71293  0.13659  0.0656  1.0000
  C   C13       1.0  0.9261800000000001  0.88623  0.72437  1.0000
  C   C14       1.0  0.07381  0.38494  0.2756  1.0000
  C   C15       1.0  0.57287  0.85397  0.2754  1.0000
  C   C16       1.0  0.42722  0.35479  0.72459  1.0000
  C   C17       1.0  0.9366500000000002  0.86347  0.5682900000000002  1.0000
  C   C18       1.0  0.06355  0.34755  0.43117  1.0000
  C   C19       1.0  0.96447  0.87393  0.6646700000000002  1.0000
  C   C20       1.0  0.03566000000000001  0.36271  0.33498  1.0000
  C   C21       1.0  0.8599400000000003  0.88949  0.6879300000000003  1.0000
  C   C22       1.0  0.13999  0.39292  0.3122  1.0000
  C   C23       1.0  0.8302600000000001  0.88091  0.5901  1.0000
  C   C24       1.0  0.16976000000000002  0.37843  0.4098400000000001  1.0000
  C   C25       1.0  0.8701900000000001  0.86595  0.53068  1.0000
  C   C26       1.0  0.12997  0.35415  0.46891  1.0000
  C   C27       1.0  0.7626700000000001  0.88507  0.5495  1.0000
  C   C28       1.0  0.23732000000000003  0.38519999999999993  0.45054  1.0000
  C   C29       1.0  0.7362800000000003  0.8682  0.4501  1.0000
  C   C30       1.0  0.26382  0.36308  0.54967  1.0000
  C   C31       1.0  0.7783600000000002  0.85283  0.39448  1.0000
  C   C32       1.0  0.22188000000000005  0.33866  0.6049200000000001  1.0000
  C   C33       1.0  0.8437500000000002  0.85281  0.43411000000000005  1.0000
  C   C34       1.0  0.15651000000000007  0.3353  0.5652100000000002  1.0000
  C   C35       1.0  0.7206500000000001  0.9070999999999999  0.6048  1.0000
  C   C36       1.0  0.2792  0.41436  0.3956000000000001  1.0000
  C   C37       1.0  0.65521  0.9081599999999997  0.56506  1.0000
  C   C38       1.0  0.34461  0.41844  0.43544  1.0000
  C   C39       1.0  0.62873  0.88837  0.4687400000000001  1.0000
  C   C40       1.0  0.3712  0.39501  0.53154  1.0000
  C   C41       1.0  0.6686800000000002  0.8684999999999998  0.40962  1.0000
  C   C42       1.0  0.3313900000000001  0.36724  0.5902900000000002  1.0000
  C   C43       1.0  0.56225  0.8901  0.43091  1.0000
  C   C44       1.0  0.43763  0.40133  0.56956  1.0000
  C   C45       1.0  0.53449  0.87362  0.3346600000000001  1.0000
  C   C46       1.0  0.46545  0.38224  0.66569  1.0000
  C   C47       1.0  0.63904  0.85061  0.3121300000000001  1.0000
  C   C48       1.0  0.36112  0.34634  0.68762  1.0000
  H   H7        1.0  0.8740300000000001  0.84132  0.3884400000000001  1.0000
  H   H8        1.0  0.12634  0.31653  0.61059  1.0000
  H   H9        1.0  0.66557  0.83507  0.26219  1.0000
  H   H10       1.0  0.3347  0.32564  0.73733  1.0000
  H   H11       1.0  0.4831900000000002  0.87748  0.3063300000000001  1.0000
  H   H12       1.0  0.5166800000000001  0.39037  0.6942400000000002  1.0000
  H   H13       1.0  0.62497  0.92523  0.61045  1.0000
  H   H14       1.0  0.37474  0.44112  0.39033  1.0000
  H   H15       1.0  0.9671700000000001  0.85275  0.52298  1.0000
  H   H16       1.0  0.03315  0.32926  0.4762  1.0000
  H   H17       1.0  0.015799999999999998  0.8713699999999999  0.69277  1.0000
  H   H18       1.0  0.9843900000000005  0.35576  0.30672000000000005  1.0000
  H   H19       1.0  0.83333  0.89679  0.73818  1.0000
  H   H20       1.0  0.1665  0.40765  0.26214  1.0000
  H   H21       1.0  0.76256  0.8416  0.31935  1.0000
  H   H22       1.0  0.23775  0.32214  0.67981  1.0000
  H   H23       1.0  0.73661  0.9257899999999999  0.67957  1.0000
  H   H24       1.0  0.26315  0.43618  0.32104000000000005  1.0000
  H   H25       1.0  0.5316800000000002  0.90566  0.4759000000000001  1.0000
  H   H26       1.0  0.46809  0.42304  0.52488  1.0000
  O   O11       1.0  0.03645  0.23307  0.13013  1.0000
  O   O12       1.0  0.96355  0.73307  0.86987  1.0000
  O   O13       1.0  0.9124700000000001  0.56057  0.006790000000000002  1.0000
  O   O14       1.0  0.08752999999999998  0.06057  0.99321  1.0000
  C   C49       1.0  0.8876  0.39219  0.004730000000000001  1.0000
  C   C50       1.0  0.11239000000000006  0.89208  0.99526  1.0000
  O   O15       1.0  0.03292000000000001  0.56294  0.13805000000000003  1.0000
  O   O16       1.0  0.9670800000000002  0.06294  0.8619500000000001  1.0000
  O   O17       1.0  0.08479000000000002  0.7305  0.00209  1.0000
  O   O18       1.0  0.91521  0.2305  0.99791  1.0000
  C   C51       1.0  0.04508  0.3943  0.17438  1.0000
  C   C52       1.0  0.95492  0.89449  0.82561  1.0000
  O   O19       1.0  0.016820000000000036  0.39617  0.9552600000000002  1.0000
  O   O20       1.0  0.98318  0.89617  0.04474  1.0000
  V   V3        1.0  0.99688  0.67209  0.0083  1.0000
  V   V4        1.0  0.0031199999999999835  0.17208999999999994  0.9917  1.0000
  C   C53       1.0  0.32185  0.98714  0.10536000000000002  1.0000
  C   C54       1.0  0.32061  0.8791599999999999  0.1937  1.0000
  C   C55       1.0  0.3197900000000001  0.01031  0.27366  1.0000
  H   H27       1.0  0.36295  0.0991  0.29215  1.0000
  H   H28       1.0  0.27675  0.09964999999999999  0.25311  1.0000
  H   H29       1.0  0.31898  0.9284  0.3364100000000001  1.0000
  H   H30       1.0  0.27783  0.78932  0.17894  1.0000
  H   H31       1.0  0.3634200000000001  0.78896  0.21654  1.0000
  H   H32       1.0  0.36418  0.07946  0.12469000000000001  1.0000
  H   H33       1.0  0.28036000000000005  0.08094  0.08267000000000001  1.0000
  C   C56       1.0  0.6778200000000001  0.48403999999999997  0.89359  1.0000
  C   C57       1.0  0.6786400000000001  0.37304  0.806  1.0000
  C   C58       1.0  0.67926  0.50139  0.72485  1.0000
  H   H34       1.0  0.63624  0.59093  0.70608  1.0000
  H   H35       1.0  0.7224500000000001  0.58998  0.7443200000000002  1.0000
  H   H36       1.0  0.6796600000000002  0.41733  0.6626200000000001  1.0000
  H   H37       1.0  0.7213300000000001  0.28256  0.8212000000000003  1.0000
  H   H38       1.0  0.6357300000000002  0.28324999999999995  0.7841900000000003  1.0000
  H   H39       1.0  0.63549  0.5765799999999999  0.8739300000000002  1.0000
  H   H40       1.0  0.7193600000000002  0.5776499999999999  0.9151700000000003  1.0000
