data_image0
_chemical_formula_structural       C50Cr6H8O27HF8OHOHOHF2OHFOHF2OHOHFOHOH
_chemical_formula_sum              "C50 Cr6 H18 O36 F14"
_cell_length_a       10.93083
_cell_length_b       10.92471
_cell_length_c       18.86833
_cell_angle_alpha    90.05285
_cell_angle_beta     89.75725
_cell_angle_gamma    60.306709999999995

_space_group_name_H-M_alt    "P 1"
_space_group_IT_number       1

loop_
  _space_group_symop_operation_xyz
  'x, y, z'

loop_
  _atom_site_type_symbol
  _atom_site_label
  _atom_site_symmetry_multiplicity
  _atom_site_fract_x
  _atom_site_fract_y
  _atom_site_fract_z
  _atom_site_occupancy
  C   C1        1.0  0.23433000000000004  0.64792  0.60938  1.0000
  C   C2        1.0  0.6606199999999999  0.55326  0.80158  1.0000
  C   C3        1.0  0.69676  0.6735  0.8124300000000001  1.0000
  C   C4        1.0  0.66921  0.64701  0.67634  1.0000
  C   C5        1.0  0.8159899999999999  0.6338  0.6898500000000001  1.0000
  C   C6        1.0  0.66125  0.52794  0.7205  1.0000
  C   C7        1.0  0.78533  0.15691  0.71033  1.0000
  C   C8        1.0  0.8004700000000001  0.14158  0.7840200000000002  1.0000
  C   C9        1.0  0.68378  0.16816  0.8266500000000002  1.0000
  C   C10       1.0  0.55174  0.21939  0.7951  1.0000
  C   C11       1.0  0.54108  0.21713  0.7227800000000002  1.0000
  C   C12       1.0  0.65329  0.62148  0.6010900000000001  1.0000
  C   C13       1.0  0.65574  0.19100999999999999  0.6789400000000001  1.0000
  C   C14       1.0  0.1843  0.55976  0.7212500000000002  1.0000
  C   C15       1.0  0.17996000000000006  0.56178  0.79507  1.0000
  C   C16       1.0  0.17100999999999997  0.67691  0.8323800000000002  1.0000
  C   C17       1.0  0.17547000000000001  0.78516  0.79524  1.0000
  C   C18       1.0  0.17615000000000006  0.7866999999999998  0.7216200000000002  1.0000
  C   C19       1.0  0.18673000000000006  0.66942  0.6837800000000002  1.0000
  C   C20       1.0  0.7055400000000001  0.51892  0.26794  1.0000
  C   C21       1.0  0.70354  0.53803  0.19468  1.0000
  C   C22       1.0  0.6483400000000002  0.67345  0.16698  1.0000
  C   C23       1.0  0.6261800000000002  0.23139  0.6042000000000002  1.0000
  C   C24       1.0  0.58029  0.79157  0.21175  1.0000
  C   C25       1.0  0.57682  0.77423  0.28459  1.0000
  C   C26       1.0  0.6436800000000001  0.63833  0.31334  1.0000
  C   C27       1.0  0.5182000000000001  0.26271  0.27804  1.0000
  C   C28       1.0  0.53038  0.23923999999999998  0.20557000000000003  1.0000
  C   C29       1.0  0.66253  0.14469  0.17819000000000004  1.0000
  C   C30       1.0  0.78095  0.07361  0.223  1.0000
  C   C31       1.0  0.76794  0.09306  0.29527  1.0000
  C   C32       1.0  0.6356900000000001  0.1896  0.3224900000000001  1.0000
  C   C33       1.0  0.26099  0.70426  0.28065000000000007  1.0000
  C   C34       1.0  0.2262  0.64763  0.40009  1.0000
  C   C35       1.0  0.23989000000000002  0.70711  0.20889000000000005  1.0000
  C   C36       1.0  0.14638  0.66618  0.18281  1.0000
  C   C37       1.0  0.08257  0.6116  0.22848  1.0000
  C   C38       1.0  0.10666000000000003  0.60629  0.30065  1.0000
  C   C39       1.0  0.19117  0.65807  0.32662  1.0000
  C   C40       1.0  0.70103  0.10533  0.89703  1.0000
  C   C41       1.0  0.72314  0.68803  0.88826  1.0000
  C   C42       1.0  0.11730000000000003  0.70713  0.90516  1.0000
  C   C43       1.0  0.67744  0.10267  0.10504000000000001  1.0000
  C   C44       1.0  0.6939100000000001  0.69003  0.09685  1.0000
  C   C45       1.0  0.6380399999999999  0.61689  0.38955  1.0000
  C   C46       1.0  0.09276000000000004  0.70841  0.11249  1.0000
  C   C47       1.0  0.61545  0.23096000000000003  0.39509  1.0000
  C   C48       1.0  0.5737400000000001  0.81666  0.78139  1.0000
  C   C49       1.0  0.55007  0.79452  0.70209  1.0000
  C   C50       1.0  0.8369200000000002  0.6329  0.77073  1.0000
  Cr  Cr1       1.0  0.39293  0.3979  0.5022300000000001  1.0000
  Cr  Cr2       1.0  0.39824000000000004  0.7086  0.50126  1.0000
  Cr  Cr3       1.0  0.7088  0.39347  0.49646  1.0000
  Cr  Cr4       1.0  0.93762  0.9385400000000002  0.007640000000000001  1.0000
  Cr  Cr5       1.0  0.6251500000000001  0.9374499999999999  0.99452  1.0000
  Cr  Cr6       1.0  0.9379900000000002  0.62508  0.00119  1.0000
  H   H1        1.0  0.7589900000000002  0.42718999999999996  0.7084900000000002  1.0000
  H   H2        1.0  0.16978000000000007  0.8742199999999999  0.8233900000000002  1.0000
  H   H3        1.0  0.5381799999999999  0.89727  0.19103  1.0000
  H   H4        1.0  0.41708000000000006  0.34043  0.29975  1.0000
  H   H5        1.0  0.3327500000000001  0.73766  0.30035  1.0000
  H   H6        1.0  0.44758  0.79679  0.69734  1.0000
  H   H7        1.0  0.05702000000000003  0.5658099999999999  0.33617  1.0000
  H   H8        1.0  0.8767500000000003  0.70577  0.78482  1.0000
  O   O1        1.0  0.50743  0.25557  0.5814200000000003  1.0000
  O   O2        1.0  0.5244600000000001  0.69592  0.42406  1.0000
  O   O3        1.0  0.73653  0.50426  0.41481  1.0000
  O   O4        1.0  0.69146  0.27716  0.42218  1.0000
  O   O5        1.0  0.4999900000000001  0.49998999999999993  0.49998000000000004  1.0000
  O   O6        1.0  0.08949  0.82561  0.9306100000000002  1.0000
  O   O7        1.0  0.81837  0.05454  0.92988  1.0000
  O   O8        1.0  0.60587  0.07731  0.91553  1.0000
  O   O9        1.0  0.6464399999999999  0.8067  0.91757  1.0000
  O   O10       1.0  0.8371999999999999  0.5932900000000001  0.9152500000000001  1.0000
  O   O11       1.0  0.06533  0.63537  0.9315900000000001  1.0000
  O   O12       1.0  0.2801900000000001  0.52739  0.57891  1.0000
  O   O13       1.0  0.06830000000000001  0.82879  0.09186000000000002  1.0000
  O   O14       1.0  0.7987300000000002  0.05748  0.07937  1.0000
  O   O15       1.0  0.5846799999999999  0.08048  0.07679000000000002  1.0000
  O   O16       1.0  0.6267900000000001  0.80964  0.06705  1.0000
  O   O17       1.0  0.81601  0.59646  0.07650000000000003  1.0000
  O   O18       1.0  0.04568000000000007  0.63831  0.08107000000000003  1.0000
  O   O19       1.0  0.8335900000000002  0.83369  0.0011200000000000001  1.0000
  O   O20       1.0  0.26031  0.73974  0.58458  1.0000
  O   O21       1.0  0.53225  0.69515  0.57383  1.0000
  O   O22       1.0  0.7449300000000001  0.50343  0.5763800000000001  1.0000
  O   O23       1.0  0.69925  0.27639  0.57195  1.0000
  O   O24       1.0  0.49902000000000013  0.2564  0.41985  1.0000
  O   O25       1.0  0.27240000000000003  0.52816  0.42914  1.0000
  O   O26       1.0  0.2519100000000001  0.74057  0.42302  1.0000
  O   O27       1.0  0.6058899999999999  0.92617  0.7894500000000001  1.0000
  H   H9        1.0  0.68502  0.9092099999999999  0.7577300000000001  1.0000
  F   F1        1.0  0.94042  0.49899  0.7903400000000002  1.0000
  F   F2        1.0  0.9228700000000002  0.50829  0.6615400000000001  1.0000
  F   F3        1.0  0.8966300000000001  0.1371  0.6699100000000002  1.0000
  F   F4        1.0  0.92852  0.09840999999999998  0.81319  1.0000
  F   F5        1.0  0.4347800000000001  0.25357  0.83434  1.0000
  F   F6        1.0  0.41722  0.23833  0.6963400000000001  1.0000
  F   F7        1.0  0.18260999999999997  0.45232  0.68631  1.0000
  F   F8        1.0  0.17872999999999997  0.45402000000000003  0.83  1.0000
  O   O28       1.0  0.44820000000000026  0.8560499999999999  0.8193000000000003  1.0000
  H   H10       1.0  0.3768500000000001  0.9513  0.8027600000000003  1.0000
  O   O29       1.0  0.16844000000000003  0.90113  0.68611  1.0000
  H   H11       1.0  0.16618000000000016  0.97083  0.7205800000000001  1.0000
  O   O30       1.0  0.7673800000000002  0.38496  0.29633  1.0000
  H   H12       1.0  0.8184800000000002  0.31405  0.25884  1.0000
  F   F9        1.0  0.7619500000000001  0.42449999999999993  0.15044  1.0000
  F   F10       1.0  0.51465  0.88983  0.3271  1.0000
  O   O31       1.0  0.4164300000000001  0.30746  0.16085000000000005  1.0000
  H   H13       1.0  0.33045000000000013  0.36410999999999993  0.18967  1.0000
  F   F11       1.0  0.9096200000000002  0.9789499999999999  0.19756000000000004  1.0000
  O   O32       1.0  0.88593  0.01602  0.33656000000000014  1.0000
  H   H14       1.0  0.8576900000000001  0.02099  0.3868300000000001  1.0000
  F   F12       1.0  0.3051900000000001  0.756  0.16526  1.0000
  F   F13       1.0  0.9906499999999999  0.57194  0.20420000000000005  1.0000
  O   O33       1.0  0.54359  0.90256  0.65884  1.0000
  H   H15       1.0  0.44986  0.98681  0.6671400000000001  1.0000
  O   O34       1.0  0.82564  0.74611  0.6592200000000001  1.0000
  H   H16       1.0  0.8349400000000001  0.72987  0.60724  1.0000
  F   F14       1.0  0.76192  0.42907  0.83296  1.0000
  O   O35       1.0  0.5289200000000001  0.58903  0.8316400000000003  1.0000
  H   H17       1.0  0.5410299999999999  0.58127  0.8838400000000001  1.0000
  O   O36       1.0  0.5496199999999999  0.50655  0.69982  1.0000
  H   H18       1.0  0.4603500000000001  0.59401  0.70934  1.0000
