data_image0
_chemical_formula_structural       C120Cr12H144O60
_chemical_formula_sum              "C120 Cr12 H144 O60"
_cell_length_a       19.64657
_cell_length_b       11.31163
_cell_length_c       18.72456
_cell_angle_alpha    90.0016
_cell_angle_beta     89.45711999999999
_cell_angle_gamma    90.00266

_space_group_name_H-M_alt    "P 1"
_space_group_IT_number       1

loop_
  _space_group_symop_operation_xyz
  'x, y, z'

loop_
  _atom_site_type_symbol
  _atom_site_label
  _atom_site_symmetry_multiplicity
  _atom_site_fract_x
  _atom_site_fract_y
  _atom_site_fract_z
  _atom_site_occupancy
  C   C1        1.0  0.76153  0.52353  0.63908  1.0000
  C   C2        1.0  0.2532  0.05674  0.56315  1.0000
  C   C3        1.0  0.74093  0.03775  0.15284  1.0000
  C   C4        1.0  0.77384  0.13169  0.85872  1.0000
  C   C5        1.0  0.22617  0.13165  0.14129  1.0000
  C   C6        1.0  0.2738399999999999  0.6317  0.85872  1.0000
  C   C7        1.0  0.72617  0.63166  0.14128  1.0000
  C   C8        1.0  0.94662  0.35624  0.8613499999999998  1.0000
  C   C9        1.0  0.05335999999999999  0.35624  0.13865  1.0000
  C   C10       1.0  0.4466300000000001  0.85624  0.8613499999999998  1.0000
  C   C11       1.0  0.55337  0.85624  0.13865  1.0000
  C   C12       1.0  0.68726  0.13235  0.46615999999999996  1.0000
  C   C13       1.0  0.2468  0.55674  0.43685  1.0000
  C   C14       1.0  0.31274  0.13234  0.53384  1.0000
  C   C15       1.0  0.18726  0.63235  0.46615999999999996  1.0000
  C   C16       1.0  0.81274  0.63235  0.53384  1.0000
  C   C17       1.0  0.69281  0.14523  0.5472499999999999  1.0000
  C   C18       1.0  0.30719  0.14523  0.45275  1.0000
  C   C19       1.0  0.19281  0.64523  0.5472499999999999  1.0000
  C   C20       1.0  0.80719  0.64523  0.45275  1.0000
  C   C21       1.0  0.7563200000000001  0.9392000000000001  0.48066999999999993  1.0000
  C   C22       1.0  0.24368  0.9392000000000001  0.51932  1.0000
  C   C23       1.0  0.25632  0.43920000000000003  0.48066999999999993  1.0000
  C   C24       1.0  0.7532  0.55674  0.56315  1.0000
  C   C25       1.0  0.74368  0.43920000000000003  0.51932  1.0000
  C   C26       1.0  0.7605  0.09055  0.5741599999999999  1.0000
  C   C27       1.0  0.23949999999999996  0.09055  0.4258399999999999  1.0000
  C   C28       1.0  0.2605  0.59055  0.5741599999999999  1.0000
  C   C29       1.0  0.7395  0.59055  0.4258399999999999  1.0000
  C   C30       1.0  0.75378  0.95812  0.5619999999999998  1.0000
  C   C31       1.0  0.24621999999999997  0.95812  0.43799999999999994  1.0000
  C   C32       1.0  0.25378  0.45811  0.5619999999999998  1.0000
  C   C33       1.0  0.23847  0.52353  0.3609099999999999  1.0000
  C   C34       1.0  0.74622  0.45811  0.43799999999999994  1.0000
  C   C35       1.0  0.8233800000000001  0.13336  0.5290999999999999  1.0000
  C   C36       1.0  0.17662  0.13335  0.47090999999999994  1.0000
  C   C37       1.0  0.32338  0.63336  0.5290999999999999  1.0000
  C   C38       1.0  0.67662  0.63335  0.47090999999999994  1.0000
  C   C39       1.0  0.0037500000000000007  0.20454  0.45897999999999994  1.0000
  C   C40       1.0  0.9962499999999999  0.20454  0.54101  1.0000
  C   C41       1.0  0.50375  0.70454  0.45897999999999994  1.0000
  C   C42       1.0  0.49625  0.70454  0.54101  1.0000
  C   C43       1.0  0.06449  0.40590000000000004  0.4734499999999999  1.0000
  C   C44       1.0  0.26153  0.02353  0.63908  1.0000
  C   C45       1.0  0.93551  0.40590000000000004  0.52655  1.0000
  C   C46       1.0  0.56449  0.9059000000000001  0.4734499999999999  1.0000
  C   C47       1.0  0.43551  0.9059000000000001  0.52655  1.0000
  C   C48       1.0  0.94133  0.39025  0.44547999999999993  1.0000
  C   C49       1.0  0.05867  0.39026  0.55452  1.0000
  C   C50       1.0  0.44133  0.8902500000000001  0.44547999999999993  1.0000
  C   C51       1.0  0.55867  0.89026  0.55452  1.0000
  C   C52       1.0  0.01025  0.33301  0.43090999999999996  1.0000
  C   C53       1.0  0.98975  0.33301  0.56909  1.0000
  C   C54       1.0  0.51025  0.8330100000000001  0.43090999999999996  1.0000
  C   C55       1.0  0.73847  0.02353  0.3609099999999999  1.0000
  C   C56       1.0  0.4897500000000001  0.8330100000000001  0.56909  1.0000
  C   C57       1.0  0.81275  0.006040000000000001  0.04381  1.0000
  C   C58       1.0  0.18715  0.00619  0.9561599999999999  1.0000
  C   C59       1.0  0.31276  0.50609  0.04381  1.0000
  C   C60       1.0  0.68716  0.50618  0.9561599999999999  1.0000
  C   C61       1.0  0.77441  0.12125000000000001  0.64936  1.0000
  C   C62       1.0  0.22558999999999998  0.12125000000000001  0.35064  1.0000
  C   C63       1.0  0.27441  0.62125  0.64936  1.0000
  C   C64       1.0  0.72559  0.62125  0.35064  1.0000
  C   C65       1.0  0.81832  0.02108  0.96404  1.0000
  C   C66       1.0  0.81074  0.13064  0.4483399999999999  1.0000
  C   C67       1.0  0.18168  0.02101  0.035949999999999996  1.0000
  C   C68       1.0  0.31833  0.52112  0.96405  1.0000
  C   C69       1.0  0.68167  0.52104  0.03594  1.0000
  C   C70       1.0  0.68441  0.03997  0.03592  1.0000
  C   C71       1.0  0.31555  0.03981  0.9640799999999999  1.0000
  C   C72       1.0  0.18443  0.53992  0.03592  1.0000
  C   C73       1.0  0.8155499999999999  0.53984  0.9640799999999999  1.0000
  C   C74       1.0  0.76284  0.20472  0.061619999999999994  1.0000
  C   C75       1.0  0.23726  0.2047  0.9383899999999997  1.0000
  C   C76       1.0  0.2628  0.7047200000000001  0.061619999999999994  1.0000
  C   C77       1.0  0.18926  0.13063  0.55166  1.0000
  C   C78       1.0  0.73724  0.7047200000000001  0.9383899999999997  1.0000
  C   C79       1.0  0.75055  0.07409  0.07619999999999998  1.0000
  C   C80       1.0  0.24945  0.07406  0.9237999999999998  1.0000
  C   C81       1.0  0.25055  0.57409  0.07621  1.0000
  C   C82       1.0  0.74944  0.57408  0.9237999999999998  1.0000
  C   C83       1.0  0.76087  0.10337  0.9363199999999999  1.0000
  C   C84       1.0  0.23913  0.10329  0.06368  1.0000
  C   C85       1.0  0.26087  0.60338  0.9363299999999999  1.0000
  C   C86       1.0  0.73913  0.60331  0.06368  1.0000
  C   C87       1.0  0.69413  0.03797  0.953  1.0000
  C   C88       1.0  0.31074  0.63064  0.4483399999999999  1.0000
  C   C89       1.0  0.30585  0.03784  0.047  1.0000
  C   C90       1.0  0.19414  0.53795  0.953  1.0000
  C   C91       1.0  0.80584  0.53784  0.047  1.0000
  C   C92       1.0  0.75753  0.22115  0.9796299999999998  1.0000
  C   C93       1.0  0.24252000000000004  0.22108  0.020389999999999995  1.0000
  C   C94       1.0  0.2575  0.72116  0.9796299999999998  1.0000
  C   C95       1.0  0.74252  0.7211000000000001  0.020389999999999995  1.0000
  C   C96       1.0  0.00598  0.47955000000000003  0.03993  1.0000
  C   C97       1.0  0.99409  0.47953000000000007  0.96005  1.0000
  C   C98       1.0  0.50601  0.97956  0.03992  1.0000
  C   C99       1.0  0.68927  0.63063  0.55166  1.0000
  C   C100      1.0  0.49410999999999994  0.9795400000000001  0.96005  1.0000
  C   C101      1.0  0.07481  0.29714  0.00814  1.0000
  C   C102      1.0  0.92511  0.29732000000000003  0.99191  1.0000
  C   C103      1.0  0.57483  0.79715  0.00813  1.0000
  C   C104      1.0  0.42512000000000005  0.79736  0.99191  1.0000
  C   C105      1.0  0.9608599999999999  0.27424  0.06351  1.0000
  C   C106      1.0  0.03903  0.27405  0.9365599999999998  1.0000
  C   C107      1.0  0.46088  0.77424  0.06349999999999999  1.0000
  C   C108      1.0  0.53904  0.77404  0.9365499999999999  1.0000
  C   C109      1.0  0.96944  0.34212  0.64511  1.0000
  C   C110      1.0  0.7468  0.05674  0.43685  1.0000
  C   C111      1.0  0.030560000000000004  0.34212  0.35489  1.0000
  C   C112      1.0  0.46943999999999997  0.84213  0.64511  1.0000
  C   C113      1.0  0.5305599999999999  0.84212  0.35489  1.0000
  C   C114      1.0  0.02507  0.35229  0.06478  1.0000
  C   C115      1.0  0.9749  0.3523  0.93524  1.0000
  C   C116      1.0  0.52509  0.8523  0.06477  1.0000
  C   C117      1.0  0.47490999999999994  0.8523  0.93524  1.0000
  C   C118      1.0  0.75907  0.53775  0.84716  1.0000
  C   C119      1.0  0.24093  0.53775  0.15284  1.0000
  C   C120      1.0  0.25907  0.03774  0.84716  1.0000
  Cr  Cr1       1.0  0.8856900000000001  0.49286  0.7453099999999999  1.0000
  Cr  Cr2       1.0  0.11188  0.17859  0.24698999999999996  1.0000
  Cr  Cr3       1.0  0.38812  0.6785900000000001  0.75301  1.0000
  Cr  Cr4       1.0  0.61188  0.6785900000000001  0.24698999999999996  1.0000
  Cr  Cr5       1.0  0.11431000000000001  0.49286  0.25469  1.0000
  Cr  Cr6       1.0  0.38569  0.9928600000000001  0.7453099999999999  1.0000
  Cr  Cr7       1.0  0.61431  0.9928600000000001  0.25469  1.0000
  Cr  Cr8       1.0  0.72988  0.33227  0.74819  1.0000
  Cr  Cr9       1.0  0.27012  0.33227  0.25181  1.0000
  Cr  Cr10      1.0  0.22988  0.83227  0.74819  1.0000
  Cr  Cr11      1.0  0.77012  0.83227  0.25181  1.0000
  Cr  Cr12      1.0  0.88812  0.17859  0.75301  1.0000
  H   H1        1.0  0.8640899999999999  0.06775  0.53875  1.0000
  H   H2        1.0  0.20384999999999998  0.9102  0.41183  1.0000
  H   H3        1.0  0.8853899999999999  0.35768  0.0070799999999999995  1.0000
  H   H4        1.0  0.57402  0.79718  0.8911899999999998  1.0000
  H   H5        1.0  0.42593  0.79757  0.10884999999999999  1.0000
  H   H6        1.0  0.07401  0.29719  0.8911999999999999  1.0000
  H   H7        1.0  0.9259  0.29759  0.10884  1.0000
  H   H8        1.0  0.9016199999999999  0.21751  0.97115  1.0000
  H   H9        1.0  0.09826  0.2173  0.028919999999999998  1.0000
  H   H10       1.0  0.40157  0.71761  0.9711699999999999  1.0000
  H   H11       1.0  0.5983  0.71734  0.028919999999999998  1.0000
  H   H12       1.0  0.64891  0.10144  0.57364  1.0000
  H   H13       1.0  0.29614  0.4102  0.58817  1.0000
  H   H14       1.0  0.35109  0.10144  0.42635  1.0000
  H   H15       1.0  0.14891  0.60144  0.57364  1.0000
  H   H16       1.0  0.85109  0.60144  0.42635  1.0000
  H   H17       1.0  0.72178  0.86898  0.46446  1.0000
  H   H18       1.0  0.27822  0.86898  0.53553  1.0000
  H   H19       1.0  0.22178000000000003  0.36898  0.46446  1.0000
  H   H20       1.0  0.77822  0.36898  0.53553  1.0000
  H   H21       1.0  0.70559  0.92416  0.58538  1.0000
  H   H22       1.0  0.2944  0.92416  0.41460999999999987  1.0000
  H   H23       1.0  0.20559  0.42416  0.58538  1.0000
  H   H24       1.0  0.70385  0.4102  0.41183  1.0000
  H   H25       1.0  0.7944  0.42416  0.41460999999999987  1.0000
  H   H26       1.0  0.8549500000000001  0.0904  0.4200999999999999  1.0000
  H   H27       1.0  0.14505  0.09039  0.5799  1.0000
  H   H28       1.0  0.35495  0.5904  0.4200999999999999  1.0000
  H   H29       1.0  0.64505  0.59039  0.5799  1.0000
  H   H30       1.0  0.8421999999999998  0.21939  0.5465299999999998  1.0000
  H   H31       1.0  0.1578  0.21938000000000005  0.45348  1.0000
  H   H32       1.0  0.3422  0.71939  0.5465299999999998  1.0000
  H   H33       1.0  0.6578  0.7193800000000001  0.45348  1.0000
  H   H34       1.0  0.63823  0.09607  0.45184  1.0000
  H   H35       1.0  0.04629  0.15023  0.4414899999999999  1.0000
  H   H36       1.0  0.36177  0.09606  0.54815  1.0000
  H   H37       1.0  0.13823  0.59607  0.45184  1.0000
  H   H38       1.0  0.86177  0.59606  0.54815  1.0000
  H   H39       1.0  0.86901  0.0781  0.11925999999999998  1.0000
  H   H40       1.0  0.13101  0.07806  0.8805  1.0000
  H   H41       1.0  0.369  0.57816  0.11928  1.0000
  H   H42       1.0  0.63099  0.5781  0.88056  1.0000
  H   H43       1.0  0.97795  0.1298  0.11829  1.0000
  H   H44       1.0  0.02178  0.12952  0.88189  1.0000
  H   H45       1.0  0.47801  0.62979  0.11824  1.0000
  H   H46       1.0  0.95371  0.15022  0.5585099999999998  1.0000
  H   H47       1.0  0.52179  0.6295  0.8818799999999999  1.0000
  H   H48       1.0  0.80417  0.22104000000000001  0.4268799999999999  1.0000
  H   H49       1.0  0.19583  0.22104000000000001  0.5731199999999999  1.0000
  H   H50       1.0  0.30417  0.7210400000000001  0.4268799999999999  1.0000
  H   H51       1.0  0.69583  0.7210400000000001  0.5731199999999999  1.0000
  H   H52       1.0  0.54629  0.65023  0.4414899999999999  1.0000
  H   H53       1.0  0.45371  0.65022  0.5585099999999998  1.0000
  H   H54       1.0  0.9590699999999999  0.16086  0.43503  1.0000
  H   H55       1.0  0.04093  0.16087  0.56497  1.0000
  H   H56       1.0  0.45907000000000003  0.66086  0.43503  1.0000
  H   H57       1.0  0.13591  0.06774  0.46125  1.0000
  H   H58       1.0  0.54093  0.66087  0.56497  1.0000
  H   H59       1.0  0.61634  0.89133  0.4539  1.0000
  H   H60       1.0  0.38366  0.89133  0.54611  1.0000
  H   H61       1.0  0.11634  0.39133000000000007  0.4539  1.0000
  H   H62       1.0  0.8836599999999999  0.39133000000000007  0.54611  1.0000
  H   H63       1.0  0.60055  0.83483  0.57503  1.0000
  H   H64       1.0  0.39945  0.83482  0.42496  1.0000
  H   H65       1.0  0.10055  0.33483  0.57503  1.0000
  H   H66       1.0  0.89945  0.33482  0.42496  1.0000
  H   H67       1.0  0.93803  0.47744000000000003  0.41852999999999996  1.0000
  H   H68       1.0  0.36409  0.56775  0.53875  1.0000
  H   H69       1.0  0.06196999999999999  0.47744000000000003  0.58147  1.0000
  H   H70       1.0  0.43803000000000003  0.97744  0.41852999999999996  1.0000
  H   H71       1.0  0.56197  0.97744  0.58147  1.0000
  H   H72       1.0  0.94794  0.49985  0.53667  1.0000
  H   H73       1.0  0.05206  0.49985  0.46333  1.0000
  H   H74       1.0  0.44793999999999995  0.9998500000000001  0.53667  1.0000
  H   H75       1.0  0.55206  0.9998500000000001  0.46333  1.0000
  H   H76       1.0  0.80421  0.9147200000000001  0.05482999999999999  1.0000
  H   H77       1.0  0.19532999999999998  0.91478  0.9449899999999999  1.0000
  H   H78       1.0  0.30427  0.41475  0.05484  1.0000
  H   H79       1.0  0.63591  0.56774  0.46125  1.0000
  H   H80       1.0  0.69541  0.41479  0.9450199999999999  1.0000
  H   H81       1.0  0.68772  0.22081  0.44093999999999994  1.0000
  H   H82       1.0  0.31229  0.22081  0.55907  1.0000
  H   H83       1.0  0.18772  0.72081  0.44093999999999994  1.0000
  H   H84       1.0  0.81229  0.72081  0.55907  1.0000
  H   H85       1.0  0.8703600000000001  0.04932  0.94948  1.0000
  H   H86       1.0  0.12965  0.04913  0.05062  1.0000
  H   H87       1.0  0.37037  0.54939  0.94948  1.0000
  H   H88       1.0  0.62963  0.54917  0.0506  1.0000
  H   H89       1.0  0.81443  0.93359  0.93788  1.0000
  H   H90       1.0  0.80876  0.9088500000000002  0.46893  1.0000
  H   H91       1.0  0.18562  0.93346  0.06202  1.0000
  H   H92       1.0  0.31446  0.43363  0.93789  1.0000
  H   H93       1.0  0.68559  0.4335  0.062029999999999995  1.0000
  H   H94       1.0  0.66555  0.9581  0.05927999999999999  1.0000
  H   H95       1.0  0.33436  0.9579500000000001  0.9406699999999999  1.0000
  H   H96       1.0  0.16559  0.45804000000000006  0.05927999999999999  1.0000
  H   H97       1.0  0.83437  0.45799  0.9406599999999999  1.0000
  H   H98       1.0  0.69642  0.9465600000000001  0.9319399999999998  1.0000
  H   H99       1.0  0.30353  0.94645  0.06808  1.0000
  H   H100      1.0  0.19645  0.44654000000000005  0.9319399999999998  1.0000
  H   H101      1.0  0.19124  0.9088400000000001  0.5310599999999998  1.0000
  H   H102      1.0  0.80351  0.44644000000000006  0.06807  1.0000
  H   H103      1.0  0.72384  0.25775  0.09039  1.0000
  H   H104      1.0  0.27631  0.25766  0.90968  1.0000
  H   H105      1.0  0.22379  0.7577  0.09037999999999997  1.0000
  H   H106      1.0  0.77628  0.75769  0.9096599999999998  1.0000
  H   H107      1.0  0.81289  0.23466  0.081  1.0000
  H   H108      1.0  0.18724  0.23473  0.91898  1.0000
  H   H109      1.0  0.31283  0.73469  0.08100999999999997  1.0000
  H   H110      1.0  0.68721  0.7347400000000001  0.91899  1.0000
  H   H111      1.0  0.79257  0.28765  0.95849  1.0000
  H   H112      1.0  0.30876  0.4088500000000001  0.46893  1.0000
  H   H113      1.0  0.20746000000000003  0.28758  0.04151  1.0000
  H   H114      1.0  0.29254  0.78767  0.9584999999999999  1.0000
  H   H115      1.0  0.7075  0.7876500000000001  0.041519999999999994  1.0000
  H   H116      1.0  0.70502  0.25078  0.97198  1.0000
  H   H117      1.0  0.29504  0.25063  0.028079999999999997  1.0000
  H   H118      1.0  0.20500000000000002  0.75078  0.97198  1.0000
  H   H119      1.0  0.79507  0.75059  0.028059999999999998  1.0000
  H   H120      1.0  0.64575  0.10833  0.04877  1.0000
  H   H121      1.0  0.35428  0.10807  0.9512399999999999  1.0000
  H   H122      1.0  0.14574  0.60823  0.04877  1.0000
  H   H123      1.0  0.69124  0.40884000000000004  0.5310599999999998  1.0000
  H   H124      1.0  0.8542699999999999  0.60811  0.9512399999999999  1.0000
  H   H125      1.0  0.68756  0.23741000000000004  0.5629  1.0000
  H   H126      1.0  0.31245  0.23741000000000004  0.43711  1.0000
  H   H127      1.0  0.18756  0.73741  0.5629  1.0000
  H   H128      1.0  0.81245  0.73741  0.43711  1.0000
  H   H129      1.0  0.65071  0.08291  0.92682  1.0000
  H   H130      1.0  0.34929  0.08273  0.07317  1.0000
  H   H131      1.0  0.15072  0.58286  0.9268299999999999  1.0000
  H   H132      1.0  0.8492799999999999  0.58271  0.07318  1.0000
  H   H133      1.0  0.04511  0.54562  0.05229  1.0000
  H   H134      1.0  0.79614  0.9102  0.58817  1.0000
  H   H135      1.0  0.9549999999999998  0.54567  0.94768  1.0000
  H   H136      1.0  0.54514  0.04562  0.052279999999999986  1.0000
  H   H137      1.0  0.45502  0.04568  0.94767  1.0000
  H   H138      1.0  0.9590800000000002  0.50909  0.0683  1.0000
  H   H139      1.0  0.04102  0.50894  0.9316599999999999  1.0000
  H   H140      1.0  0.4591100000000001  0.00911  0.0683  1.0000
  H   H141      1.0  0.54104  0.00894  0.93165  1.0000
  H   H142      1.0  0.61461  0.85742  0.99294  1.0000
  H   H143      1.0  0.38544  0.8577800000000001  0.007109999999999999  1.0000
  H   H144      1.0  0.1146  0.3574  0.99296  1.0000
  O   O1        1.0  0.95721  0.44941  0.66548  1.0000
  O   O2        1.0  0.16748  0.0953  0.164  1.0000
  O   O3        1.0  0.33252  0.5953  0.836  1.0000
  O   O4        1.0  0.66748  0.5953  0.164  1.0000
  O   O5        1.0  0.94638  0.25394  0.8269399999999999  1.0000
  O   O6        1.0  0.05362  0.25394  0.17306  1.0000
  O   O7        1.0  0.44638  0.75394  0.8269399999999999  1.0000
  O   O8        1.0  0.55362  0.75394  0.17306  1.0000
  O   O9        1.0  0.8345599999999999  0.33457  0.74884  1.0000
  O   O10       1.0  0.16544  0.33457  0.25116  1.0000
  O   O11       1.0  0.33456  0.83457  0.74884  1.0000
  O   O12       1.0  0.04279  0.44941  0.33451999999999993  1.0000
  O   O13       1.0  0.66544  0.83457  0.25116  1.0000
  O   O14       1.0  0.8207299999999998  0.54124  0.66825  1.0000
  O   O15       1.0  0.17927  0.54124  0.33175  1.0000
  O   O16       1.0  0.32073  0.04124  0.66825  1.0000
  O   O17       1.0  0.67927  0.04124  0.33175  1.0000
  O   O18       1.0  0.71424  0.4550600000000001  0.66371  1.0000
  O   O19       1.0  0.28576  0.4550600000000001  0.3362899999999999  1.0000
  O   O20       1.0  0.21423999999999999  0.95506  0.66371  1.0000
  O   O21       1.0  0.78576  0.95506  0.3362899999999999  1.0000
  O   O22       1.0  0.73678  0.20487000000000002  0.67591  1.0000
  O   O23       1.0  0.45721  0.94941  0.66548  1.0000
  O   O24       1.0  0.26322  0.20487000000000002  0.32409  1.0000
  O   O25       1.0  0.23678000000000002  0.70487  0.67591  1.0000
  O   O26       1.0  0.76322  0.70487  0.32409  1.0000
  O   O27       1.0  0.83307  0.08759  0.6734899999999998  1.0000
  O   O28       1.0  0.16693  0.08759  0.32650999999999997  1.0000
  O   O29       1.0  0.33307  0.58759  0.6734899999999998  1.0000
  O   O30       1.0  0.66693  0.58759  0.32650999999999997  1.0000
  O   O31       1.0  0.94689  0.2468  0.6762999999999999  1.0000
  O   O32       1.0  0.05311  0.2468  0.32369999999999993  1.0000
  O   O33       1.0  0.44688999999999995  0.7468000000000001  0.6762999999999999  1.0000
  O   O34       1.0  0.54279  0.94941  0.33451999999999993  1.0000
  O   O35       1.0  0.55311  0.7468000000000001  0.32369999999999993  1.0000
  O   O36       1.0  0.95665  0.45712  0.8279799999999999  1.0000
  O   O37       1.0  0.04335  0.45712  0.17202  1.0000
  O   O38       1.0  0.45665000000000006  0.9571200000000001  0.8279799999999999  1.0000
  O   O39       1.0  0.54335  0.9571200000000001  0.17202  1.0000
  O   O40       1.0  0.8202199999999998  0.54839  0.81889  1.0000
  O   O41       1.0  0.17978  0.54839  0.18110999999999997  1.0000
  O   O42       1.0  0.32022  0.04839  0.81889  1.0000
  O   O43       1.0  0.67978  0.04839  0.18110999999999997  1.0000
  O   O44       1.0  0.71368  0.46277  0.82621  1.0000
  O   O45       1.0  0.73626  0.21201  0.82656  1.0000
  O   O46       1.0  0.28632  0.46277  0.17379  1.0000
  O   O47       1.0  0.21368  0.9627700000000001  0.82621  1.0000
  O   O48       1.0  0.78632  0.9627700000000001  0.17379  1.0000
  O   O49       1.0  0.8755699999999998  0.03143  0.07500999999999997  1.0000
  O   O50       1.0  0.12438000000000002  0.0324  0.92511  1.0000
  O   O51       1.0  0.37558  0.53156  0.07501999999999999  1.0000
  O   O52       1.0  0.62439  0.53222  0.9250699999999998  1.0000
  O   O53       1.0  0.9799  0.15444  0.06756  1.0000
  O   O54       1.0  0.01982  0.15431  0.93259  1.0000
  O   O55       1.0  0.47991  0.65444  0.06752  1.0000
  O   O56       1.0  0.26374  0.21201  0.17344  1.0000
  O   O57       1.0  0.51984  0.65429  0.93259  1.0000
  O   O58       1.0  0.23626  0.7120100000000001  0.82656  1.0000
  O   O59       1.0  0.76374  0.7120100000000001  0.17344  1.0000
  O   O60       1.0  0.8325199999999999  0.0953  0.836  1.0000
