data_image0
_chemical_formula_structural       C70Cr6H38O26H4
_chemical_formula_sum              "C70 Cr6 H42 O26"
_cell_length_a       11.08581
_cell_length_b       11.01294
_cell_length_c       18.873810000000002
_cell_angle_alpha    90.29092
_cell_angle_beta     89.42062
_cell_angle_gamma    59.346900000000005

_space_group_name_H-M_alt    "P 1"
_space_group_IT_number       1

loop_
  _space_group_symop_operation_xyz
  'x, y, z'

loop_
  _atom_site_type_symbol
  _atom_site_label
  _atom_site_symmetry_multiplicity
  _atom_site_fract_x
  _atom_site_fract_y
  _atom_site_fract_z
  _atom_site_occupancy
  C   C1        1.0  0.2402300000000001  0.64448  0.61095  1.0000
  C   C2        1.0  0.66688  0.55631  0.8005400000000001  1.0000
  C   C3        1.0  0.6997  0.67495  0.81182  1.0000
  C   C4        1.0  0.66831  0.64868  0.67652  1.0000
  C   C5        1.0  0.81697  0.62173  0.6898200000000001  1.0000
  C   C6        1.0  0.6456300000000001  0.54261  0.72113  1.0000
  C   C7        1.0  0.6894399999999998  0.15953  0.8242100000000001  1.0000
  C   C8        1.0  0.80435  0.14299  0.78213  1.0000
  C   C9        1.0  0.79454  0.14333  0.70679  1.0000
  C   C10       1.0  0.5529  0.20035  0.71908  1.0000
  C   C11       1.0  0.5635500000000001  0.19573000000000002  0.79114  1.0000
  C   C12       1.0  0.6528  0.62246  0.60118  1.0000
  C   C13       1.0  0.9278300000000003  0.12723000000000004  0.8119400000000001  1.0000
  C   C14       1.0  0.04169000000000001  0.10106  0.76902  1.0000
  C   C15       1.0  0.03556999999999999  0.09038  0.69598  1.0000
  C   C16       1.0  0.9143300000000002  0.10901  0.66501  1.0000
  C   C17       1.0  0.6651000000000001  0.17781  0.67565  1.0000
  C   C18       1.0  0.19334000000000007  0.65697  0.83693  1.0000
  C   C19       1.0  0.19786  0.54349  0.79886  1.0000
  C   C20       1.0  0.19045  0.54861  0.72371  1.0000
  C   C21       1.0  0.22588000000000003  0.74913  0.72772  1.0000
  C   C22       1.0  0.21877  0.75178  0.80076  1.0000
  C   C23       1.0  0.6281700000000001  0.22847  0.60273  1.0000
  C   C24       1.0  0.20879999999999999  0.42552  0.8339400000000001  1.0000
  C   C25       1.0  0.1982  0.32221  0.79682  1.0000
  C   C26       1.0  0.17417  0.33549  0.72443  1.0000
  C   C27       1.0  0.16871000000000003  0.44803999999999994  0.68815  1.0000
  C   C28       1.0  0.20606000000000013  0.65329  0.68754  1.0000
  C   C29       1.0  0.6896899999999999  0.6866600000000002  0.17858000000000002  1.0000
  C   C30       1.0  0.80176  0.5915  0.22154000000000001  1.0000
  C   C31       1.0  0.77823  0.5297  0.27968  1.0000
  C   C32       1.0  0.5293800000000001  0.69841  0.26876  1.0000
  C   C33       1.0  0.55268  0.73337  0.20111  1.0000
  C   C34       1.0  0.29177999999999993  0.6202400000000001  0.39308  1.0000
  C   C35       1.0  0.9385100000000002  0.55625  0.20706  1.0000
  C   C36       1.0  0.05300000000000003  0.43789999999999996  0.23476000000000002  1.0000
  C   C37       1.0  0.031949999999999985  0.36396  0.28625000000000006  1.0000
  C   C38       1.0  0.8959800000000001  0.40485  0.30707  1.0000
  C   C39       1.0  0.6409500000000002  0.60269  0.31031  1.0000
  C   C40       1.0  0.62377  0.17117  0.17428  1.0000
  C   C41       1.0  0.55344  0.12311  0.21989  1.0000
  C   C42       1.0  0.5848600000000002  0.10963  0.29236  1.0000
  C   C43       1.0  0.67354  0.26775  0.27519  1.0000
  C   C44       1.0  0.6691200000000003  0.25674  0.20221  1.0000
  C   C45       1.0  0.61855  0.58598  0.38578  1.0000
  C   C46       1.0  0.44542000000000004  0.0991  0.19775  1.0000
  C   C47       1.0  0.38460000000000005  0.04827  0.24506  1.0000
  C   C48       1.0  0.4366100000000001  0.011090000000000001  0.31321  1.0000
  C   C49       1.0  0.53976  0.03686  0.33617  1.0000
  C   C50       1.0  0.6427700000000002  0.18647  0.32059  1.0000
  C   C51       1.0  0.14763999999999997  0.67762  0.18342  1.0000
  C   C52       1.0  0.09545000000000003  0.79198  0.23204  1.0000
  C   C53       1.0  0.17406000000000005  0.77762  0.29095  1.0000
  C   C54       1.0  0.30518  0.52375  0.27195  1.0000
  C   C55       1.0  0.26158  0.54635  0.20163  1.0000
  C   C56       1.0  0.6170100000000001  0.23064  0.39453  1.0000
  C   C57       1.0  0.9802100000000001  0.9266400000000001  0.21808  1.0000
  C   C58       1.0  0.9814100000000001  0.0454  0.24187  1.0000
  C   C59       1.0  0.07187000000000003  0.03217  0.29409  1.0000
  C   C60       1.0  0.16675999999999994  0.9015600000000001  0.31855  1.0000
  C   C61       1.0  0.25784  0.63971  0.31807  1.0000
  C   C62       1.0  0.70296  0.10206  0.89617  1.0000
  C   C63       1.0  0.7248000000000002  0.68847  0.8877300000000001  1.0000
  C   C64       1.0  0.12156  0.70306  0.90656  1.0000
  C   C65       1.0  0.6701  0.10944000000000001  0.1033  1.0000
  C   C66       1.0  0.7234300000000002  0.71197  0.10651000000000001  1.0000
  C   C67       1.0  0.57618  0.8152  0.78203  1.0000
  C   C68       1.0  0.09582000000000002  0.70808  0.11155  1.0000
  C   C69       1.0  0.5607500000000001  0.80086  0.7018100000000002  1.0000
  C   C70       1.0  0.8344200000000002  0.63986  0.7691  1.0000
  Cr  Cr1       1.0  0.39294  0.39795  0.50223  1.0000
  Cr  Cr2       1.0  0.3984000000000001  0.7085000000000001  0.50126  1.0000
  Cr  Cr3       1.0  0.7086400000000002  0.39353  0.49646  1.0000
  Cr  Cr4       1.0  0.9378800000000003  0.93832  0.00762  1.0000
  Cr  Cr5       1.0  0.6255600000000002  0.93722  0.9945100000000001  1.0000
  Cr  Cr6       1.0  0.93808  0.62501  0.00119  1.0000
  H   H1        1.0  0.5953199999999998  0.9038700000000001  0.7912200000000001  1.0000
  H   H2        1.0  0.92429  0.54054  0.78875  1.0000
  H   H3        1.0  0.8961399999999999  0.51252  0.6728000000000001  1.0000
  H   H4        1.0  0.4527400000000001  0.2264  0.69762  1.0000
  H   H5        1.0  0.93725  0.13999  0.8678699999999999  1.0000
  H   H6        1.0  0.4734400000000001  0.21116000000000001  0.82113  1.0000
  H   H7        1.0  0.13709  0.08416000000000001  0.79273  1.0000
  H   H8        1.0  0.9172200000000001  0.09281000000000002  0.60837  1.0000
  H   H9        1.0  0.24852  0.8230800000000001  0.70263  1.0000
  H   H10       1.0  0.4763900000000002  0.84229  0.8099  1.0000
  H   H11       1.0  0.23161000000000004  0.40887  0.88982  1.0000
  H   H12       1.0  0.2257900000000001  0.83379  0.82892  1.0000
  H   H13       1.0  0.20876000000000003  0.23222  0.82485  1.0000
  H   H14       1.0  0.1616  0.25762  0.69585  1.0000
  H   H15       1.0  0.14302999999999996  0.45611000000000007  0.63277  1.0000
  H   H16       1.0  0.4251699999999999  0.7466  0.28895000000000004  1.0000
  H   H17       1.0  0.4646199999999999  0.80038  0.16796  1.0000
  H   H18       1.0  0.15794000000000002  0.40043  0.21671  1.0000
  H   H19       1.0  0.12238000000000002  0.27832  0.31111  1.0000
  H   H20       1.0  0.4520799999999999  0.82663  0.6911100000000001  1.0000
  H   H21       1.0  0.8867700000000002  0.33564  0.34402  1.0000
  H   H22       1.0  0.70071  0.34021  0.29642  1.0000
  H   H23       1.0  0.39811  0.12945  0.14633  1.0000
  H   H24       1.0  0.7075600000000002  0.30889  0.16805  1.0000
  H   H25       1.0  0.29984  0.03394  0.22798  1.0000
  H   H26       1.0  0.39488000000000006  0.9664400000000001  0.34959  1.0000
  H   H27       1.0  0.5752300000000001  0.0104  0.39018  1.0000
  H   H28       1.0  0.37698  0.41814  0.28973  1.0000
  H   H29       1.0  0.9002200000000002  0.93808  0.18285  1.0000
  H   H30       1.0  0.30779  0.45989  0.16354000000000002  1.0000
  H   H31       1.0  0.5782500000000003  0.8781500000000001  0.67249  1.0000
  H   H32       1.0  0.92056  0.14596  0.21765999999999996  1.0000
  H   H33       1.0  0.07085  0.12094000000000002  0.31648  1.0000
  H   H34       1.0  0.23985999999999996  0.9023100000000001  0.35509  1.0000
  H   H35       1.0  0.8594400000000001  0.72497  0.7767  1.0000
  H   H36       1.0  0.8360600000000002  0.69577  0.65844  1.0000
  H   H37       1.0  0.75454  0.45441000000000004  0.82008  1.0000
  H   H38       1.0  0.53813  0.5615  0.71286  1.0000
  O   O1        1.0  0.50734  0.25569  0.58143  1.0000
  O   O2        1.0  0.52451  0.69582  0.42405  1.0000
  O   O3        1.0  0.7363700000000001  0.50426  0.41481  1.0000
  O   O4        1.0  0.6912200000000002  0.27727  0.42218  1.0000
  O   O5        1.0  0.49999  0.49999000000000005  0.49998000000000004  1.0000
  O   O6        1.0  0.08956999999999997  0.82545  0.9305900000000001  1.0000
  O   O7        1.0  0.8187  0.05426  0.92986  1.0000
  O   O8        1.0  0.6063100000000001  0.07701000000000001  0.91552  1.0000
  O   O9        1.0  0.64673  0.80654  0.91756  1.0000
  O   O10       1.0  0.8372900000000001  0.59324  0.91524  1.0000
  O   O11       1.0  0.06532000000000004  0.63531  0.93158  1.0000
  O   O12       1.0  0.28036000000000005  0.52738  0.5789100000000001  1.0000
  O   O13       1.0  0.06846999999999998  0.82862  0.09185000000000001  1.0000
  O   O14       1.0  0.79915  0.0572  0.07935  1.0000
  O   O15       1.0  0.5852200000000001  0.08018  0.07677  1.0000
  O   O16       1.0  0.62717  0.8094800000000001  0.06705  1.0000
  O   O17       1.0  0.8162000000000001  0.59641  0.0765  1.0000
  O   O18       1.0  0.04576999999999999  0.63824  0.08107  1.0000
  O   O19       1.0  0.8338400000000001  0.83352  0.00111  1.0000
  O   O20       1.0  0.26060000000000005  0.73961  0.58458  1.0000
  O   O21       1.0  0.5323699999999999  0.6950500000000001  0.57383  1.0000
  O   O22       1.0  0.74485  0.50343  0.57638  1.0000
  O   O23       1.0  0.6990800000000003  0.2765  0.5719500000000001  1.0000
  O   O24       1.0  0.4988600000000001  0.25652  0.41986  1.0000
  O   O25       1.0  0.27249  0.52815  0.4291400000000001  1.0000
  O   O26       1.0  0.25211000000000006  0.74044  0.42301  1.0000
  H   H39       1.0  0.7206600000000001  0.43235  0.70361  1.0000
  H   H40       1.0  0.12607000000000002  0.0654  0.6631  1.0000
  H   H41       1.0  0.9502000000000003  0.62964  0.17843  1.0000
  H   H42       1.0  0.57051  0.58015  0.83091  1.0000
