data_image0
_chemical_formula_structural       O8C4O8C4O4V4C8H4C40H16F8
_chemical_formula_sum              "O20 C56 V4 H20 F8"
_cell_length_a       21.66312
_cell_length_b       7.18081
_cell_length_c       14.90171
_cell_angle_alpha    89.52912
_cell_angle_beta     106.43292
_cell_angle_gamma    89.87367999999998

_space_group_name_H-M_alt    "P 1"
_space_group_IT_number       1

loop_
  _space_group_symop_operation_xyz
  'x, y, z'

loop_
  _atom_site_type_symbol
  _atom_site_label
  _atom_site_symmetry_multiplicity
  _atom_site_fract_x
  _atom_site_fract_y
  _atom_site_fract_z
  _atom_site_occupancy
  O   O1        1.0  0.33586  0.6381899999999998  0.00211  1.0000
  O   O2        1.0  0.66414  0.36181  0.99789  1.0000
  O   O3        1.0  0.16413999999999995  0.13818999999999995  0.99789  1.0000
  O   O4        1.0  0.83586  0.8618099999999997  0.00211  1.0000
  O   O5        1.0  0.21753  0.3059199999999999  0.86196  1.0000
  O   O6        1.0  0.78247  0.6940799999999998  0.13804  1.0000
  O   O7        1.0  0.28247  0.8059199999999997  0.13804  1.0000
  O   O8        1.0  0.71753  0.19407999999999995  0.86196  1.0000
  C   C1        1.0  0.20579  0.47769999999999996  0.82594  1.0000
  C   C2        1.0  0.7942100000000001  0.5223  0.17406  1.0000
  C   C3        1.0  0.29429  0.9757699999999998  0.17419  1.0000
  C   C4        1.0  0.70571  0.024229999999999988  0.82582  1.0000
  O   O9        1.0  0.33869  0.30831999999999987  0.99324  1.0000
  O   O10       1.0  0.66131  0.69168  0.006760000000000001  1.0000
  O   O11       1.0  0.16131  0.8083199999999998  0.006760000000000001  1.0000
  O   O12       1.0  0.83869  0.19167999999999988  0.99324  1.0000
  O   O13       1.0  0.28617  0.14042999999999997  0.1301  1.0000
  O   O14       1.0  0.71383  0.8595699999999998  0.8699  1.0000
  O   O15       1.0  0.21383  0.6404299999999998  0.8699  1.0000
  O   O16       1.0  0.7861700000000001  0.35957  0.1301  1.0000
  C   C5        1.0  0.36496  0.4767999999999999  0.99769  1.0000
  C   C6        1.0  0.63504  0.5232  0.00231  1.0000
  C   C7        1.0  0.13505  0.9770399999999999  0.00239  1.0000
  C   C8        1.0  0.86495  0.02296  0.99761  1.0000
  O   O17       1.0  0.23263000000000003  0.4724099999999999  0.044750000000000005  1.0000
  O   O18       1.0  0.7673700000000001  0.52759  0.95525  1.0000
  O   O19       1.0  0.26737  0.9724099999999998  0.95525  1.0000
  O   O20       1.0  0.73263  0.027589999999999993  0.044750000000000005  1.0000
  V   V1        1.0  0.25322  0.19661999999999996  0.9917  1.0000
  V   V2        1.0  0.7467799999999999  0.8033799999999999  0.0083  1.0000
  V   V3        1.0  0.24678  0.6966199999999998  0.0083  1.0000
  V   V4        1.0  0.7532200000000001  0.30338  0.9917  1.0000
  C   C9        1.0  0.0325  0.8289999999999997  0.01935  1.0000
  C   C10       1.0  0.9674999999999999  0.171  0.98065  1.0000
  C   C11       1.0  0.46809  0.32887999999999995  0.98227  1.0000
  C   C12       1.0  0.53191  0.67112  0.01773  1.0000
  C   C13       1.0  0.96762  0.84221  0.01741  1.0000
  C   C14       1.0  0.03237999999999999  0.15779  0.98259  1.0000
  C   C15       1.0  0.53292  0.3423699999999998  0.98407  1.0000
  C   C16       1.0  0.46708  0.65763  0.01593  1.0000
  H   H1        1.0  0.9438800000000002  0.71767  0.03193  1.0000
  H   H2        1.0  0.056120000000000045  0.2823299999999999  0.96807  1.0000
  H   H3        1.0  0.55709  0.21784999999999993  0.97076  1.0000
  H   H4        1.0  0.44292  0.7821499999999998  0.029240000000000002  1.0000
  C   C17       1.0  0.934  0.012689999999999998  0.99814  1.0000
  C   C18       1.0  0.066  0.9873099999999998  0.00186  1.0000
  C   C19       1.0  0.56597  0.51299  0.00174  1.0000
  C   C20       1.0  0.43403  0.4870099999999999  0.99826  1.0000
  C   C21       1.0  0.67787  0.02133  0.72435  1.0000
  C   C22       1.0  0.32213  0.9786699999999998  0.27565  1.0000
  C   C23       1.0  0.8222300000000001  0.5099599999999999  0.27524  1.0000
  C   C24       1.0  0.17777  0.49004  0.72476  1.0000
  C   C25       1.0  0.68734  0.08534999999999998  0.56973  1.0000
  C   C26       1.0  0.31266  0.9145799999999997  0.43027  1.0000
  C   C27       1.0  0.81112  0.44747  0.42901  1.0000
  C   C28       1.0  0.18888  0.55252  0.57098  1.0000
  C   C29       1.0  0.71538  0.06975  0.66572  1.0000
  C   C30       1.0  0.28461999999999993  0.9301799999999998  0.33427  1.0000
  C   C31       1.0  0.7834800000000001  0.4699699999999999  0.33322  1.0000
  C   C32       1.0  0.21652000000000002  0.5299999999999998  0.66677  1.0000
  C   C33       1.0  0.61198  0.9891899999999998  0.68704  1.0000
  C   C34       1.0  0.38801  0.01087  0.31297  1.0000
  C   C35       1.0  0.88877  0.52718  0.31277  1.0000
  C   C36       1.0  0.11123  0.4728499999999999  0.68724  1.0000
  C   C37       1.0  0.58159  0.009350000000000002  0.58981  1.0000
  C   C38       1.0  0.4184  0.9906899999999997  0.4102  1.0000
  C   C39       1.0  0.9185  0.5025599999999998  0.4098400000000001  1.0000
  C   C40       1.0  0.08149999999999998  0.4974699999999999  0.59016  1.0000
  C   C41       1.0  0.62087  0.05766  0.53125  1.0000
  C   C42       1.0  0.37913  0.94233  0.46875  1.0000
  C   C43       1.0  0.87812  0.46217999999999987  0.46786000000000005  1.0000
  C   C44       1.0  0.12188  0.53784  0.53214  1.0000
  C   C45       1.0  0.5137  0.98694  0.5493  1.0000
  C   C46       1.0  0.48628999999999994  0.01312  0.45071  1.0000
  C   C47       1.0  0.98669  0.51451  0.45075  1.0000
  C   C48       1.0  0.013310000000000004  0.4855399999999999  0.54925  1.0000
  C   C49       1.0  0.5277099999999998  0.05979999999999999  0.39581  1.0000
  C   C50       1.0  0.4722799999999999  0.9402499999999999  0.6042  1.0000
  C   C51       1.0  0.97089  0.4460399999999999  0.60361  1.0000
  C   C52       1.0  0.02911  0.5540199999999997  0.39639  1.0000
  C   C53       1.0  0.59343  0.08105999999999997  0.43515  1.0000
  C   C54       1.0  0.40657  0.9189499999999998  0.56486  1.0000
  C   C55       1.0  0.9048800000000001  0.4350099999999999  0.56385  1.0000
  C   C56       1.0  0.09512  0.5650299999999998  0.43615  1.0000
  H   H5        1.0  0.41408  0.044749999999999984  0.26337  1.0000
  H   H6        1.0  0.58591  0.9553699999999998  0.73664  1.0000
  H   H7        1.0  0.0844  0.44383  0.73647  1.0000
  H   H8        1.0  0.91559  0.5562299999999999  0.26354  1.0000
  H   H9        1.0  0.23371  0.90248  0.3055  1.0000
  H   H10       1.0  0.76629  0.09738  0.69449  1.0000
  H   H11       1.0  0.26808000000000004  0.54507  0.6958200000000001  1.0000
  H   H12       1.0  0.7319300000000002  0.4548799999999999  0.30417  1.0000
  H   H13       1.0  0.7176700000000001  0.12310999999999997  0.52585  1.0000
  H   H14       1.0  0.2823300000000001  0.8767699999999998  0.47415  1.0000
  H   H15       1.0  0.7799100000000001  0.4163099999999999  0.47252  1.0000
  H   H16       1.0  0.2201  0.5836599999999997  0.52747  1.0000
  H   H17       1.0  0.51102  0.08207999999999999  0.32138000000000005  1.0000
  H   H18       1.0  0.48897  0.9179899999999998  0.67863  1.0000
  H   H19       1.0  0.9869600000000001  0.42199  0.67794  1.0000
  H   H20       1.0  0.013029999999999996  0.57809  0.32206  1.0000
  F   F1        1.0  0.06216  0.66085  0.03946  1.0000
  F   F2        1.0  0.93784  0.33913999999999994  0.96054  1.0000
  F   F3        1.0  0.43905000000000005  0.16063  0.9638400000000003  1.0000
  F   F4        1.0  0.56095  0.8393699999999997  0.03616  1.0000
  F   F5        1.0  0.63037  0.12713  0.37829000000000007  1.0000
  F   F6        1.0  0.36962  0.8728699999999998  0.62171  1.0000
  F   F7        1.0  0.86693  0.39601  0.6202100000000002  1.0000
  F   F8        1.0  0.13308  0.6040399999999998  0.37978  1.0000
