data_image0
_chemical_formula_structural       C60Cr6H11O26FH6F2HF2H3FH4F2HFH3F2H2
_chemical_formula_sum              "C60 Cr6 H31 O26 F11"
_cell_length_a       11.02292
_cell_length_b       10.92539
_cell_length_c       18.79081
_cell_angle_alpha    90.31352
_cell_angle_beta     89.87462999999998
_cell_angle_gamma    60.32070000000001

_symmetry_space_group_name_H-M    'P 1'
_symmetry_Int_Tables_number       1

loop_
  _symmetry_equiv_pos_as_xyz
  'x,y,z'

loop_
  _atom_site_type_symbol
  _atom_site_label
  _atom_site_symmetry_multiplicity
  _atom_site_fract_x
  _atom_site_fract_y
  _atom_site_fract_z
  _atom_site_occupancy
  C   C1        1.0  0.28359  0.62577  0.61599  1.0000
  C   C2        1.0  0.74253  0.51458  0.79582  1.0000
  C   C3        1.0  0.6972899999999999  0.67021  0.8138699999999999  1.0000
  C   C4        1.0  0.6681599999999999  0.64493  0.67778  1.0000
  C   C5        1.0  0.7639200000000003  0.70784  0.68812  1.0000
  C   C6        1.0  0.7306  0.4999  0.71591  1.0000
  C   C7        1.0  0.68576  0.14481  0.82051  1.0000
  C   C8        1.0  0.77992  0.17168  0.78357  1.0000
  C   C9        1.0  0.7745399999999999  0.18214  0.70923  1.0000
  C   C10       1.0  0.59228  0.12253  0.70695  1.0000
  C   C11       1.0  0.58658  0.12834  0.78017  1.0000
  C   C12       1.0  0.65236  0.62081  0.60178  1.0000
  C   C13       1.0  0.93401  0.08683  0.78419  1.0000
  C   C14       1.0  0.9299900000000002  0.09722  0.70401  1.0000
  C   C15       1.0  0.6789900000000001  0.1589  0.67039  1.0000
  C   C16       1.0  0.20688  0.6597  0.8412699999999999  1.0000
  C   C17       1.0  0.25094  0.53089  0.8056099999999999  1.0000
  C   C18       1.0  0.26956  0.52133  0.73206  1.0000
  C   C19       1.0  0.22291999999999995  0.75979  0.7290599999999999  1.0000
  C   C20       1.0  0.21812  0.7644  0.8029999999999999  1.0000
  C   C21       1.0  0.20970999999999998  0.41987  0.80712  1.0000
  C   C22       1.0  0.21509999999999999  0.42068  0.7263199999999999  1.0000
  C   C23       1.0  0.63028  0.22537  0.6015  1.0000
  C   C24       1.0  0.24499999999999997  0.63883  0.69161  1.0000
  C   C25       1.0  0.65304  0.65579  0.16486  1.0000
  C   C26       1.0  0.7519200000000001  0.53679  0.20212  1.0000
  C   C27       1.0  0.74608  0.5309  0.27473  1.0000
  C   C28       1.0  0.5269300000000001  0.74649  0.27658  1.0000
  C   C29       1.0  0.5320900000000001  0.7534  0.20179  1.0000
  C   C30       1.0  0.90868  0.46609  0.20449  1.0000
  C   C31       1.0  0.9001199999999999  0.45986000000000005  0.28435  1.0000
  C   C32       1.0  0.64146  0.64032  0.31397  1.0000
  C   C33       1.0  0.6352  0.1854  0.16961  1.0000
  C   C34       1.0  0.22088999999999995  0.6489000000000001  0.40204  1.0000
  C   C35       1.0  0.52526  0.18976  0.20901  1.0000
  C   C36       1.0  0.52297  0.20142  0.28176  1.0000
  C   C37       1.0  0.7257699999999999  0.22988999999999998  0.27749  1.0000
  C   C38       1.0  0.7265799999999999  0.22115  0.20334  1.0000
  C   C39       1.0  0.47546  0.08492  0.21265  1.0000
  C   C40       1.0  0.47126  0.10012  0.29266  1.0000
  C   C41       1.0  0.62992  0.20825  0.31742  1.0000
  C   C42       1.0  0.11897999999999999  0.68937  0.18839  1.0000
  C   C43       1.0  0.06701999999999997  0.80965  0.23173  1.0000
  C   C44       1.0  0.08056000000000003  0.80053  0.30407999999999996  1.0000
  C   C45       1.0  0.63834  0.61905  0.39022  1.0000
  C   C46       1.0  0.18180999999999997  0.5477  0.29385  1.0000
  C   C47       1.0  0.16866999999999996  0.55786  0.22010999999999997  1.0000
  C   C48       1.0  0.09218  0.9318500000000001  0.22809  1.0000
  C   C49       1.0  0.1025699999999999  0.9253300000000001  0.30824  1.0000
  C   C50       1.0  0.15009000000000006  0.66838  0.33544  1.0000
  C   C51       1.0  0.7031299999999999  0.09791  0.89472  1.0000
  C   C52       1.0  0.72125  0.68555  0.8896100000000001  1.0000
  C   C53       1.0  0.12289000000000001  0.70392  0.9071799999999999  1.0000
  C   C54       1.0  0.6729699999999997  0.11071  0.10247  1.0000
  C   C55       1.0  0.69534  0.68788  0.09674  1.0000
  C   C56       1.0  0.61291  0.23672000000000004  0.39283999999999997  1.0000
  C   C57       1.0  0.08979  0.71149  0.11369  1.0000
  C   C58       1.0  0.5410100000000001  0.75948  0.79345  1.0000
  C   C59       1.0  0.52535  0.74335  0.7131999999999998  1.0000
  C   C60       1.0  0.78226  0.72223  0.76856  1.0000
  Cr  Cr1       1.0  0.3929599999999999  0.39792  0.50224  1.0000
  Cr  Cr2       1.0  0.39834  0.70848  0.50125  1.0000
  Cr  Cr3       1.0  0.70867  0.39357  0.49646  1.0000
  Cr  Cr4       1.0  0.93765  0.93854  0.00761  1.0000
  Cr  Cr5       1.0  0.62533  0.93737  0.99452  1.0000
  Cr  Cr6       1.0  0.9379399999999999  0.62523  0.00119  1.0000
  H   H1        1.0  0.50974  0.10799  0.80456  1.0000
  H   H2        1.0  0.96691  0.97943  0.80353  1.0000
  H   H3        1.0  0.97664  0.15986  0.68329  1.0000
  H   H4        1.0  0.9658199999999998  0.99457  0.67642  1.0000
  H   H5        1.0  0.47998000000000013  0.72145  0.824  1.0000
  H   H6        1.0  0.4630299999999999  0.69152  0.70551  1.0000
  H   H7        1.0  0.80217  0.24901000000000004  0.30341  1.0000
  H   H8        1.0  0.54591  0.002990000000000001  0.32131  1.0000
  H   H9        1.0  0.0007599999999999987  0.02836  0.20844  1.0000
  H   H10       1.0  0.19255  0.9047  0.20126  1.0000
  H   H11       1.0  0.74772  0.83398  0.78187  1.0000
  O   O1        1.0  0.50738  0.2557  0.58144  1.0000
  O   O2        1.0  0.52448  0.69581  0.42404  1.0000
  O   O3        1.0  0.73639  0.50429  0.41479  1.0000
  O   O4        1.0  0.6913  0.27729  0.42217  1.0000
  O   O5        1.0  0.4999900000000001  0.49998999999999993  0.49998  1.0000
  O   O6        1.0  0.08939999999999997  0.82569  0.93057  1.0000
  O   O7        1.0  0.81846  0.05444  0.92985  1.0000
  O   O8        1.0  0.60606  0.07715  0.9155099999999999  1.0000
  O   O9        1.0  0.6465500000000001  0.80668  0.9175699999999999  1.0000
  O   O10       1.0  0.83717  0.59341  0.91525  1.0000
  O   O11       1.0  0.06520000000000004  0.63553  0.93157  1.0000
  O   O12       1.0  0.28032  0.52735  0.57893  1.0000
  O   O13       1.0  0.06825999999999999  0.82889  0.09184  1.0000
  O   O14       1.0  0.79887  0.05741  0.07934  1.0000
  O   O15       1.0  0.58493  0.08035  0.07678  1.0000
  O   O16       1.0  0.62696  0.80965  0.06706  1.0000
  O   O17       1.0  0.8160399999999999  0.59661  0.07651  1.0000
  O   O18       1.0  0.04560999999999997  0.6385  0.08106  1.0000
  O   O19       1.0  0.8336399999999998  0.83371  0.0011  1.0000
  O   O20       1.0  0.2605099999999999  0.73959  0.58459  1.0000
  O   O21       1.0  0.5323  0.69508  0.57382  1.0000
  O   O22       1.0  0.74484  0.5035  0.57637  1.0000
  O   O23       1.0  0.69912  0.27656  0.57196  1.0000
  O   O24       1.0  0.49894  0.2565  0.41985999999999996  1.0000
  O   O25       1.0  0.2725000000000001  0.52808  0.42915  1.0000
  O   O26       1.0  0.25205999999999995  0.74038  0.42301  1.0000
  F   F1        1.0  0.4869499999999999  0.90083  0.80946  1.0000
  H   H12       1.0  0.8359300000000001  0.42514  0.6939999999999998  1.0000
  H   H13       1.0  0.8944699999999999  0.66274  0.78151  1.0000
  H   H14       1.0  0.8654  0.63912  0.66208  1.0000
  H   H15       1.0  0.52261  0.09677  0.67846  1.0000
  H   H16       1.0  0.98326  0.14258999999999997  0.81041  1.0000
  H   H17       1.0  0.21886000000000003  0.8486199999999999  0.70158  1.0000
  F   F2        1.0  0.21279000000000006  0.87801  0.8359799999999998  1.0000
  F   F3        1.0  0.07829  0.4653  0.83383  1.0000
  H   H18       1.0  0.2906  0.32063  0.83163  1.0000
  F   F4        1.0  0.3073  0.29301  0.69667  1.0000
  F   F5        1.0  0.08628000000000001  0.47857  0.6946699999999999  1.0000
  H   H19       1.0  0.43752000000000013  0.82716  0.30501  1.0000
  H   H20       1.0  0.44863  0.84139  0.17421  1.0000
  H   H21       1.0  0.9502699999999998  0.53428  0.1864  1.0000
  F   F6        1.0  0.9716299999999999  0.33393  0.1729  1.0000
  H   H22       1.0  0.94495  0.3511  0.30514  1.0000
  H   H23       1.0  0.9334099999999999  0.52768  0.31281  1.0000
  H   H24       1.0  0.80634  0.22856  0.17323  1.0000
  H   H25       1.0  0.55514  0.9794200000000001  0.19315  1.0000
  F   F7        1.0  0.3446  0.13613  0.18273  1.0000
  F   F8        1.0  0.33685000000000004  0.16582  0.32017  1.0000
  H   H26       1.0  0.23158000000000006  0.4435799999999999  0.31689  1.0000
  F   F9        1.0  0.21296999999999994  0.4394600000000001  0.18002  1.0000
  H   H27       1.0  0.4716  0.84824  0.68711  1.0000
  H   H28       1.0  0.20717999999999998  0.9016699999999999  0.3267  1.0000
  H   H29       1.0  0.014109999999999996  0.01683  0.33524  1.0000
  F   F10       1.0  0.7081199999999999  0.83755  0.65538  1.0000
  F   F11       1.0  0.87781  0.42116  0.8162  1.0000
  H   H30       1.0  0.6730599999999999  0.48374999999999996  0.82424  1.0000
  H   H31       1.0  0.66131  0.45458  0.70623  1.0000
