data_image0
_chemical_formula_structural       O8H4C4O8C4O4V4C4H4C32H4NO2NO2NO2NO2
_chemical_formula_sum              "O28 H12 C44 V4 N4"
_cell_length_a       16.54678
_cell_length_b       7.25422
_cell_length_c       15.22888
_cell_angle_alpha    90.00959999999999
_cell_angle_beta     94.76933
_cell_angle_gamma    89.99982

_space_group_name_H-M_alt    "P 1"
_space_group_IT_number       1

loop_
  _space_group_symop_operation_xyz
  'x, y, z'

loop_
  _atom_site_type_symbol
  _atom_site_label
  _atom_site_symmetry_multiplicity
  _atom_site_fract_x
  _atom_site_fract_y
  _atom_site_fract_z
  _atom_site_occupancy
  O   O1        1.0  0.6634599999999998  0.36176  0.16597  1.0000
  O   O2        1.0  0.33653999999999984  0.63824  0.83403  1.0000
  O   O3        1.0  0.83654  0.8617600000000001  0.33403  1.0000
  O   O4        1.0  0.16345999999999994  0.13824  0.6659699999999998  1.0000
  O   O5        1.0  0.8270999999999997  0.68987  0.16373  1.0000
  O   O6        1.0  0.17289999999999994  0.31013  0.83627  1.0000
  O   O7        1.0  0.6729  0.18987  0.33627  1.0000
  O   O8        1.0  0.3271  0.81013  0.66373  1.0000
  H   H1        1.0  0.21134999999999998  0.06392  0.50041  1.0000
  H   H2        1.0  0.7886499999999997  0.93608  0.49959  1.0000
  H   H3        1.0  0.28841  0.55875  0.00019  1.0000
  H   H4        1.0  0.7115899999999997  0.44125  0.99981  1.0000
  C   C1        1.0  0.85326  0.52293  0.14356  1.0000
  C   C2        1.0  0.14674  0.47707  0.85644  1.0000
  C   C3        1.0  0.6467399999999998  0.02294  0.35644  1.0000
  C   C4        1.0  0.35326  0.97706  0.6435599999999999  1.0000
  O   O9        1.0  0.6634899999999998  0.69137  0.1555  1.0000
  O   O10       1.0  0.33650999999999986  0.30863  0.8444999999999998  1.0000
  O   O11       1.0  0.83651  0.19137  0.3445  1.0000
  O   O12       1.0  0.16349  0.80863  0.6555  1.0000
  O   O13       1.0  0.67177  0.86332  0.32573999999999986  1.0000
  O   O14       1.0  0.3282299999999999  0.13668  0.6742599999999997  1.0000
  O   O15       1.0  0.8282299999999998  0.36332  0.17426  1.0000
  O   O16       1.0  0.17176999999999998  0.63668  0.82574  1.0000
  C   C5        1.0  0.6361  0.52287  0.13385999999999995  1.0000
  C   C6        1.0  0.36389999999999995  0.47713  0.86614  1.0000
  C   C7        1.0  0.8639099999999997  0.02288  0.36612  1.0000
  C   C8        1.0  0.13608  0.97712  0.63388  1.0000
  O   O17       1.0  0.7529099999999997  0.5288  0.3058599999999999  1.0000
  O   O18       1.0  0.24709  0.4712  0.6941399999999998  1.0000
  O   O19       1.0  0.74709  0.0288  0.19414  1.0000
  O   O20       1.0  0.25291  0.9712  0.80586  1.0000
  V   V1        1.0  0.74946  0.8030100000000001  0.23964  1.0000
  V   V2        1.0  0.25054  0.19699  0.76036  1.0000
  V   V3        1.0  0.75054  0.30301  0.26036  1.0000
  V   V4        1.0  0.24945999999999996  0.69699  0.73964  1.0000
  C   C9        1.0  0.46877999999999986  0.9947000000000001  0.53006  1.0000
  C   C10       1.0  0.53122  0.0053  0.46994  1.0000
  C   C11       1.0  0.031219999999999998  0.49471  0.96994  1.0000
  C   C12       1.0  0.9687799999999999  0.5053  0.03006  1.0000
  H   H5        1.0  0.76611  0.85408  0.64886  1.0000
  H   H6        1.0  0.23389  0.14592  0.35114  1.0000
  H   H7        1.0  0.7343299999999998  0.36330000000000007  0.85006  1.0000
  H   H8        1.0  0.26567  0.6367  0.14994  1.0000
  C   C13       1.0  0.02869  0.09743  0.32507  1.0000
  C   C14       1.0  0.9713099999999999  0.90257  0.67493  1.0000
  C   C15       1.0  0.47109999999999996  0.59275  0.17546999999999993  1.0000
  C   C16       1.0  0.5289  0.40725  0.8245299999999998  1.0000
  C   C17       1.0  0.10766  0.13252  0.30203  1.0000
  C   C18       1.0  0.89234  0.86748  0.69797  1.0000
  C   C19       1.0  0.39201999999999987  0.62539  0.19881  1.0000
  C   C20       1.0  0.6079799999999997  0.37461  0.80119  1.0000
  C   C21       1.0  0.17232999999999998  0.12015  0.36704  1.0000
  C   C22       1.0  0.8276699999999998  0.87985  0.6329599999999997  1.0000
  C   C23       1.0  0.32732  0.61276  0.13383  1.0000
  C   C24       1.0  0.67268  0.38724  0.86617  1.0000
  C   C25       1.0  0.15885999999999997  0.07296000000000001  0.45325  1.0000
  C   C26       1.0  0.84114  0.92704  0.54675  1.0000
  C   C27       1.0  0.34089  0.56792  0.04735  1.0000
  C   C28       1.0  0.6591099999999998  0.43207999999999996  0.95265  1.0000
  C   C29       1.0  0.07983999999999998  0.03708  0.4776199999999999  1.0000
  C   C30       1.0  0.9201499999999998  0.96292  0.52238  1.0000
  C   C31       1.0  0.42002  0.53455  0.02268  1.0000
  C   C32       1.0  0.57998  0.46545  0.9773199999999997  1.0000
  C   C33       1.0  0.013369999999999984  0.04991000000000001  0.4123099999999999  1.0000
  C   C34       1.0  0.9866299999999999  0.95009  0.58769  1.0000
  C   C35       1.0  0.48650999999999994  0.54745  0.08798  1.0000
  C   C36       1.0  0.51349  0.45255  0.9120199999999999  1.0000
  C   C37       1.0  0.06662999999999997  0.98699  0.5653  1.0000
  C   C38       1.0  0.93337  0.01301  0.43469  1.0000
  C   C39       1.0  0.43336  0.48699  0.9347  1.0000
  C   C40       1.0  0.56664  0.51301  0.0653  1.0000
  C   C41       1.0  0.41594  0.98615  0.5814  1.0000
  C   C42       1.0  0.58406  0.01385  0.4186  1.0000
  C   C43       1.0  0.08407  0.48617  0.91861  1.0000
  C   C44       1.0  0.91593  0.51383  0.08139  1.0000
  H   H9        1.0  0.97934  0.10719  0.27407  1.0000
  H   H10       1.0  0.02065999999999998  0.89281  0.7259299999999997  1.0000
  H   H11       1.0  0.5204799999999998  0.60263  0.22644  1.0000
  H   H12       1.0  0.47951999999999995  0.39737  0.77356  1.0000
  N   N1        1.0  0.12210999999999998  0.17963  0.21277  1.0000
  O   O21       1.0  0.19474999999999995  0.22121  0.19235  1.0000
  O   O22       1.0  0.06294  0.17968  0.15086  1.0000
  N   N2        1.0  0.87789  0.82037  0.78723  1.0000
  O   O23       1.0  0.80525  0.77879  0.8076499999999998  1.0000
  O   O24       1.0  0.93706  0.8203199999999999  0.8491399999999998  1.0000
  N   N3        1.0  0.37749  0.67038  0.28831  1.0000
  O   O25       1.0  0.3045  0.70704  0.3093  1.0000
  O   O26       1.0  0.43696  0.67364  0.3498599999999999  1.0000
  N   N4        1.0  0.62251  0.32962  0.71169  1.0000
  O   O27       1.0  0.6955  0.29296  0.6907  1.0000
  O   O28       1.0  0.56304  0.32636  0.65013  1.0000
