data_image0
_chemical_formula_structural       C100Cr12H32O52CH3CH3CH3CH3OCH3OCH3OCH3OCH3CH3CH3CH3CH3OCH3OCH3OCH3OCH3OCH3OCH3OCH3OCH3
_chemical_formula_sum              "C120 Cr12 H92 O64"
_cell_length_a       19.14245
_cell_length_b       11.11216
_cell_length_c       18.826450000000005
_cell_angle_alpha    90.04998999999998
_cell_angle_beta     91.56591000000002
_cell_angle_gamma    90.09734999999999

_symmetry_space_group_name_H-M    'P 1'
_symmetry_Int_Tables_number       1

loop_
  _symmetry_equiv_pos_as_xyz
  'x,y,z'

loop_
  _atom_site_type_symbol
  _atom_site_label
  _atom_site_symmetry_multiplicity
  _atom_site_fract_x
  _atom_site_fract_y
  _atom_site_fract_z
  _atom_site_occupancy
  C   C1        1.0  0.27188  0.045729999999999986  0.85192  1.0000
  C   C2        1.0  0.7286900000000001  0.04619  0.14851  1.0000
  C   C3        1.0  0.77188  0.5457299999999999  0.85192  1.0000
  C   C4        1.0  0.22868999999999998  0.5461899999999998  0.14851  1.0000
  C   C5        1.0  0.54078  0.7320299999999998  0.96262  1.0000
  C   C6        1.0  0.49177  0.72366  0.026570000000000003  1.0000
  C   C7        1.0  0.04078  0.23203  0.96262  1.0000
  C   C8        1.0  0.99177  0.22366  0.026570000000000003  1.0000
  C   C9        1.0  0.31588  0.56791  0.9734799999999999  1.0000
  C   C10       1.0  0.68554  0.5678599999999999  0.02712  1.0000
  C   C11       1.0  0.81588  0.06791  0.9734799999999999  1.0000
  C   C12       1.0  0.18555  0.06786  0.02712  1.0000
  C   C13       1.0  0.31091  0.5663399999999998  0.04792  1.0000
  C   C14       1.0  0.69128  0.5669  0.95272  1.0000
  C   C15       1.0  0.81091  0.06634  0.04792  1.0000
  C   C16       1.0  0.19128  0.06689999999999999  0.95272  1.0000
  C   C17       1.0  0.24822  0.5946799999999999  0.07943  1.0000
  C   C18       1.0  0.75422  0.59303  0.92179  1.0000
  C   C19       1.0  0.74822  0.09467999999999999  0.07943  1.0000
  C   C20       1.0  0.25422  0.09301999999999998  0.92179  1.0000
  C   C21       1.0  0.19559000000000004  0.64791  0.03855  1.0000
  C   C22       1.0  0.80818  0.64139  0.96358  1.0000
  C   C23       1.0  0.69559  0.14791  0.03855  1.0000
  C   C24       1.0  0.30818  0.14139  0.96358  1.0000
  C   C25       1.0  0.19817  0.65  0.9652700000000001  1.0000
  C   C26       1.0  0.80516  0.6418  0.0368  1.0000
  C   C27       1.0  0.6981700000000001  0.15  0.9652700000000001  1.0000
  C   C28       1.0  0.30516  0.1418  0.0368  1.0000
  C   C29       1.0  0.25811  0.61015  0.9308300000000002  1.0000
  C   C30       1.0  0.7435800000000001  0.60669  0.07036  1.0000
  C   C31       1.0  0.75811  0.11015  0.9308300000000002  1.0000
  C   C32       1.0  0.24358000000000002  0.10668999999999998  0.07036  1.0000
  C   C33       1.0  0.49949  0.7233199999999997  0.53634  1.0000
  C   C34       1.0  0.50025  0.7233199999999997  0.46353999999999995  1.0000
  C   C35       1.0  0.99949  0.22331999999999996  0.53634  1.0000
  C   C36       1.0  0.0002499999999999973  0.22331999999999996  0.46353999999999995  1.0000
  C   C37       1.0  0.50444  0.8312499999999998  0.42571  1.0000
  C   C38       1.0  0.49555  0.8312499999999998  0.5743  1.0000
  C   C39       1.0  0.00444  0.33124999999999993  0.42571  1.0000
  C   C40       1.0  0.99555  0.33124999999999993  0.5743  1.0000
  C   C41       1.0  0.50152  0.94177  0.4625099999999999  1.0000
  C   C42       1.0  0.49871000000000004  0.94176  0.53762  1.0000
  C   C43       1.0  0.0015199999999999988  0.4417699999999999  0.4625099999999999  1.0000
  C   C44       1.0  0.99871  0.4417599999999999  0.53762  1.0000
  C   C45       1.0  0.46824  0.82111  0.856  1.0000
  C   C46       1.0  0.55884  0.8173599999999999  0.1379  1.0000
  C   C47       1.0  0.9682400000000001  0.32110999999999995  0.856  1.0000
  C   C48       1.0  0.05884000000000001  0.31736  0.1379  1.0000
  C   C49       1.0  0.21845  0.6972899999999999  0.52258  1.0000
  C   C50       1.0  0.78206  0.69661  0.47735999999999995  1.0000
  C   C51       1.0  0.71845  0.19728999999999994  0.52258  1.0000
  C   C52       1.0  0.28206  0.19660999999999995  0.47735999999999995  1.0000
  C   C53       1.0  0.21858  0.6881599999999999  0.44997000000000004  1.0000
  C   C54       1.0  0.78195  0.68756  0.54995  1.0000
  C   C55       1.0  0.7185800000000001  0.18816  0.44997000000000004  1.0000
  C   C56       1.0  0.28195  0.18755  0.54995  1.0000
  C   C57       1.0  0.25631  0.59725  0.41868  1.0000
  C   C58       1.0  0.74388  0.5969599999999999  0.58126  1.0000
  C   C59       1.0  0.75631  0.09724999999999999  0.41868  1.0000
  C   C60       1.0  0.24388  0.09696  0.58126  1.0000
  C   C61       1.0  0.30634  0.53287  0.45851000000000003  1.0000
  C   C62       1.0  0.69364  0.53268  0.54141  1.0000
  C   C63       1.0  0.80634  0.03287  0.45851000000000003  1.0000
  C   C64       1.0  0.19364  0.03268  0.54141  1.0000
  C   C65       1.0  0.30943  0.5439399999999999  0.53206  1.0000
  C   C66       1.0  0.69051  0.5436899999999999  0.46786  1.0000
  C   C67       1.0  0.80942  0.04393999999999999  0.53206  1.0000
  C   C68       1.0  0.19051  0.04369  0.46786  1.0000
  C   C69       1.0  0.26102  0.6219  0.56473  1.0000
  C   C70       1.0  0.73912  0.62148  0.43519  1.0000
  C   C71       1.0  0.76102  0.12189999999999997  0.56473  1.0000
  C   C72       1.0  0.23912  0.12148  0.43519  1.0000
  C   C73       1.0  0.2632  0.6427  0.8545  1.0000
  C   C74       1.0  0.73738  0.64105  0.14611  1.0000
  C   C75       1.0  0.7632  0.14269  0.8545  1.0000
  C   C76       1.0  0.23738000000000004  0.14105  0.14611  1.0000
  C   C77       1.0  0.26973  0.04816  0.64793  1.0000
  C   C78       1.0  0.73029  0.04819999999999999  0.35205  1.0000
  C   C79       1.0  0.76973  0.54816  0.64793  1.0000
  C   C80       1.0  0.23029000000000002  0.5482  0.35205  1.0000
  C   C81       1.0  0.46967  0.8236  0.64696  1.0000
  C   C82       1.0  0.5303300000000001  0.82357  0.35304  1.0000
  C   C83       1.0  0.9696700000000001  0.3236  0.64696  1.0000
  C   C84       1.0  0.030330000000000003  0.32357  0.35304  1.0000
  C   C85       1.0  0.26267  0.64572  0.64045  1.0000
  C   C86       1.0  0.73738  0.6455099999999999  0.35951  1.0000
  C   C87       1.0  0.76267  0.14572  0.64045  1.0000
  C   C88       1.0  0.23738000000000004  0.14551  0.35951  1.0000
  C   C89       1.0  0.48641000000000006  0.919  0.030180000000000002  1.0000
  C   C90       1.0  0.53322  0.9273499999999998  0.9661  1.0000
  C   C91       1.0  0.9864100000000001  0.41899999999999993  0.030180000000000002  1.0000
  C   C92       1.0  0.03322  0.42734999999999995  0.9661  1.0000
  C   C93       1.0  0.44271  0.81965  0.99309  1.0000
  C   C94       1.0  0.5839  0.8338599999999998  0.99952  1.0000
  C   C95       1.0  0.94271  0.31964999999999993  0.99309  1.0000
  C   C96       1.0  0.0839  0.33386  0.99952  1.0000
  C   C97       1.0  0.49228  0.82723  0.92975  1.0000
  C   C98       1.0  0.53481  0.8243899999999998  0.06334  1.0000
  C   C99       1.0  0.99228  0.32722999999999997  0.92975  1.0000
  C   C100      1.0  0.03481000000000001  0.32438  0.06334  1.0000
  Cr  Cr1       1.0  0.22963000000000003  0.8359  0.74735  1.0000
  Cr  Cr2       1.0  0.77037  0.8359  0.25265  1.0000
  Cr  Cr3       1.0  0.72963  0.3359  0.74735  1.0000
  Cr  Cr4       1.0  0.27037  0.3359  0.25265  1.0000
  Cr  Cr5       1.0  0.38741  0.98985  0.75085  1.0000
  Cr  Cr6       1.0  0.61259  0.98985  0.24915  1.0000
  Cr  Cr7       1.0  0.88741  0.48985  0.75085  1.0000
  Cr  Cr8       1.0  0.11259  0.48985  0.24915  1.0000
  Cr  Cr9       1.0  0.38580000000000003  0.67712  0.74934  1.0000
  Cr  Cr10      1.0  0.6142  0.67712  0.25066  1.0000
  Cr  Cr11      1.0  0.8858  0.17712  0.74934  1.0000
  Cr  Cr12      1.0  0.11420000000000001  0.17712  0.25066  1.0000
  H   H1        1.0  0.38477  0.81576  0.98901  1.0000
  H   H2        1.0  0.64176  0.8410299999999999  0.00311  1.0000
  H   H3        1.0  0.8847700000000001  0.31575  0.98901  1.0000
  H   H4        1.0  0.14176  0.34103  0.00311  1.0000
  H   H5        1.0  0.18397  0.7628199999999998  0.54549  1.0000
  H   H6        1.0  0.81676  0.76196  0.45448  1.0000
  H   H7        1.0  0.68397  0.26281999999999994  0.54549  1.0000
  H   H8        1.0  0.31676000000000004  0.26196  0.45448  1.0000
  H   H9        1.0  0.18212  0.74065  0.4188  1.0000
  H   H10       1.0  0.81866  0.7398699999999998  0.58111  1.0000
  H   H11       1.0  0.68212  0.24066  0.4188  1.0000
  H   H12       1.0  0.31866  0.23987  0.58111  1.0000
  H   H13       1.0  0.33947  0.4679199999999999  0.43293  1.0000
  H   H14       1.0  0.6603  0.46794999999999987  0.56701  1.0000
  H   H15       1.0  0.83947  0.9679099999999998  0.43293  1.0000
  H   H16       1.0  0.16030000000000003  0.9679499999999998  0.56701  1.0000
  H   H17       1.0  0.55891  0.6554699999999999  0.93078  1.0000
  H   H18       1.0  0.47438  0.63996  0.05281  1.0000
  H   H19       1.0  0.05892  0.15547  0.93078  1.0000
  H   H20       1.0  0.97438  0.13996  0.05281  1.0000
  H   H21       1.0  0.35458  0.5374  0.08137  1.0000
  H   H22       1.0  0.64878  0.53585  0.9186  1.0000
  H   H23       1.0  0.85458  0.03741  0.08137  1.0000
  H   H24       1.0  0.14878  0.03585  0.9186  1.0000
  H   H25       1.0  0.14981  0.6828999999999998  0.06317  1.0000
  H   H26       1.0  0.8552200000000001  0.6731499999999999  0.93986  1.0000
  H   H27       1.0  0.64981  0.18289999999999998  0.06317  1.0000
  H   H28       1.0  0.35522  0.17314  0.93986  1.0000
  H   H29       1.0  0.49923  0.63691  0.56261  1.0000
  H   H30       1.0  0.50033  0.6369  0.43716999999999995  1.0000
  H   H31       1.0  0.9992300000000001  0.13691  0.56261  1.0000
  H   H32       1.0  0.0003299999999999978  0.1369  0.43716999999999995  1.0000
  O   O1        1.0  0.21427  0.709  0.82747  1.0000
  O   O2        1.0  0.7857300000000002  0.709  0.17253  1.0000
  O   O3        1.0  0.71427  0.209  0.82747  1.0000
  O   O4        1.0  0.28573  0.209  0.17253  1.0000
  O   O5        1.0  0.44595000000000007  0.91944  0.67652  1.0000
  O   O6        1.0  0.55405  0.91944  0.32348  1.0000
  O   O7        1.0  0.9459500000000001  0.41944  0.67652  1.0000
  O   O8        1.0  0.05405  0.41944  0.32348  1.0000
  O   O9        1.0  0.45673  0.71763  0.66984  1.0000
  O   O10       1.0  0.54327  0.71763  0.33016  1.0000
  O   O11       1.0  0.9567299999999999  0.21762999999999993  0.66984  1.0000
  O   O12       1.0  0.04327  0.21762999999999993  0.33016  1.0000
  O   O13       1.0  0.32062  0.6256399999999999  0.67292  1.0000
  O   O14       1.0  0.67938  0.6256399999999999  0.32708  1.0000
  O   O15       1.0  0.8206200000000001  0.12564  0.67292  1.0000
  O   O16       1.0  0.17938  0.12564  0.32708  1.0000
  O   O17       1.0  0.33428  0.83429  0.74918  1.0000
  O   O18       1.0  0.66572  0.83429  0.25082  1.0000
  O   O19       1.0  0.83428  0.33429  0.74918  1.0000
  O   O20       1.0  0.16572  0.33429  0.25082  1.0000
  O   O21       1.0  0.23616  0.95849  0.82313  1.0000
  O   O22       1.0  0.76384  0.95849  0.17687  1.0000
  O   O23       1.0  0.73616  0.45849  0.82313  1.0000
  O   O24       1.0  0.26384  0.45849  0.17687  1.0000
  O   O25       1.0  0.33208  0.07547  0.83128  1.0000
  O   O26       1.0  0.66792  0.07547  0.16872  1.0000
  O   O27       1.0  0.8320800000000002  0.5754699999999999  0.83128  1.0000
  O   O28       1.0  0.16792  0.5754699999999999  0.16872  1.0000
  O   O29       1.0  0.44630000000000003  0.91811  0.82662  1.0000
  O   O30       1.0  0.5537  0.91811  0.17338  1.0000
  O   O31       1.0  0.9463  0.41811  0.82662  1.0000
  O   O32       1.0  0.0537  0.41811  0.17338  1.0000
  O   O33       1.0  0.45711000000000007  0.7161999999999998  0.83176  1.0000
  O   O34       1.0  0.54289  0.7161999999999998  0.16824  1.0000
  O   O35       1.0  0.95711  0.21619999999999998  0.83176  1.0000
  O   O36       1.0  0.04289  0.21619999999999998  0.16824  1.0000
  O   O37       1.0  0.32098  0.62431  0.82303  1.0000
  O   O38       1.0  0.67902  0.62431  0.17697  1.0000
  O   O39       1.0  0.82098  0.12430999999999999  0.82303  1.0000
  O   O40       1.0  0.17902000000000004  0.12430999999999999  0.17697  1.0000
  O   O41       1.0  0.21389  0.71043  0.66554  1.0000
  O   O42       1.0  0.78611  0.71043  0.33446  1.0000
  O   O43       1.0  0.7138900000000001  0.21042999999999995  0.66554  1.0000
  O   O44       1.0  0.28611  0.21042999999999995  0.33446  1.0000
  O   O45       1.0  0.23581  0.95982  0.67302  1.0000
  O   O46       1.0  0.76419  0.95982  0.32698  1.0000
  O   O47       1.0  0.73581  0.4598199999999999  0.67302  1.0000
  O   O48       1.0  0.26419  0.4598199999999999  0.32698  1.0000
  O   O49       1.0  0.3317  0.07689999999999998  0.66935  1.0000
  O   O50       1.0  0.6683  0.07689999999999998  0.33065  1.0000
  O   O51       1.0  0.8317000000000001  0.5769  0.66935  1.0000
  O   O52       1.0  0.16830000000000003  0.5769  0.33065  1.0000
  C   C101      1.0  0.36314  0.47058999999999995  0.57303  1.0000
  H   H33       1.0  0.33841  0.4237  0.61781  1.0000
  H   H34       1.0  0.38866  0.4027899999999999  0.53904  1.0000
  H   H35       1.0  0.40483  0.52995  0.59474  1.0000
  C   C102      1.0  0.6364799999999999  0.47058999999999995  0.42689  1.0000
  H   H36       1.0  0.6609  0.42377999999999993  0.38191  1.0000
  H   H37       1.0  0.61091  0.4026799999999999  0.46079999999999993  1.0000
  H   H38       1.0  0.5949  0.53015  0.40546  1.0000
  C   C103      1.0  0.86314  0.9705899999999998  0.57303  1.0000
  H   H39       1.0  0.83841  0.9237  0.61781  1.0000
  H   H40       1.0  0.8886700000000001  0.9027899999999999  0.53904  1.0000
  H   H41       1.0  0.90483  0.029949999999999997  0.59474  1.0000
  C   C104      1.0  0.13648000000000002  0.9705899999999998  0.42689  1.0000
  H   H42       1.0  0.1609  0.9237799999999998  0.38191  1.0000
  H   H43       1.0  0.11091  0.9026799999999998  0.46079999999999993  1.0000
  H   H44       1.0  0.0949  0.030149999999999996  0.40546  1.0000
  O   O53       1.0  0.45741  0.014559999999999998  0.06832  1.0000
  C   C105      1.0  0.5091  0.10081999999999998  0.08716  1.0000
  H   H45       1.0  0.50402  0.18093999999999996  0.05335  1.0000
  H   H46       1.0  0.56315  0.06757  0.08302  1.0000
  H   H47       1.0  0.50134  0.13021  0.14272  1.0000
  O   O54       1.0  0.55284  0.03196999999999999  0.93027  1.0000
  C   C106      1.0  0.49416  0.10259999999999998  0.90982  1.0000
  H   H48       1.0  0.49549  0.19044  0.93678  1.0000
  H   H49       1.0  0.44328  0.06066999999999999  0.9214099999999998  1.0000
  H   H50       1.0  0.49629  0.12194999999999999  0.85213  1.0000
  O   O55       1.0  0.9574100000000001  0.5145599999999999  0.06832  1.0000
  C   C107      1.0  0.0091  0.60081  0.08716  1.0000
  H   H51       1.0  0.00401  0.6809399999999999  0.05335  1.0000
  H   H52       1.0  0.06315  0.56757  0.08302  1.0000
  H   H53       1.0  0.0013399999999999992  0.63021  0.14272  1.0000
  O   O56       1.0  0.05284  0.5319699999999999  0.93027  1.0000
  C   C108      1.0  0.9941500000000001  0.6026  0.90982  1.0000
  H   H54       1.0  0.9954900000000001  0.69044  0.93678  1.0000
  H   H55       1.0  0.9432800000000001  0.56067  0.9214099999999998  1.0000
  H   H56       1.0  0.9962799999999999  0.6219499999999999  0.85213  1.0000
  C   C109      1.0  0.38183  0.52058  0.94234  1.0000
  H   H57       1.0  0.41968  0.48888999999999994  0.9835199999999998  1.0000
  H   H58       1.0  0.3698  0.44538999999999995  0.90506  1.0000
  H   H59       1.0  0.40888  0.5933099999999999  0.91551  1.0000
  C   C110      1.0  0.61962  0.51855  0.057789999999999994  1.0000
  H   H60       1.0  0.5801  0.49435  0.01622  1.0000
  H   H61       1.0  0.63161  0.4384199999999999  0.0911  1.0000
  H   H62       1.0  0.5940400000000001  0.58672  0.08919  1.0000
  C   C111      1.0  0.88183  0.02058  0.94234  1.0000
  H   H63       1.0  0.91968  0.98889  0.9835199999999998  1.0000
  H   H64       1.0  0.8698000000000001  0.9453999999999998  0.90506  1.0000
  H   H65       1.0  0.90888  0.09331  0.91551  1.0000
  C   C112      1.0  0.11962  0.01855  0.057789999999999994  1.0000
  H   H66       1.0  0.0801  0.99435  0.01622  1.0000
  H   H67       1.0  0.13161000000000003  0.93842  0.09111  1.0000
  H   H68       1.0  0.09404  0.08672  0.08919  1.0000
  O   O57       1.0  0.14039000000000001  0.68717  0.9256400000000001  1.0000
  C   C113      1.0  0.11998000000000002  0.80257  0.94552  1.0000
  H   H69       1.0  0.16579  0.85488  0.9638200000000001  1.0000
  H   H70       1.0  0.08180999999999998  0.7972599999999999  0.98844  1.0000
  H   H71       1.0  0.09469000000000001  0.8475299999999998  0.89898  1.0000
  O   O58       1.0  0.86413  0.6722099999999999  0.0767  1.0000
  C   C114      1.0  0.88097  0.7932199999999999  0.06503  1.0000
  H   H72       1.0  0.9127300000000002  0.82714  0.11098999999999999  1.0000
  H   H73       1.0  0.83303  0.84798  0.060300000000000006  1.0000
  H   H74       1.0  0.91246  0.8010299999999999  0.01685  1.0000
  O   O59       1.0  0.6403900000000001  0.18717  0.9256400000000001  1.0000
  C   C115      1.0  0.61999  0.30257  0.94552  1.0000
  H   H75       1.0  0.6658  0.35488  0.96381  1.0000
  H   H76       1.0  0.58181  0.29727  0.98844  1.0000
  H   H77       1.0  0.59469  0.34752999999999995  0.89898  1.0000
  O   O60       1.0  0.36412  0.17221  0.0767  1.0000
  C   C116      1.0  0.38097  0.29322  0.06502  1.0000
  H   H78       1.0  0.41272  0.32716  0.11098999999999999  1.0000
  H   H79       1.0  0.33304  0.34798  0.06027  1.0000
  H   H80       1.0  0.41247  0.30101999999999995  0.01685  1.0000
  O   O61       1.0  0.49656  0.04805999999999999  0.42438999999999993  1.0000
  C   C117      1.0  0.55816  0.11586999999999999  0.4348699999999999  1.0000
  H   H81       1.0  0.56458  0.1738  0.38759  1.0000
  H   H82       1.0  0.60505  0.05777999999999999  0.44216000000000005  1.0000
  H   H83       1.0  0.55489  0.17713999999999996  0.48101999999999995  1.0000
  O   O62       1.0  0.50386  0.04805  0.57585  1.0000
  C   C118      1.0  0.44234000000000007  0.11574  0.56553  1.0000
  H   H84       1.0  0.4360200000000001  0.17357  0.61291  1.0000
  H   H85       1.0  0.39537  0.05757  0.55816  1.0000
  H   H86       1.0  0.44567  0.17709  0.51946  1.0000
  O   O63       1.0  0.99656  0.54806  0.42438999999999993  1.0000
  C   C119      1.0  0.05816  0.61587  0.4348699999999999  1.0000
  H   H87       1.0  0.06458  0.6738  0.38759  1.0000
  H   H88       1.0  0.10505000000000002  0.5577799999999999  0.44216000000000005  1.0000
  H   H89       1.0  0.05489  0.6771399999999999  0.48101999999999995  1.0000
  O   O64       1.0  0.0038599999999999975  0.54805  0.57585  1.0000
  C   C120      1.0  0.9423400000000001  0.61574  0.56553  1.0000
  H   H90       1.0  0.93602  0.67356  0.61291  1.0000
  H   H91       1.0  0.8953700000000001  0.5575699999999999  0.55816  1.0000
  H   H92       1.0  0.94567  0.67709  0.51946  1.0000
