data_image0
_chemical_formula_structural       C112Cr12H60O52CHOCHOCHOCHOCO2HCO2HCO2HCO2H
_chemical_formula_sum              "C120 Cr12 H68 O64"
_cell_length_a       19.09406
_cell_length_b       10.960300000000002
_cell_length_c       18.80193
_cell_angle_alpha    89.84593
_cell_angle_beta     90.34831999999999
_cell_angle_gamma    89.85976

_space_group_name_H-M_alt    "P 1"
_space_group_IT_number       1

loop_
  _space_group_symop_operation_xyz
  'x, y, z'

loop_
  _atom_site_type_symbol
  _atom_site_label
  _atom_site_symmetry_multiplicity
  _atom_site_fract_x
  _atom_site_fract_y
  _atom_site_fract_z
  _atom_site_occupancy
  C   C1        1.0  0.72556  0.95897  0.85499  1.0000
  C   C2        1.0  0.27449  0.95915  0.14495  1.0000
  C   C3        1.0  0.22556  0.45896999999999993  0.85499  1.0000
  C   C4        1.0  0.7744899999999999  0.45915  0.14495  1.0000
  C   C5        1.0  0.69629  0.45180999999999993  0.03784  1.0000
  C   C6        1.0  0.3038199999999999  0.45119999999999993  0.9620700000000002  1.0000
  C   C7        1.0  0.19629  0.95181  0.03784  1.0000
  C   C8        1.0  0.8038199999999999  0.9512  0.9620700000000002  1.0000
  C   C9        1.0  0.6901099999999999  0.4428  0.9641500000000001  1.0000
  C   C10       1.0  0.30971  0.44251999999999997  0.03582  1.0000
  C   C11       1.0  0.19011  0.9428  0.9641500000000001  1.0000
  C   C12       1.0  0.80971  0.94252  0.03582  1.0000
  C   C13       1.0  0.81258  0.3887  0.95706  1.0000
  C   C14       1.0  0.18736  0.38917999999999997  0.04293000000000002  1.0000
  C   C15       1.0  0.31257999999999997  0.8887  0.95706  1.0000
  C   C16       1.0  0.68736  0.88918  0.04293000000000002  1.0000
  C   C17       1.0  0.8171  0.38797  0.030330000000000003  1.0000
  C   C18       1.0  0.18308  0.38774  0.9696700000000001  1.0000
  C   C19       1.0  0.3171  0.88797  0.030330000000000003  1.0000
  C   C20       1.0  0.68308  0.88774  0.9696700000000001  1.0000
  C   C21       1.0  0.65574  0.56865  0.03943000000000001  1.0000
  C   C22       1.0  0.34475  0.56726  0.96029  1.0000
  C   C23       1.0  0.15574  0.06865  0.03943000000000001  1.0000
  C   C24       1.0  0.8447499999999999  0.06726  0.96029  1.0000
  C   C25       1.0  0.64751  0.55724  0.95949  1.0000
  C   C26       1.0  0.35251  0.55616  0.040400000000000005  1.0000
  C   C27       1.0  0.14751  0.05724  0.95949  1.0000
  C   C28       1.0  0.85251  0.05616  0.040400000000000005  1.0000
  C   C29       1.0  0.74869  0.41389999999999993  0.9229600000000001  1.0000
  C   C30       1.0  0.25113  0.41424  0.07702  1.0000
  C   C31       1.0  0.24869  0.9139  0.9229600000000001  1.0000
  C   C32       1.0  0.7511299999999999  0.91424  0.07702  1.0000
  C   C33       1.0  0.51444  0.1737  0.4184  1.0000
  C   C34       1.0  0.55425  0.17641  0.5615  1.0000
  C   C35       1.0  0.01444  0.6737  0.4184  1.0000
  C   C36       1.0  0.05424999999999999  0.67641  0.5615  1.0000
  C   C37       1.0  0.5246599999999999  0.28397  0.45444  1.0000
  C   C38       1.0  0.54321  0.28509  0.52472  1.0000
  C   C39       1.0  0.02466  0.78397  0.45444  1.0000
  C   C40       1.0  0.04321  0.7850899999999998  0.52472  1.0000
  C   C41       1.0  0.5567699999999999  0.06663999999999998  0.5228500000000001  1.0000
  C   C42       1.0  0.53691  0.06519  0.45086000000000004  1.0000
  C   C43       1.0  0.05677000000000001  0.56664  0.5228500000000001  1.0000
  C   C44       1.0  0.03691  0.56519  0.45086000000000004  1.0000
  C   C45       1.0  0.5300499999999999  0.17743999999999996  0.8508700000000002  1.0000
  C   C46       1.0  0.46992  0.17763  0.14911000000000005  1.0000
  C   C47       1.0  0.030049999999999997  0.67744  0.8508700000000002  1.0000
  C   C48       1.0  0.96992  0.67763  0.14911000000000005  1.0000
  C   C49       1.0  0.47468999999999995  0.38823  0.46385  1.0000
  C   C50       1.0  0.49456  0.38872  0.54129  1.0000
  C   C51       1.0  0.9746899999999998  0.88823  0.46385  1.0000
  C   C52       1.0  0.9945599999999999  0.88872  0.54129  1.0000
  C   C53       1.0  0.7614999999999997  0.43083999999999995  0.4278600000000001  1.0000
  C   C54       1.0  0.24173999999999998  0.42975  0.57268  1.0000
  C   C55       1.0  0.26150000000000007  0.93084  0.4278600000000001  1.0000
  C   C56       1.0  0.7417399999999997  0.9297499999999999  0.57268  1.0000
  C   C57       1.0  0.82059  0.42356  0.47213  1.0000
  C   C58       1.0  0.18813999999999997  0.37551  0.53422  1.0000
  C   C59       1.0  0.32059  0.92356  0.47213  1.0000
  C   C60       1.0  0.6881399999999999  0.87551  0.53422  1.0000
  C   C61       1.0  0.81451  0.41342  0.54456  1.0000
  C   C62       1.0  0.18887  0.36923  0.4615000000000001  1.0000
  C   C63       1.0  0.31451  0.9134199999999999  0.54456  1.0000
  C   C64       1.0  0.68887  0.8692299999999998  0.4615000000000001  1.0000
  C   C65       1.0  0.69024  0.44228  0.53366  1.0000
  C   C66       1.0  0.29704  0.48221  0.4601100000000001  1.0000
  C   C67       1.0  0.19025  0.94228  0.53366  1.0000
  C   C68       1.0  0.79704  0.98221  0.4601100000000001  1.0000
  C   C69       1.0  0.6958999999999997  0.4466  0.45949000000000007  1.0000
  C   C70       1.0  0.29517  0.48906999999999995  0.5347  1.0000
  C   C71       1.0  0.1959  0.94661  0.45949000000000007  1.0000
  C   C72       1.0  0.79517  0.9890699999999999  0.5347  1.0000
  C   C73       1.0  0.88211  0.3390099999999999  0.47023  1.0000
  C   C74       1.0  0.156  0.25346  0.5440800000000002  1.0000
  C   C75       1.0  0.38211  0.83901  0.47023  1.0000
  C   C76       1.0  0.656  0.75346  0.5440800000000002  1.0000
  C   C77       1.0  0.8748999999999999  0.32704  0.5504  1.0000
  C   C78       1.0  0.15661  0.24439  0.46343000000000006  1.0000
  C   C79       1.0  0.3748999999999999  0.8270499999999998  0.5504  1.0000
  C   C80       1.0  0.65661  0.74439  0.46343000000000006  1.0000
  C   C81       1.0  0.74906  0.4146099999999999  0.5763800000000002  1.0000
  C   C82       1.0  0.24637  0.41326  0.42341  1.0000
  C   C83       1.0  0.24906999999999999  0.91461  0.5763800000000002  1.0000
  C   C84       1.0  0.74637  0.91326  0.42341  1.0000
  C   C85       1.0  0.73846  0.36521  0.8521100000000001  1.0000
  C   C86       1.0  0.26146  0.36535  0.14793  1.0000
  C   C87       1.0  0.23845999999999998  0.86521  0.8521100000000001  1.0000
  C   C88       1.0  0.7614599999999999  0.8653499999999998  0.14793  1.0000
  C   C89       1.0  0.72728  0.95725  0.6466800000000003  1.0000
  C   C90       1.0  0.27322  0.95672  0.35333000000000003  1.0000
  C   C91       1.0  0.22728  0.45725  0.6466800000000003  1.0000
  C   C92       1.0  0.7732199999999999  0.45671999999999996  0.35333000000000003  1.0000
  C   C93       1.0  0.56445  0.18110999999999997  0.6378700000000003  1.0000
  C   C94       1.0  0.4718399999999999  0.17674  0.3543  1.0000
  C   C95       1.0  0.06445  0.68111  0.6378700000000003  1.0000
  C   C96       1.0  0.97184  0.67673  0.3543  1.0000
  C   C97       1.0  0.7389699999999999  0.36216000000000004  0.64632  1.0000
  C   C98       1.0  0.2603599999999999  0.3623  0.35354000000000013  1.0000
  C   C99       1.0  0.23896999999999996  0.86216  0.64632  1.0000
  C   C100      1.0  0.7603599999999999  0.8623  0.35354000000000013  1.0000
  C   C101      1.0  0.49784  0.16766  0.92106  1.0000
  C   C102      1.0  0.5020599999999998  0.16876  0.07887000000000002  1.0000
  C   C103      1.0  0.9978399999999997  0.66766  0.92106  1.0000
  C   C104      1.0  0.00206  0.66876  0.07887000000000002  1.0000
  C   C105      1.0  0.4931499999999999  0.06876  0.03858  1.0000
  C   C106      1.0  0.50845  0.0686  0.9620300000000002  1.0000
  C   C107      1.0  0.99315  0.56876  0.03858  1.0000
  C   C108      1.0  0.008450000000000001  0.56859  0.9620300000000002  1.0000
  C   C109      1.0  0.75981  0.42443999999999993  0.07192  1.0000
  C   C110      1.0  0.24033  0.4241  0.9280300000000001  1.0000
  C   C111      1.0  0.25980999999999993  0.92444  0.07192  1.0000
  C   C112      1.0  0.74033  0.9241  0.9280300000000001  1.0000
  Cr  Cr1       1.0  0.76926  0.16375  0.75073  1.0000
  Cr  Cr2       1.0  0.23074  0.16375  0.24927  1.0000
  Cr  Cr3       1.0  0.26926  0.66375  0.75073  1.0000
  Cr  Cr4       1.0  0.73074  0.66375  0.24927  1.0000
  Cr  Cr5       1.0  0.61264  0.00991  0.74878  1.0000
  Cr  Cr6       1.0  0.3873599999999999  0.00991  0.25122  1.0000
  Cr  Cr7       1.0  0.11264  0.50991  0.74878  1.0000
  Cr  Cr8       1.0  0.8873599999999999  0.50991  0.25122  1.0000
  Cr  Cr9       1.0  0.61419  0.3224  0.74771  1.0000
  Cr  Cr10      1.0  0.38581  0.3224  0.25229  1.0000
  Cr  Cr11      1.0  0.11419  0.8224  0.74771  1.0000
  Cr  Cr12      1.0  0.88581  0.8224  0.25229  1.0000
  H   H1        1.0  0.4735099999999999  0.98482  0.06169  1.0000
  H   H2        1.0  0.52952  0.9853399999999999  0.9395100000000001  1.0000
  H   H3        1.0  0.97351  0.48482  0.06169  1.0000
  H   H4        1.0  0.029519999999999998  0.48534  0.9395100000000001  1.0000
  H   H5        1.0  0.9195399999999999  0.8601999999999999  0.45508000000000004  1.0000
  H   H6        1.0  0.02177  0.97367  0.55753  1.0000
  H   H7        1.0  0.41953999999999997  0.3602  0.45508000000000004  1.0000
  H   H8        1.0  0.52177  0.47367  0.55753  1.0000
  H   H9        1.0  0.49145999999999995  0.47129  0.4346400000000001  1.0000
  H   H10       1.0  0.45039  0.36162  0.5762400000000001  1.0000
  H   H11       1.0  0.99147  0.97129  0.4346400000000001  1.0000
  H   H12       1.0  0.95039  0.86162  0.5762400000000001  1.0000
  H   H13       1.0  0.63938  0.45218  0.5572600000000001  1.0000
  H   H14       1.0  0.34073000000000003  0.52215  0.43206000000000006  1.0000
  H   H15       1.0  0.13937999999999998  0.95218  0.5572600000000001  1.0000
  H   H16       1.0  0.84073  0.022149999999999993  0.43206000000000006  1.0000
  H   H17       1.0  0.64959  0.46301  0.42726  1.0000
  H   H18       1.0  0.33624  0.53686  0.56263  1.0000
  H   H19       1.0  0.14959  0.96301  0.42726  1.0000
  H   H20       1.0  0.83624  0.036860000000000004  0.56263  1.0000
  H   H21       1.0  0.9302  0.38616  0.4525900000000001  1.0000
  H   H22       1.0  0.10338  0.26006  0.5686600000000003  1.0000
  H   H23       1.0  0.4302  0.88616  0.4525900000000001  1.0000
  H   H24       1.0  0.60338  0.7600599999999998  0.5686600000000003  1.0000
  H   H25       1.0  0.87046  0.25292  0.44137  1.0000
  H   H26       1.0  0.19244999999999998  0.18857999999999997  0.5708200000000002  1.0000
  H   H27       1.0  0.37046  0.7529199999999999  0.44137  1.0000
  H   H28       1.0  0.69245  0.68858  0.5708200000000002  1.0000
  H   H29       1.0  0.8601699999999999  0.23391  0.5672900000000001  1.0000
  H   H30       1.0  0.19337  0.17523  0.44295000000000007  1.0000
  H   H31       1.0  0.36017  0.73391  0.5672900000000001  1.0000
  H   H32       1.0  0.6933699999999999  0.67523  0.44295000000000007  1.0000
  H   H33       1.0  0.52442  0.25103  0.056100000000000004  1.0000
  H   H34       1.0  0.47389  0.24857  0.94336  1.0000
  H   H35       1.0  0.02442  0.7510299999999999  0.056100000000000004  1.0000
  H   H36       1.0  0.9738899999999999  0.74857  0.94336  1.0000
  H   H37       1.0  0.85859  0.3625099999999999  0.92721  1.0000
  H   H38       1.0  0.14134  0.3633199999999999  0.07282  1.0000
  H   H39       1.0  0.35858999999999996  0.86251  0.92721  1.0000
  H   H40       1.0  0.64134  0.86332  0.07282  1.0000
  H   H41       1.0  0.8674899999999999  0.36608  0.05381  1.0000
  H   H42       1.0  0.13287  0.3653799999999999  0.9461900000000001  1.0000
  H   H43       1.0  0.36749  0.8660799999999998  0.05381  1.0000
  H   H44       1.0  0.63287  0.8653799999999999  0.9461900000000001  1.0000
  H   H45       1.0  0.18902  0.14658  0.05553  1.0000
  H   H46       1.0  0.81177  0.14578  0.94377  1.0000
  H   H47       1.0  0.68902  0.64658  0.05553  1.0000
  H   H48       1.0  0.31177  0.64578  0.94377  1.0000
  H   H49       1.0  0.5932  0.53853  0.9409400000000002  1.0000
  H   H50       1.0  0.40644  0.53594  0.05957000000000001  1.0000
  H   H51       1.0  0.0932  0.03853  0.9409400000000002  1.0000
  H   H52       1.0  0.90644  0.03593999999999999  0.05957000000000001  1.0000
  H   H53       1.0  0.6745199999999998  0.6307  0.92945  1.0000
  H   H54       1.0  0.32549  0.63011  0.06997000000000003  1.0000
  H   H55       1.0  0.17452  0.1307  0.92945  1.0000
  H   H56       1.0  0.8254899999999998  0.13012  0.06997000000000003  1.0000
  H   H57       1.0  0.5673099999999999  0.9814599999999998  0.54968  1.0000
  H   H58       1.0  0.53338  0.97954  0.42286  1.0000
  H   H59       1.0  0.06731  0.48145999999999994  0.54968  1.0000
  H   H60       1.0  0.03338  0.47954  0.42286  1.0000
  O   O1        1.0  0.7842899999999999  0.29036  0.8305400000000001  1.0000
  O   O2        1.0  0.21570999999999999  0.29036  0.16946000000000006  1.0000
  O   O3        1.0  0.28429  0.79036  0.8305400000000001  1.0000
  O   O4        1.0  0.71571  0.79036  0.16946000000000006  1.0000
  O   O5        1.0  0.55469  0.08044  0.6734800000000002  1.0000
  O   O6        1.0  0.44531  0.08044  0.32652000000000003  1.0000
  O   O7        1.0  0.054689999999999996  0.58044  0.6734800000000002  1.0000
  O   O8        1.0  0.94531  0.58044  0.32652000000000003  1.0000
  O   O9        1.0  0.54398  0.28210999999999997  0.6667700000000002  1.0000
  O   O10       1.0  0.45602  0.28210999999999997  0.33323  1.0000
  O   O11       1.0  0.04398  0.7821099999999999  0.6667700000000002  1.0000
  O   O12       1.0  0.95602  0.7821099999999999  0.33323  1.0000
  O   O13       1.0  0.67907  0.37403  0.6744300000000001  1.0000
  O   O14       1.0  0.32093  0.37403  0.3255700000000001  1.0000
  O   O15       1.0  0.17907  0.87403  0.6744300000000001  1.0000
  O   O16       1.0  0.82093  0.87403  0.3255700000000001  1.0000
  O   O17       1.0  0.6653599999999998  0.16535  0.7490700000000001  1.0000
  O   O18       1.0  0.33464  0.16535  0.25093  1.0000
  O   O19       1.0  0.16536  0.66535  0.7490700000000001  1.0000
  O   O20       1.0  0.83464  0.66535  0.25093  1.0000
  O   O21       1.0  0.7626099999999999  0.04107  0.8252300000000002  1.0000
  O   O22       1.0  0.23738999999999996  0.04107  0.17477000000000004  1.0000
  O   O23       1.0  0.26261  0.54107  0.8252300000000002  1.0000
  O   O24       1.0  0.73739  0.54107  0.17477000000000004  1.0000
  O   O25       1.0  0.66739  0.92416  0.82997  1.0000
  O   O26       1.0  0.33261  0.92416  0.17003000000000004  1.0000
  O   O27       1.0  0.16739  0.42416  0.82997  1.0000
  O   O28       1.0  0.8326099999999997  0.42416  0.17003000000000004  1.0000
  O   O29       1.0  0.55398  0.08142  0.8217800000000002  1.0000
  O   O30       1.0  0.44602  0.08142  0.17822  1.0000
  O   O31       1.0  0.05397999999999999  0.58142  0.8217800000000002  1.0000
  O   O32       1.0  0.9460199999999999  0.58142  0.17822  1.0000
  O   O33       1.0  0.54321  0.28317  0.82674  1.0000
  O   O34       1.0  0.45679  0.28317  0.17326  1.0000
  O   O35       1.0  0.04321  0.7831699999999999  0.82674  1.0000
  O   O36       1.0  0.9567899999999999  0.7831699999999999  0.17326  1.0000
  O   O37       1.0  0.6783499999999999  0.37500000000000006  0.8227200000000001  1.0000
  O   O38       1.0  0.32165  0.37500000000000006  0.17728000000000005  1.0000
  O   O39       1.0  0.17835  0.875  0.8227200000000001  1.0000
  O   O40       1.0  0.82165  0.875  0.17728000000000005  1.0000
  O   O41       1.0  0.78506  0.2893  0.67058  1.0000
  O   O42       1.0  0.21493999999999996  0.2893  0.32942000000000005  1.0000
  O   O43       1.0  0.28506  0.7893  0.67058  1.0000
  O   O44       1.0  0.71494  0.7893  0.32942000000000005  1.0000
  O   O45       1.0  0.76333  0.04009  0.67694  1.0000
  O   O46       1.0  0.23667  0.04009  0.32306  1.0000
  O   O47       1.0  0.26333  0.54009  0.67694  1.0000
  O   O48       1.0  0.73667  0.54009  0.32306  1.0000
  O   O49       1.0  0.66816  0.92311  0.6700000000000002  1.0000
  O   O50       1.0  0.33184  0.92311  0.33000000000000007  1.0000
  O   O51       1.0  0.16816  0.42310999999999993  0.6700000000000002  1.0000
  O   O52       1.0  0.83184  0.42310999999999993  0.33000000000000007  1.0000
  C   C113      1.0  0.9340999999999999  0.38091  0.5924  1.0000
  H   H61       1.0  0.9428199999999999  0.47859999999999997  0.59177  1.0000
  O   O53       1.0  0.9719399999999999  0.31535  0.62853  1.0000
  C   C114      1.0  0.08552  0.24091  0.42837000000000003  1.0000
  H   H62       1.0  0.07951999999999998  0.27214  0.37387  1.0000
  O   O54       1.0  0.03468  0.20066  0.45962000000000003  1.0000
  C   C115      1.0  0.4340899999999999  0.88091  0.5924  1.0000
  H   H63       1.0  0.44282  0.9786  0.59177  1.0000
  O   O55       1.0  0.47193999999999997  0.81535  0.62853  1.0000
  C   C116      1.0  0.5855199999999999  0.74091  0.42837000000000003  1.0000
  H   H64       1.0  0.57952  0.77214  0.37387  1.0000
  O   O56       1.0  0.53468  0.70066  0.45962000000000003  1.0000
  C   C117      1.0  0.58761  0.56311  0.07918  1.0000
  O   O57       1.0  0.57261  0.47381  0.11509000000000001  1.0000
  O   O58       1.0  0.54247  0.66352  0.07618  1.0000
  H   H65       1.0  0.5000399999999999  0.65329  0.10773  1.0000
  C   C118      1.0  0.4124  0.5579  0.9199  1.0000
  O   O59       1.0  0.45415  0.47594999999999993  0.9328100000000001  1.0000
  O   O60       1.0  0.42728  0.6445799999999999  0.8675600000000001  1.0000
  H   H66       1.0  0.47421  0.62983  0.8441100000000002  1.0000
  C   C119      1.0  0.08761  0.06310999999999999  0.07918  1.0000
  O   O61       1.0  0.07261  0.9738099999999998  0.11509000000000001  1.0000
  O   O62       1.0  0.04247  0.16352  0.07618  1.0000
  H   H67       1.0  5.0000000000000016e-05  0.15329  0.10773  1.0000
  C   C120      1.0  0.9123999999999999  0.05789999999999999  0.9199  1.0000
  O   O63       1.0  0.9541499999999999  0.97595  0.9328100000000001  1.0000
  O   O64       1.0  0.92727  0.14458  0.8675600000000001  1.0000
  H   H68       1.0  0.97421  0.12983  0.8441100000000002  1.0000
