data_image0
_chemical_formula_structural       Br8C104Cr12H44O52
_chemical_formula_sum              "Br8 C104 Cr12 H44 O52"
_cell_length_a       19.00045
_cell_length_b       10.876229999999998
_cell_length_c       18.84308
_cell_angle_alpha    90.14716
_cell_angle_beta     89.898
_cell_angle_gamma    90.22043

_space_group_name_H-M_alt    "P 1"
_space_group_IT_number       1

loop_
  _space_group_symop_operation_xyz
  'x, y, z'

loop_
  _atom_site_type_symbol
  _atom_site_label
  _atom_site_symmetry_multiplicity
  _atom_site_fract_x
  _atom_site_fract_y
  _atom_site_fract_z
  _atom_site_occupancy
  Br  Br1       1.0  0.45455  0.90817  0.0873  1.0000
  Br  Br2       1.0  0.51193  0.8858200000000002  0.92468  1.0000
  Br  Br3       1.0  0.95455  0.40817  0.0873  1.0000
  Br  Br4       1.0  0.01193  0.38581999999999994  0.92468  1.0000
  Br  Br5       1.0  0.42910999999999994  0.92962  0.3932300000000001  1.0000
  Br  Br6       1.0  0.45913  0.88359  0.56087  1.0000
  Br  Br7       1.0  0.9291100000000001  0.42962  0.3932300000000001  1.0000
  Br  Br8       1.0  0.9591299999999999  0.38359  0.56087  1.0000
  C   C1        1.0  0.7298  0.37556  0.14546  1.0000
  C   C2        1.0  0.02029  0.0007  0.0284  1.0000
  C   C3        1.0  0.00702  0.7769  0.03504  1.0000
  C   C4        1.0  0.48782  0.05435000000000001  0.03846  1.0000
  C   C5        1.0  0.4974  0.048190000000000004  0.96551  1.0000
  C   C6        1.0  0.98782  0.55435  0.03846  1.0000
  C   C7        1.0  0.9974000000000001  0.54819  0.96551  1.0000
  C   C8        1.0  0.53258  0.49272  0.95587  1.0000
  C   C9        1.0  0.52028  0.5007  0.0284  1.0000
  C   C10       1.0  0.69877  0.8632  0.03907  1.0000
  C   C11       1.0  0.29332  0.84944  0.9588400000000001  1.0000
  C   C12       1.0  0.19877  0.3632  0.03907  1.0000
  C   C13       1.0  0.79332  0.34944  0.9588400000000001  1.0000
  C   C14       1.0  0.70916  0.83583  0.9677100000000001  1.0000
  C   C15       1.0  0.2902  0.83272  0.03187  1.0000
  C   C16       1.0  0.20916  0.33583  0.9677100000000001  1.0000
  C   C17       1.0  0.288  0.33044  0.86154  1.0000
  C   C18       1.0  0.7902  0.33272  0.03187  1.0000
  C   C19       1.0  0.77599  0.85114  0.93708  1.0000
  C   C20       1.0  0.24807999999999997  0.91056  0.07384  1.0000
  C   C21       1.0  0.27599  0.35114  0.93708  1.0000
  C   C22       1.0  0.74808  0.41057000000000005  0.07384  1.0000
  C   C23       1.0  0.83283  0.88714  0.9793  1.0000
  C   C24       1.0  0.21031  0.00567  0.04269  1.0000
  C   C25       1.0  0.33283  0.38714  0.9793  1.0000
  C   C26       1.0  0.71031  0.50567  0.04269  1.0000
  C   C27       1.0  0.8226  0.91463  0.05029000000000001  1.0000
  C   C28       1.0  0.2298  0.87556  0.14546  1.0000
  C   C29       1.0  0.21072  0.01814  0.9702900000000001  1.0000
  C   C30       1.0  0.3226  0.41463000000000005  0.05029000000000001  1.0000
  C   C31       1.0  0.71072  0.51814  0.9702900000000001  1.0000
  C   C32       1.0  0.75511  0.9072300000000001  0.08002  1.0000
  C   C33       1.0  0.25204  0.94056  0.9277600000000001  1.0000
  C   C34       1.0  0.25511  0.40723  0.08002  1.0000
  C   C35       1.0  0.75204  0.44056000000000006  0.9277600000000001  1.0000
  C   C36       1.0  0.46696999999999994  0.06171  0.45136000000000004  1.0000
  C   C37       1.0  0.46788  0.05034  0.5247900000000001  1.0000
  C   C38       1.0  0.96697  0.56171  0.45136000000000004  1.0000
  C   C39       1.0  0.788  0.8304400000000001  0.86154  1.0000
  C   C40       1.0  0.96788  0.55034  0.5247900000000001  1.0000
  C   C41       1.0  0.48037  0.15692  0.5676100000000001  1.0000
  C   C42       1.0  0.49483  0.16836  0.42047  1.0000
  C   C43       1.0  0.9803700000000001  0.65692  0.5676100000000001  1.0000
  C   C44       1.0  0.99483  0.66835  0.42047  1.0000
  C   C45       1.0  0.53045  0.15577  0.14682  1.0000
  C   C46       1.0  0.46985  0.15446  0.8529900000000001  1.0000
  C   C47       1.0  0.030449999999999998  0.65577  0.14682  1.0000
  C   C48       1.0  0.96985  0.65446  0.8529900000000001  1.0000
  C   C49       1.0  0.49723999999999996  0.26874  0.53513  1.0000
  C   C50       1.0  0.52868  0.3792  0.92176  1.0000
  C   C51       1.0  0.50694  0.27346  0.46217  1.0000
  C   C52       1.0  0.99724  0.7687400000000001  0.53513  1.0000
  C   C53       1.0  0.00694  0.7734599999999999  0.46217  1.0000
  C   C54       1.0  0.81575  0.9347  0.45719  1.0000
  C   C55       1.0  0.22305  0.03542  0.52598  1.0000
  C   C56       1.0  0.31575  0.43469  0.45719  1.0000
  C   C57       1.0  0.72305  0.53542  0.52598  1.0000
  C   C58       1.0  0.82121  0.92549  0.52966  1.0000
  C   C59       1.0  0.22024  0.01742  0.45371  1.0000
  C   C60       1.0  0.32121  0.42549  0.52966  1.0000
  C   C61       1.0  0.50746  0.39446  0.06769  1.0000
  C   C62       1.0  0.72024  0.51742  0.45371  1.0000
  C   C63       1.0  0.76142  0.8999  0.57123  1.0000
  C   C64       1.0  0.2465  0.90883  0.42508000000000007  1.0000
  C   C65       1.0  0.26142  0.3998900000000001  0.57123  1.0000
  C   C66       1.0  0.7465  0.40883  0.42508000000000007  1.0000
  C   C67       1.0  0.69622  0.87976  0.53901  1.0000
  C   C68       1.0  0.27753  0.81955  0.46902  1.0000
  C   C69       1.0  0.19622  0.37976000000000004  0.53901  1.0000
  C   C70       1.0  0.77753  0.31955  0.46902  1.0000
  C   C71       1.0  0.69044  0.89122  0.46588000000000007  1.0000
  C   C72       1.0  0.028679999999999997  0.8792  0.92176  1.0000
  C   C73       1.0  0.28083  0.83825  0.54172  1.0000
  C   C74       1.0  0.19044  0.39122  0.46588000000000007  1.0000
  C   C75       1.0  0.78083  0.33825  0.54172  1.0000
  C   C76       1.0  0.75004  0.9224400000000001  0.42513000000000006  1.0000
  C   C77       1.0  0.25246  0.94536  0.57025  1.0000
  C   C78       1.0  0.25004  0.4224399999999999  0.42513000000000006  1.0000
  C   C79       1.0  0.75247  0.44536  0.57025  1.0000
  C   C80       1.0  0.74187  0.96713  0.14801  1.0000
  C   C81       1.0  0.25915  0.97233  0.8536100000000001  1.0000
  C   C82       1.0  0.24188000000000004  0.46713  0.14801  1.0000
  C   C83       1.0  0.007459999999999999  0.8944599999999999  0.06769  1.0000
  C   C84       1.0  0.75915  0.4723300000000001  0.8536100000000001  1.0000
  C   C85       1.0  0.72925  0.37677  0.35295000000000004  1.0000
  C   C86       1.0  0.27224  0.37466  0.64576  1.0000
  C   C87       1.0  0.22925000000000004  0.87677  0.35295000000000004  1.0000
  C   C88       1.0  0.77224  0.8746600000000001  0.64576  1.0000
  C   C89       1.0  0.5296  0.1578  0.35186  1.0000
  C   C90       1.0  0.46334999999999993  0.15521  0.64338  1.0000
  C   C91       1.0  0.029599999999999998  0.6578  0.35186  1.0000
  C   C92       1.0  0.9633499999999999  0.65521  0.64338  1.0000
  C   C93       1.0  0.74123  0.97031  0.35419  1.0000
  C   C94       1.0  0.03259  0.99272  0.95587  1.0000
  C   C95       1.0  0.2592  0.9744  0.64451  1.0000
  C   C96       1.0  0.24123  0.47031  0.35419  1.0000
  C   C97       1.0  0.7592  0.4744  0.64451  1.0000
  C   C98       1.0  0.50081  0.15784  0.925  1.0000
  C   C99       1.0  0.50029  0.16562  0.07465  1.0000
  C   C100      1.0  0.00081  0.65784  0.925  1.0000
  C   C101      1.0  0.0002899999999999999  0.66563  0.07465  1.0000
  C   C102      1.0  0.51198  0.2712  0.95999  1.0000
  C   C103      1.0  0.50702  0.2769  0.03504  1.0000
  C   C104      1.0  0.011979999999999998  0.7712000000000001  0.95999  1.0000
  Cr  Cr1       1.0  0.772  0.16964  0.25011  1.0000
  Cr  Cr2       1.0  0.38333  0.010619999999999997  0.74916  1.0000
  Cr  Cr3       1.0  0.11667  0.51062  0.25084  1.0000
  Cr  Cr4       1.0  0.8833299999999998  0.51062  0.74916  1.0000
  Cr  Cr5       1.0  0.22800000000000004  0.16964  0.74989  1.0000
  Cr  Cr6       1.0  0.272  0.66964  0.25011  1.0000
  Cr  Cr7       1.0  0.728  0.66964  0.74989  1.0000
  Cr  Cr8       1.0  0.61496  0.32335  0.24926000000000004  1.0000
  Cr  Cr9       1.0  0.38504  0.32335  0.75074  1.0000
  Cr  Cr10      1.0  0.11496  0.82335  0.24926000000000004  1.0000
  Cr  Cr11      1.0  0.88504  0.82335  0.75074  1.0000
  Cr  Cr12      1.0  0.61667  0.01062  0.25084  1.0000
  H   H1        1.0  0.8623500000000001  0.9579800000000002  0.42672  1.0000
  H   H2        1.0  0.30438  0.7692799999999999  0.57548  1.0000
  H   H3        1.0  0.13887  0.38219  0.44195000000000007  1.0000
  H   H4        1.0  0.80438  0.26928  0.57548  1.0000
  H   H5        1.0  0.53982  0.37649  0.86546  1.0000
  H   H6        1.0  0.49444  0.40697  0.12303  1.0000
  H   H7        1.0  0.03982  0.8764900000000001  0.86546  1.0000
  H   H8        1.0  0.9944400000000001  0.90697  0.12303  1.0000
  H   H9        1.0  0.04422  0.07495  0.92575  1.0000
  H   H10       1.0  0.02082  0.08958  0.05441  1.0000
  H   H11       1.0  0.54422  0.57495  0.92575  1.0000
  H   H12       1.0  0.20259  0.12061000000000001  0.5472900000000002  1.0000
  H   H13       1.0  0.52082  0.58958  0.05441  1.0000
  H   H14       1.0  0.8846100000000001  0.8985600000000001  0.9565500000000001  1.0000
  H   H15       1.0  0.17714  0.06615  0.07388  1.0000
  H   H16       1.0  0.38461  0.39856  0.9565500000000001  1.0000
  H   H17       1.0  0.67714  0.56615  0.07388  1.0000
  H   H18       1.0  0.8666100000000001  0.94892  0.0809  1.0000
  H   H19       1.0  0.17917  0.09059  0.94779  1.0000
  H   H20       1.0  0.36661  0.44891999999999993  0.0809  1.0000
  H   H21       1.0  0.67917  0.59059  0.94779  1.0000
  H   H22       1.0  0.5057  0.35115  0.56644  1.0000
  H   H23       1.0  0.36235  0.45797000000000004  0.42672  1.0000
  H   H24       1.0  0.52728  0.35745  0.43898000000000004  1.0000
  H   H25       1.0  0.005700000000000002  0.85115  0.56644  1.0000
  H   H26       1.0  0.02728  0.85745  0.43898000000000004  1.0000
  H   H27       1.0  0.87294  0.93683  0.55286  1.0000
  H   H28       1.0  0.19563  0.08618  0.42052  1.0000
  H   H29       1.0  0.37295  0.43682  0.55286  1.0000
  H   H30       1.0  0.69563  0.58617  0.42052  1.0000
  H   H31       1.0  0.646  0.85754  0.06074000000000001  1.0000
  H   H32       1.0  0.3267  0.79075  0.9268200000000001  1.0000
  H   H33       1.0  0.146  0.35754  0.06074000000000001  1.0000
  H   H34       1.0  0.70259  0.6206  0.5472900000000002  1.0000
  H   H35       1.0  0.8267  0.29074  0.9268200000000001  1.0000
  H   H36       1.0  0.66449  0.8074  0.9361100000000001  1.0000
  H   H37       1.0  0.31844  0.75635  0.054970000000000005  1.0000
  H   H38       1.0  0.16449  0.3074  0.9361100000000001  1.0000
  H   H39       1.0  0.81844  0.25635  0.054970000000000005  1.0000
  H   H40       1.0  0.65017  0.85625  0.57021  1.0000
  H   H41       1.0  0.29666  0.73338  0.44758000000000003  1.0000
  H   H42       1.0  0.15017  0.35626  0.57021  1.0000
  H   H43       1.0  0.79666  0.23339  0.44758000000000003  1.0000
  H   H44       1.0  0.63887  0.8821800000000001  0.44195000000000007  1.0000
  O   O1        1.0  0.78754  0.04269  0.17047000000000004  1.0000
  O   O2        1.0  0.45413  0.05109999999999999  0.6691600000000001  1.0000
  O   O3        1.0  0.04587  0.5511  0.33084  1.0000
  O   O4        1.0  0.9541299999999999  0.5511  0.6691600000000001  1.0000
  O   O5        1.0  0.68134  0.9593  0.32551  1.0000
  O   O6        1.0  0.31866  0.9593  0.67449  1.0000
  O   O7        1.0  0.18134  0.4593  0.32551  1.0000
  O   O8        1.0  0.81866  0.4593  0.67449  1.0000
  O   O9        1.0  0.66788  0.16787  0.25007  1.0000
  O   O10       1.0  0.33212  0.16787  0.74993  1.0000
  O   O11       1.0  0.16788  0.66787  0.25007  1.0000
  O   O12       1.0  0.21246  0.04269  0.82953  1.0000
  O   O13       1.0  0.83212  0.66787  0.74993  1.0000
  O   O14       1.0  0.76566  0.29216  0.17505000000000004  1.0000
  O   O15       1.0  0.23434  0.29216  0.82495  1.0000
  O   O16       1.0  0.26566  0.79216  0.17505000000000004  1.0000
  O   O17       1.0  0.73434  0.79216  0.82495  1.0000
  O   O18       1.0  0.67019  0.40898  0.16855  1.0000
  O   O19       1.0  0.32981  0.40898  0.83145  1.0000
  O   O20       1.0  0.17019  0.9089800000000001  0.16855  1.0000
  O   O21       1.0  0.82981  0.9089800000000001  0.83145  1.0000
  O   O22       1.0  0.55658  0.25145  0.17516  1.0000
  O   O23       1.0  0.28754  0.54269  0.17047000000000004  1.0000
  O   O24       1.0  0.44342  0.25145  0.82484  1.0000
  O   O25       1.0  0.05658  0.75145  0.17516  1.0000
  O   O26       1.0  0.94342  0.75145  0.82484  1.0000
  O   O27       1.0  0.54592  0.04951  0.17032  1.0000
  O   O28       1.0  0.45408  0.04951  0.82968  1.0000
  O   O29       1.0  0.04592  0.54951  0.17032  1.0000
  O   O30       1.0  0.9540799999999999  0.54951  0.82968  1.0000
  O   O31       1.0  0.68139  0.95784  0.17671  1.0000
  O   O32       1.0  0.31861  0.95784  0.82329  1.0000
  O   O33       1.0  0.18139  0.45784  0.17671  1.0000
  O   O34       1.0  0.71246  0.54269  0.82953  1.0000
  O   O35       1.0  0.81861  0.45784  0.82329  1.0000
  O   O36       1.0  0.7875  0.04428  0.33099  1.0000
  O   O37       1.0  0.2125  0.04428  0.66901  1.0000
  O   O38       1.0  0.2875  0.54428  0.33099  1.0000
  O   O39       1.0  0.7125  0.54428  0.66901  1.0000
  O   O40       1.0  0.76561  0.29363  0.32386  1.0000
  O   O41       1.0  0.23439  0.29363  0.67614  1.0000
  O   O42       1.0  0.26561  0.79363  0.32386  1.0000
  O   O43       1.0  0.73439  0.79363  0.67614  1.0000
  O   O44       1.0  0.67014  0.41057000000000005  0.32908  1.0000
  O   O45       1.0  0.55654  0.25292  0.32397  1.0000
  O   O46       1.0  0.32986  0.41057000000000005  0.67092  1.0000
  O   O47       1.0  0.17014  0.91057  0.32908  1.0000
  O   O48       1.0  0.82986  0.91057  0.67092  1.0000
  O   O49       1.0  0.4434600000000001  0.25292  0.67603  1.0000
  O   O50       1.0  0.05653999999999999  0.75292  0.32397  1.0000
  O   O51       1.0  0.94346  0.75292  0.67603  1.0000
  O   O52       1.0  0.54587  0.05109999999999999  0.33084  1.0000
