data_image0
_chemical_formula_structural       C120Cr12H76N4O64
_chemical_formula_sum              "C120 Cr12 H76 N4 O64"
_cell_length_a       18.91134
_cell_length_b       11.115990000000002
_cell_length_c       18.6953
_cell_angle_alpha    89.86231000000001
_cell_angle_beta     91.09775999999998
_cell_angle_gamma    90.0039

_symmetry_space_group_name_H-M    'P 1'
_symmetry_Int_Tables_number       1

loop_
  _symmetry_equiv_pos_as_xyz
  'x,y,z'

loop_
  _atom_site_type_symbol
  _atom_site_label
  _atom_site_symmetry_multiplicity
  _atom_site_fract_x
  _atom_site_fract_y
  _atom_site_fract_z
  _atom_site_occupancy
  C   C1        1.0  0.27477  0.03641  0.8563500000000001  1.0000
  C   C2        1.0  0.7604600000000001  0.57122  0.9300300000000001  1.0000
  C   C3        1.0  0.22947000000000004  0.54732  0.35267  1.0000
  C   C4        1.0  0.46794  0.82289  0.6458800000000002  1.0000
  C   C5        1.0  0.52942  0.8239200000000002  0.3522  1.0000
  C   C6        1.0  0.9679300000000001  0.32289  0.6458800000000002  1.0000
  C   C7        1.0  0.02942  0.32392  0.3522  1.0000
  C   C8        1.0  0.2737  0.68722  0.6365800000000001  1.0000
  C   C9        1.0  0.72518  0.6916900000000001  0.36297  1.0000
  C   C10       1.0  0.7737  0.18721999999999997  0.6365800000000001  1.0000
  C   C11       1.0  0.22518000000000002  0.19169  0.36297  1.0000
  C   C12       1.0  0.5077200000000001  0.9376600000000002  0.02142  1.0000
  C   C13       1.0  0.74008  0.07161  0.0708  1.0000
  C   C14       1.0  0.55623  0.90229  0.9574900000000001  1.0000
  C   C15       1.0  0.00856  0.43861  0.02068  1.0000
  C   C16       1.0  0.05616000000000001  0.39675000000000005  0.9574  1.0000
  C   C17       1.0  0.44944  0.8544  0.9900300000000001  1.0000
  C   C18       1.0  0.58374  0.7942  0.0008900000000000001  1.0000
  C   C19       1.0  0.94811  0.35924999999999996  0.9901200000000002  1.0000
  C   C20       1.0  0.08024  0.28790000000000004  0.0020400000000000006  1.0000
  C   C21       1.0  0.497  0.82249  0.9276200000000001  1.0000
  C   C22       1.0  0.53651  0.8268900000000002  0.06364  1.0000
  C   C23       1.0  0.9948600000000002  0.32112  0.9283100000000002  1.0000
  C   C24       1.0  0.26218  0.06538  0.93168  1.0000
  C   C25       1.0  0.03412  0.3272  0.06424  1.0000
  C   C26       1.0  0.2929  0.5208400000000001  0.03308  1.0000
  C   C27       1.0  0.7007  0.53181  0.96598  1.0000
  C   C28       1.0  0.80039  0.03437  0.03478  1.0000
  C   C29       1.0  0.20222  0.02624  0.9675600000000001  1.0000
  C   C30       1.0  0.29968  0.5386800000000002  0.9600500000000002  1.0000
  C   C31       1.0  0.69665  0.53924  0.04027000000000001  1.0000
  C   C32       1.0  0.8031  0.04248999999999999  0.96053  1.0000
  C   C33       1.0  0.72627  0.03887000000000001  0.14485  1.0000
  C   C34       1.0  0.19831000000000001  0.0324  0.04191  1.0000
  C   C35       1.0  0.17730000000000004  0.6057300000000001  0.9513200000000002  1.0000
  C   C36       1.0  0.81801  0.60606  0.046060000000000004  1.0000
  C   C37       1.0  0.68207  0.11535  0.95576  1.0000
  C   C38       1.0  0.31971  0.09798000000000003  0.048180000000000014  1.0000
  C   C39       1.0  0.17261000000000004  0.59212  0.02503  1.0000
  C   C40       1.0  0.81803  0.61411  0.97173  1.0000
  C   C41       1.0  0.6821700000000002  0.11522  0.03009  1.0000
  C   C42       1.0  0.32026  0.10544000000000002  0.97369  1.0000
  C   C43       1.0  0.33208000000000004  0.40488000000000013  0.03125  1.0000
  C   C44       1.0  0.7740600000000002  0.53837  0.8555900000000002  1.0000
  C   C45       1.0  0.668  0.41082  0.9649400000000002  1.0000
  C   C46       1.0  0.83473  0.9135400000000002  0.03533  1.0000
  C   C47       1.0  0.16787  0.90653  0.9656200000000001  1.0000
  C   C48       1.0  0.33797  0.4224400000000001  0.95117  1.0000
  C   C49       1.0  0.6618  0.4198  0.0456  1.0000
  C   C50       1.0  0.83587  0.9210400000000002  0.95446  1.0000
  C   C51       1.0  0.16332  0.91281  0.0465  1.0000
  C   C52       1.0  0.24285000000000004  0.57991  0.91821  1.0000
  C   C53       1.0  0.75463  0.57781  0.08126  1.0000
  C   C54       1.0  0.74507  0.08339  0.9202100000000001  1.0000
  C   C55       1.0  0.214  0.50891  0.13865  1.0000
  C   C56       1.0  0.25588  0.07199  0.08312  1.0000
  C   C57       1.0  0.49582  0.8372100000000002  0.4208900000000001  1.0000
  C   C58       1.0  0.4848100000000001  0.82838  0.5705200000000001  1.0000
  C   C59       1.0  0.9958200000000001  0.33721  0.4208800000000001  1.0000
  C   C60       1.0  0.9848100000000003  0.32838  0.5705200000000001  1.0000
  C   C61       1.0  0.46981000000000006  0.8202700000000002  0.85495  1.0000
  C   C62       1.0  0.55982  0.8177600000000002  0.13809  1.0000
  C   C63       1.0  0.9689  0.31995  0.85539  1.0000
  C   C64       1.0  0.05870000000000001  0.31794  0.13803  1.0000
  C   C65       1.0  0.46231  0.74022  0.45354  1.0000
  C   C66       1.0  0.52544  0.7145900000000001  0.9697600000000001  1.0000
  C   C67       1.0  0.45974  0.73505  0.5267900000000002  1.0000
  C   C68       1.0  0.9623100000000001  0.24022  0.45354  1.0000
  C   C69       1.0  0.9597400000000001  0.23505  0.5267900000000002  1.0000
  C   C70       1.0  0.50607  0.9353600000000001  0.53751  1.0000
  C   C71       1.0  0.51154  0.93992  0.46291000000000004  1.0000
  C   C72       1.0  0.00607  0.43536  0.5375  1.0000
  C   C73       1.0  0.011540000000000002  0.43992000000000003  0.46291000000000004  1.0000
  C   C74       1.0  0.47042000000000006  0.60641  0.44755  1.0000
  C   C75       1.0  0.47389000000000003  0.60292  0.5286300000000003  1.0000
  C   C76       1.0  0.97042  0.10641  0.44755  1.0000
  C   C77       1.0  0.47800000000000004  0.74682  0.03164  1.0000
  C   C78       1.0  0.97389  0.10292  0.5286200000000002  1.0000
  C   C79       1.0  0.25468  0.59952  0.41830000000000006  1.0000
  C   C80       1.0  0.74804  0.61666  0.58425  1.0000
  C   C81       1.0  0.7546800000000002  0.09952000000000001  0.41830000000000006  1.0000
  C   C82       1.0  0.24804000000000004  0.11666  0.58425  1.0000
  C   C83       1.0  0.22775000000000004  0.70843  0.44344000000000006  1.0000
  C   C84       1.0  0.7982700000000001  0.68657  0.5487  1.0000
  C   C85       1.0  0.7277600000000001  0.20844000000000001  0.44343  1.0000
  C   C86       1.0  0.29827  0.18656000000000006  0.54869  1.0000
  C   C87       1.0  0.23479000000000003  0.7369200000000002  0.51502  1.0000
  C   C88       1.0  0.019760000000000007  0.21212  0.9719500000000001  1.0000
  C   C89       1.0  0.78902  0.71484  0.47789  1.0000
  C   C90       1.0  0.7348  0.23693  0.51502  1.0000
  C   C91       1.0  0.28902  0.21484000000000003  0.47789  1.0000
  C   C92       1.0  0.29819  0.55146  0.53675  1.0000
  C   C93       1.0  0.67151  0.63384  0.47986  1.0000
  C   C94       1.0  0.79819  0.05146  0.53675  1.0000
  C   C95       1.0  0.17151000000000002  0.13384  0.47986  1.0000
  C   C96       1.0  0.29383  0.52542  0.46476000000000006  1.0000
  C   C97       1.0  0.68108  0.60401  0.55252  1.0000
  C   C98       1.0  0.79384  0.025420000000000005  0.46476000000000006  1.0000
  C   C99       1.0  0.9734  0.25111  0.03334  1.0000
  C   C100      1.0  0.18108000000000002  0.10401000000000002  0.55252  1.0000
  C   C101      1.0  0.15396  0.75716  0.43889  1.0000
  C   C102      1.0  0.8761300000000001  0.6674  0.54018  1.0000
  C   C103      1.0  0.65397  0.25716  0.43888000000000005  1.0000
  C   C104      1.0  0.37612  0.16739000000000004  0.54018  1.0000
  C   C105      1.0  0.16098  0.78416  0.5176600000000001  1.0000
  C   C106      1.0  0.8656500000000001  0.6969400000000001  0.46201000000000003  1.0000
  C   C107      1.0  0.66098  0.28416  0.51765  1.0000
  C   C108      1.0  0.36565  0.19693000000000002  0.4620000000000001  1.0000
  C   C109      1.0  0.25875  0.6329400000000001  0.84941  1.0000
  C   C110      1.0  0.22896  0.54541  0.06605  1.0000
  C   C111      1.0  0.74089  0.63253  0.15041000000000002  1.0000
  C   C112      1.0  0.75908  0.1335  0.8499700000000002  1.0000
  C   C113      1.0  0.24116000000000004  0.13143  0.1509  1.0000
  C   C114      1.0  0.26795  0.65717  0.56238  1.0000
  C   C115      1.0  0.72842  0.67832  0.4403900000000001  1.0000
  C   C116      1.0  0.7679500000000001  0.15717  0.56238  1.0000
  C   C117      1.0  0.22842  0.17832  0.44038000000000005  1.0000
  C   C118      1.0  0.27082000000000006  0.04911  0.6472400000000003  1.0000
  C   C119      1.0  0.72946  0.04732  0.35267  1.0000
  C   C120      1.0  0.77082  0.54912  0.6472400000000003  1.0000
  Cr  Cr1       1.0  0.22964000000000004  0.83588  0.74737  1.0000
  Cr  Cr2       1.0  0.61423  0.6772200000000002  0.25066  1.0000
  Cr  Cr3       1.0  0.88577  0.17722000000000004  0.74934  1.0000
  Cr  Cr4       1.0  0.11423000000000001  0.17722  0.25066  1.0000
  Cr  Cr5       1.0  0.77036  0.83588  0.25263  1.0000
  Cr  Cr6       1.0  0.7296400000000001  0.33588  0.74737  1.0000
  Cr  Cr7       1.0  0.27036  0.33588  0.25263  1.0000
  Cr  Cr8       1.0  0.38739  0.9897200000000002  0.75085  1.0000
  Cr  Cr9       1.0  0.6126100000000002  0.9897200000000002  0.24915000000000004  1.0000
  Cr  Cr10      1.0  0.8873900000000001  0.48972000000000004  0.75085  1.0000
  Cr  Cr11      1.0  0.11261000000000002  0.48972000000000004  0.24915000000000004  1.0000
  Cr  Cr12      1.0  0.38577000000000006  0.6772200000000002  0.74934  1.0000
  H   H1        1.0  0.52051  0.0134  0.5691500000000002  1.0000
  H   H2        1.0  0.5272500000000001  0.58206  0.55023  1.0000
  H   H3        1.0  0.92227  0.06434  0.42434  1.0000
  H   H4        1.0  0.02725  0.08205999999999998  0.55022  1.0000
  H   H5        1.0  0.32225  0.48589000000000004  0.57257  1.0000
  H   H6        1.0  0.62264  0.61278  0.45329  1.0000
  H   H7        1.0  0.82225  0.9858900000000002  0.57257  1.0000
  H   H8        1.0  0.12264  0.11278000000000002  0.45329  1.0000
  H   H9        1.0  0.31549  0.44154  0.44673  1.0000
  H   H10       1.0  0.6396200000000001  0.55969  0.5814400000000001  1.0000
  H   H11       1.0  0.8154900000000003  0.94155  0.44673  1.0000
  H   H12       1.0  0.5343000000000001  0.01962  0.43933  1.0000
  H   H13       1.0  0.13962  0.05969  0.5814400000000001  1.0000
  H   H14       1.0  0.11267  0.68851  0.42761  1.0000
  H   H15       1.0  0.8918200000000001  0.57243  0.5492500000000001  1.0000
  H   H16       1.0  0.61267  0.18852000000000002  0.42761  1.0000
  H   H17       1.0  0.39182  0.07243  0.5492500000000001  1.0000
  H   H18       1.0  0.15034000000000006  0.83947  0.40509000000000006  1.0000
  H   H19       1.0  0.9083300000000001  0.7354  0.56973  1.0000
  H   H20       1.0  0.65035  0.33948  0.40508000000000005  1.0000
  H   H21       1.0  0.40833  0.23539000000000002  0.56972  1.0000
  H   H22       1.0  0.15928  0.88079  0.5292000000000001  1.0000
  H   H23       1.0  0.02051  0.5134  0.5691500000000002  1.0000
  H   H24       1.0  0.8928900000000001  0.7810600000000001  0.44605000000000006  1.0000
  H   H25       1.0  0.65929  0.3808  0.52919  1.0000
  H   H26       1.0  0.3928900000000001  0.28106  0.44604  1.0000
  H   H27       1.0  0.1257  0.7279400000000003  0.55099  1.0000
  H   H28       1.0  0.87536  0.61825  0.42686  1.0000
  H   H29       1.0  0.6257  0.22795  0.55098  1.0000
  H   H30       1.0  0.37536  0.11825000000000002  0.42686  1.0000
  H   H31       1.0  0.50291  0.03008  0.04266  1.0000
  H   H32       1.0  0.59099  0.93959  0.9168900000000001  1.0000
  H   H33       1.0  0.00421  0.53169  0.041040000000000014  1.0000
  H   H34       1.0  0.03429  0.51962  0.43933  1.0000
  H   H35       1.0  0.09278  0.43046  0.9173  1.0000
  H   H36       1.0  0.12245  0.61038  0.04971  1.0000
  H   H37       1.0  0.8675700000000001  0.63818  0.94727  1.0000
  H   H38       1.0  0.6335  0.14061  0.05566  1.0000
  H   H39       1.0  0.37  0.12849  0.9492900000000001  1.0000
  H   H40       1.0  0.80072  0.84185  0.05706000000000001  1.0000
  H   H41       1.0  0.2036  0.83622  0.94529  1.0000
  H   H42       1.0  0.29943  0.32791  0.04809  1.0000
  H   H43       1.0  0.7054500000000001  0.34201  0.9460800000000001  1.0000
  H   H44       1.0  0.39274  0.43536  0.93249  1.0000
  H   H45       1.0  0.01857  0.073  0.42215  1.0000
  H   H46       1.0  0.6068200000000001  0.4283  0.06505000000000001  1.0000
  H   H47       1.0  0.8895  0.9243900000000002  0.9315600000000002  1.0000
  H   H48       1.0  0.10871000000000001  0.9207300000000002  0.06703  1.0000
  H   H49       1.0  0.30658  0.35586  0.91959  1.0000
  H   H50       1.0  0.69508  0.35344  0.0754  1.0000
  H   H51       1.0  0.7997100000000003  0.85547  0.9277700000000001  1.0000
  H   H52       1.0  0.19688  0.84466  0.07454000000000001  1.0000
  H   H53       1.0  0.35600000000000004  0.8052800000000002  0.96063  1.0000
  H   H54       1.0  0.67661  0.8380700000000001  0.03312  1.0000
  H   H55       1.0  0.85357  0.31633000000000006  0.9610100000000001  1.0000
  H   H56       1.0  0.9320900000000001  0.04927000000000001  0.5533800000000002  1.0000
  H   H57       1.0  0.17352  0.31832  0.03847  1.0000
  H   H58       1.0  0.48591000000000006  0.56591  0.9381500000000002  1.0000
  H   H59       1.0  0.46676  0.59927  0.08249  1.0000
  H   H60       1.0  0.97593  0.06637  0.94115  1.0000
  H   H61       1.0  0.95813  0.11069  0.08972  1.0000
  H   H62       1.0  0.11527  0.7182000000000002  0.88686  1.0000
  H   H63       1.0  0.06969  0.63823  0.9431500000000002  1.0000
  H   H64       1.0  0.8897400000000001  0.69417  0.11127  1.0000
  H   H65       1.0  0.8883000000000001  0.54225  0.12040000000000001  1.0000
  H   H66       1.0  0.61648  0.21783000000000002  0.88809  1.0000
  H   H67       1.0  0.51857  0.573  0.42215  1.0000
  H   H68       1.0  0.57433  0.14839  0.9524700000000003  1.0000
  H   H69       1.0  0.39056  0.18960000000000005  0.11243  1.0000
  H   H70       1.0  0.38886  0.03823  0.12475000000000001  1.0000
  H   H71       1.0  0.42830000000000007  0.35118000000000005  0.047380000000000005  1.0000
  H   H72       1.0  0.56897  0.36468  0.9543700000000002  1.0000
  H   H73       1.0  0.93014  0.8518500000000002  0.04601  1.0000
  H   H74       1.0  0.06885  0.8610100000000002  0.9553900000000001  1.0000
  H   H75       1.0  0.43209  0.54928  0.5533800000000002  1.0000
  H   H76       1.0  0.4222700000000001  0.5643400000000001  0.42434  1.0000
  N   N1        1.0  0.11363  0.63405  0.9101800000000001  1.0000
  N   N2        1.0  0.8847300000000001  0.61333  0.08375000000000002  1.0000
  N   N3        1.0  0.61628  0.13902  0.9173100000000001  1.0000
  N   N4        1.0  0.38588  0.10713000000000002  0.08662000000000003  1.0000
  O   O1        1.0  0.21430000000000002  0.70908  0.8275000000000002  1.0000
  O   O2        1.0  0.54334  0.71771  0.33018  1.0000
  O   O3        1.0  0.95666  0.21771000000000001  0.6698200000000001  1.0000
  O   O4        1.0  0.04334  0.21771000000000001  0.33018  1.0000
  O   O5        1.0  0.32059000000000004  0.62577  0.67293  1.0000
  O   O6        1.0  0.6794100000000001  0.62577  0.32707  1.0000
  O   O7        1.0  0.82059  0.12577  0.67293  1.0000
  O   O8        1.0  0.17941  0.12577  0.32707  1.0000
  O   O9        1.0  0.33427000000000007  0.83428  0.74919  1.0000
  O   O10       1.0  0.66573  0.83428  0.25081  1.0000
  O   O11       1.0  0.83427  0.3342800000000001  0.74919  1.0000
  O   O12       1.0  0.7857  0.70908  0.1725  1.0000
  O   O13       1.0  0.16573000000000002  0.3342800000000001  0.25081  1.0000
  O   O14       1.0  0.23619000000000004  0.95839  0.82315  1.0000
  O   O15       1.0  0.76381  0.95839  0.17685000000000006  1.0000
  O   O16       1.0  0.73619  0.45839  0.82315  1.0000
  O   O17       1.0  0.26381  0.45839  0.17685000000000006  1.0000
  O   O18       1.0  0.33209000000000005  0.07528  0.8312900000000002  1.0000
  O   O19       1.0  0.6679100000000001  0.07528  0.16871000000000003  1.0000
  O   O20       1.0  0.83209  0.5752800000000001  0.8312900000000002  1.0000
  O   O21       1.0  0.16791  0.5752800000000001  0.16871000000000003  1.0000
  O   O22       1.0  0.44628000000000007  0.91804  0.8266200000000002  1.0000
  O   O23       1.0  0.7143  0.20908  0.8275000000000002  1.0000
  O   O24       1.0  0.55372  0.91804  0.17338  1.0000
  O   O25       1.0  0.9462800000000001  0.4180400000000001  0.8266200000000002  1.0000
  O   O26       1.0  0.053720000000000004  0.4180400000000001  0.17338  1.0000
  O   O27       1.0  0.45708  0.71627  0.8317600000000003  1.0000
  O   O28       1.0  0.54292  0.71627  0.16824  1.0000
  O   O29       1.0  0.9570800000000002  0.21627  0.8317600000000003  1.0000
  O   O30       1.0  0.04292  0.21627  0.16824  1.0000
  O   O31       1.0  0.32098000000000004  0.6244400000000001  0.82304  1.0000
  O   O32       1.0  0.6790200000000001  0.6244400000000001  0.17696000000000006  1.0000
  O   O33       1.0  0.82098  0.12444  0.82304  1.0000
  O   O34       1.0  0.2857  0.20908  0.1725  1.0000
  O   O35       1.0  0.17902000000000004  0.12444  0.17696000000000006  1.0000
  O   O36       1.0  0.21388000000000001  0.7105100000000001  0.66556  1.0000
  O   O37       1.0  0.78612  0.7105100000000001  0.33444  1.0000
  O   O38       1.0  0.7138800000000002  0.21051000000000003  0.66556  1.0000
  O   O39       1.0  0.28612  0.21051000000000003  0.33444  1.0000
  O   O40       1.0  0.23580000000000004  0.95972  0.6730400000000002  1.0000
  O   O41       1.0  0.7642000000000001  0.95972  0.3269600000000001  1.0000
  O   O42       1.0  0.7358  0.45972  0.6730400000000002  1.0000
  O   O43       1.0  0.2642  0.45972  0.3269600000000001  1.0000
  O   O44       1.0  0.33167  0.07672  0.66935  1.0000
  O   O45       1.0  0.4459000000000001  0.9193700000000001  0.6765  1.0000
  O   O46       1.0  0.66833  0.07672  0.33065  1.0000
  O   O47       1.0  0.83167  0.57672  0.66935  1.0000
  O   O48       1.0  0.16833  0.57672  0.33065  1.0000
  O   O49       1.0  0.37722  0.8777  0.98325  1.0000
  O   O50       1.0  0.6557500000000002  0.76959  0.00634  1.0000
  O   O51       1.0  0.8767100000000001  0.38812  0.98242  1.0000
  O   O52       1.0  0.15126  0.2567  0.00737  1.0000
  O   O53       1.0  0.5340000000000001  0.60073  0.94136  1.0000
  O   O54       1.0  0.43529000000000007  0.66724  0.06926  1.0000
  O   O55       1.0  0.025150000000000002  0.09571  0.9460400000000001  1.0000
  O   O56       1.0  0.5541  0.9193700000000001  0.3235  1.0000
  O   O57       1.0  0.9282900000000001  0.17837000000000003  0.07273  1.0000
  O   O58       1.0  0.39716  0.41357  0.06783  1.0000
  O   O59       1.0  0.60341  0.41325  0.92722  1.0000
  O   O60       1.0  0.90235  0.91811  0.0671  1.0000
  O   O61       1.0  0.10241000000000001  0.91355  0.9296800000000002  1.0000
  O   O62       1.0  0.9459  0.4193700000000001  0.6765  1.0000
  O   O63       1.0  0.0541  0.4193700000000001  0.3235  1.0000
  O   O64       1.0  0.45666000000000007  0.7177100000000001  0.6698200000000001  1.0000
