data_image0
_chemical_formula_structural       C144Cr12H72O60
_chemical_formula_sum              "C144 Cr12 H72 O60"
_cell_length_a       19.11566
_cell_length_b       10.99862
_cell_length_c       18.783320000000003
_cell_angle_alpha    90.38978
_cell_angle_beta     90.01202999999998
_cell_angle_gamma    89.43428

_space_group_name_H-M_alt    "P 1"
_space_group_IT_number       1

loop_
  _space_group_symop_operation_xyz
  'x, y, z'

loop_
  _atom_site_type_symbol
  _atom_site_label
  _atom_site_symmetry_multiplicity
  _atom_site_fract_x
  _atom_site_fract_y
  _atom_site_fract_z
  _atom_site_occupancy
  C   C1        1.0  0.71561  0.33544  0.13847  1.0000
  C   C2        1.0  0.23014000000000004  0.8550200000000001  0.062  1.0000
  C   C3        1.0  0.61233  0.50449  0.4361400000000001  1.0000
  C   C4        1.0  0.95175  0.9439500000000001  0.49019000000000007  1.0000
  C   C5        1.0  0.08844  0.11148  0.47147  1.0000
  C   C6        1.0  0.43955000000000005  0.50341  0.50397  1.0000
  C   C7        1.0  0.58776  0.61514  0.46053  1.0000
  C   C8        1.0  0.93902  0.9262800000000001  0.41801000000000005  1.0000
  C   C9        1.0  0.12584000000000004  0.16797  0.52442  1.0000
  C   C10       1.0  0.43347  0.46418  0.43385000000000007  1.0000
  C   C11       1.0  0.62149  0.6703700000000001  0.51602  1.0000
  C   C12       1.0  0.87439  0.88639  0.39646  1.0000
  C   C13       1.0  0.26904000000000006  0.35907  0.93746  1.0000
  C   C14       1.0  0.19257  0.12569  0.53999  1.0000
  C   C15       1.0  0.3731900000000001  0.40791000000000005  0.41172  1.0000
  C   C16       1.0  0.6829200000000001  0.61929  0.5411800000000002  1.0000
  C   C17       1.0  0.75016  0.91054  0.42295  1.0000
  C   C18       1.0  0.24709  0.92844  0.57127  1.0000
  C   C19       1.0  0.24678  0.41471  0.4259  1.0000
  C   C20       1.0  0.74242  0.42381  0.5724800000000002  1.0000
  C   C21       1.0  0.70785  0.32633  0.3601500000000001  1.0000
  C   C22       1.0  0.27144000000000007  0.37944  0.6453000000000001  1.0000
  C   C23       1.0  0.20846  0.82712  0.36052  1.0000
  C   C24       1.0  0.73013  0.35498  0.062  1.0000
  C   C25       1.0  0.78702  0.83939  0.63816  1.0000
  C   C26       1.0  0.52947  0.1583  0.35098  1.0000
  C   C27       1.0  0.43616  0.15158  0.6393300000000002  1.0000
  C   C28       1.0  0.03165  0.65809  0.3521200000000001  1.0000
  C   C29       1.0  0.9383700000000001  0.65133  0.63912  1.0000
  C   C30       1.0  0.7412  0.97055  0.35565  1.0000
  C   C31       1.0  0.25857  0.9736300000000001  0.6427000000000002  1.0000
  C   C32       1.0  0.24094  0.47  0.35604000000000013  1.0000
  C   C33       1.0  0.75792  0.47290000000000004  0.64275  1.0000
  C   C34       1.0  0.52897  0.26026  0.9704600000000001  1.0000
  C   C35       1.0  0.70939  0.8139500000000001  0.97542  1.0000
  C   C36       1.0  0.47274  0.26208  0.02983  1.0000
  C   C37       1.0  0.028970000000000003  0.7602700000000001  0.9704600000000001  1.0000
  C   C38       1.0  0.9727400000000002  0.76207  0.02983  1.0000
  C   C39       1.0  0.56959  0.1591  0.0104  1.0000
  C   C40       1.0  0.43129  0.16305  0.9893800000000001  1.0000
  C   C41       1.0  0.06959999999999998  0.65912  0.0104  1.0000
  C   C42       1.0  0.9313  0.6630300000000001  0.9893800000000001  1.0000
  C   C43       1.0  0.51261  0.16097000000000003  0.06848000000000003  1.0000
  C   C44       1.0  0.4882  0.16134  0.9312600000000001  1.0000
  C   C45       1.0  0.012620000000000001  0.66097  0.06848000000000003  1.0000
  C   C46       1.0  0.28972000000000003  0.8080100000000001  0.02339  1.0000
  C   C47       1.0  0.98821  0.66134  0.9312600000000001  1.0000
  C   C48       1.0  0.62034  0.9304000000000002  0.45435  1.0000
  C   C49       1.0  0.27564  0.71872  0.61033  1.0000
  C   C50       1.0  0.11363000000000001  0.39851  0.44483  1.0000
  C   C51       1.0  0.7881  0.21529000000000004  0.60489  1.0000
  C   C52       1.0  0.20936  0.31404  0.9754100000000001  1.0000
  C   C53       1.0  0.7897000000000001  0.30796  0.023370000000000005  1.0000
  C   C54       1.0  0.70884  0.82415  0.05092  1.0000
  C   C55       1.0  0.29122  0.8221  0.94808  1.0000
  C   C56       1.0  0.20882  0.32419  0.05091  1.0000
  C   C57       1.0  0.28369  0.33831  0.86119  1.0000
  C   C58       1.0  0.79119  0.32205  0.94806  1.0000
  C   C59       1.0  0.81842  0.9326200000000001  0.047740000000000005  1.0000
  C   C60       1.0  0.18210000000000004  0.9357300000000001  0.95283  1.0000
  C   C61       1.0  0.3184100000000001  0.43266  0.04773  1.0000
  C   C62       1.0  0.68209  0.43570000000000003  0.95282  1.0000
  C   C63       1.0  0.8238300000000002  0.9119000000000002  0.97583  1.0000
  C   C64       1.0  0.176  0.9122500000000001  0.024260000000000004  1.0000
  C   C65       1.0  0.32381  0.41197  0.9758200000000001  1.0000
  C   C66       1.0  0.6759900000000001  0.41223  0.024260000000000004  1.0000
  C   C67       1.0  0.64978  0.76089  0.9427500000000001  1.0000
  C   C68       1.0  0.21561  0.8354500000000001  0.13847  1.0000
  C   C69       1.0  0.34828  0.74892  0.05525000000000001  1.0000
  C   C70       1.0  0.14975  0.26101  0.9427300000000001  1.0000
  C   C71       1.0  0.8482500000000001  0.24884  0.055210000000000016  1.0000
  C   C72       1.0  0.09717  0.20818  0.9832  1.0000
  C   C73       1.0  0.90135  0.19655000000000003  0.01396  1.0000
  C   C74       1.0  0.5972  0.70808  0.98322  1.0000
  C   C75       1.0  0.40138  0.69664  0.014010000000000003  1.0000
  C   C76       1.0  0.60246  0.70457  0.05673000000000001  1.0000
  C   C77       1.0  0.39719  0.69794  0.9404200000000003  1.0000
  C   C78       1.0  0.10244  0.20463  0.05670000000000001  1.0000
  C   C79       1.0  0.7837100000000001  0.83826  0.86119  1.0000
  C   C80       1.0  0.89715  0.19786000000000006  0.9403800000000002  1.0000
  C   C81       1.0  0.65783  0.76162  0.09049  1.0000
  C   C82       1.0  0.34247000000000005  0.75925  0.9075500000000002  1.0000
  C   C83       1.0  0.15780000000000002  0.26166  0.09047  1.0000
  C   C84       1.0  0.84242  0.25918  0.90752  1.0000
  C   C85       1.0  0.53316  0.15526000000000004  0.14397  1.0000
  C   C86       1.0  0.46715000000000007  0.15524  0.8558800000000002  1.0000
  C   C87       1.0  0.03315  0.65526  0.14397  1.0000
  C   C88       1.0  0.9671600000000001  0.6552500000000001  0.8558800000000002  1.0000
  C   C89       1.0  0.75903  0.89801  0.08488  1.0000
  C   C90       1.0  0.47179  0.06191  0.029  1.0000
  C   C91       1.0  0.2415  0.89932  0.9152000000000001  1.0000
  C   C92       1.0  0.25901  0.39804000000000006  0.08487  1.0000
  C   C93       1.0  0.74148  0.3993  0.9151800000000001  1.0000
  C   C94       1.0  0.4546700000000001  0.15247  0.5633  1.0000
  C   C95       1.0  0.49127000000000004  0.16875  0.4184800000000001  1.0000
  C   C96       1.0  0.9623700000000001  0.6481900000000002  0.56524  1.0000
  C   C97       1.0  0.9995100000000001  0.66673  0.42193000000000014  1.0000
  C   C98       1.0  0.43418  0.059300000000000005  0.51416  1.0000
  C   C99       1.0  0.44453000000000004  0.07785000000000002  0.44015  1.0000
  C   C100      1.0  0.9352400000000001  0.56414  0.51448  1.0000
  C   C101      1.0  0.52826  0.060120000000000014  0.97018  1.0000
  C   C102      1.0  0.94626  0.58614  0.44127000000000005  1.0000
  C   C103      1.0  0.51986  0.24560000000000004  0.4696900000000001  1.0000
  C   C104      1.0  0.49840000000000007  0.24406000000000003  0.5396700000000001  1.0000
  C   C105      1.0  0.038840000000000006  0.72387  0.47505000000000003  1.0000
  C   C106      1.0  0.018640000000000004  0.71989  0.54572  1.0000
  C   C107      1.0  0.41323  0.9421200000000002  0.5354800000000002  1.0000
  C   C108      1.0  0.4179500000000001  0.9928600000000002  0.39073  1.0000
  C   C109      1.0  0.9109000000000002  0.44781  0.5333600000000001  1.0000
  C   C110      1.0  0.91598  0.50829  0.3901000000000001  1.0000
  C   C111      1.0  0.89833  0.36018  0.48092  1.0000
  C   C112      1.0  0.97181  0.5619  0.029  1.0000
  C   C113      1.0  0.89665  0.39222  0.40978  1.0000
  C   C114      1.0  0.40081  0.85084  0.4852800000000001  1.0000
  C   C115      1.0  0.39891  0.8779500000000001  0.4133700000000001  1.0000
  C   C116      1.0  0.7765600000000001  0.87895  0.5662500000000001  1.0000
  C   C117      1.0  0.21070000000000003  0.8470000000000002  0.4372400000000001  1.0000
  C   C118      1.0  0.26161  0.42214  0.5729100000000001  1.0000
  C   C119      1.0  0.70736  0.34325000000000006  0.43733000000000005  1.0000
  C   C120      1.0  0.83287  0.88962  0.51837  1.0000
  C   C121      1.0  0.17847000000000002  0.95247  0.46603000000000006  1.0000
  C   C122      1.0  0.32056  0.43904  0.52791  1.0000
  C   C123      1.0  0.028280000000000003  0.56013  0.9701700000000002  1.0000
  C   C124      1.0  0.672  0.44585  0.46674000000000004  1.0000
  C   C125      1.0  0.81867  0.8887  0.44538000000000005  1.0000
  C   C126      1.0  0.21001000000000003  0.00462  0.52409  1.0000
  C   C127      1.0  0.31356  0.41279  0.4554900000000001  1.0000
  C   C128      1.0  0.70085  0.4972800000000001  0.52663  1.0000
  C   C129      1.0  0.69476  0.91681  0.4729500000000001  1.0000
  C   C130      1.0  0.25789  0.8053900000000002  0.5538700000000001  1.0000
  C   C131      1.0  0.18658  0.41308  0.47076  1.0000
  C   C132      1.0  0.7582300000000001  0.30258  0.5531  1.0000
  C   C133      1.0  0.74357  0.9644800000000001  0.15115000000000003  1.0000
  C   C134      1.0  0.76906  0.85899  0.9374700000000001  1.0000
  C   C135      1.0  0.25668  0.96482  0.8490300000000002  1.0000
  C   C136      1.0  0.24357  0.46449  0.15115000000000003  1.0000
  C   C137      1.0  0.75667  0.46481000000000006  0.8490300000000002  1.0000
  C   C138      1.0  0.70929  0.9041000000000002  0.54429  1.0000
  C   C139      1.0  0.24554000000000004  0.7671700000000001  0.48360000000000003  1.0000
  C   C140      1.0  0.19552000000000003  0.41972  0.54419  1.0000
  C   C141      1.0  0.7461  0.26679  0.48225000000000007  1.0000
  C   C142      1.0  0.9015  0.9162000000000001  0.53998  1.0000
  C   C143      1.0  0.11569  0.006620000000000001  0.44048000000000004  1.0000
  C   C144      1.0  0.38509000000000004  0.48792  0.5509  1.0000
  Cr  Cr1       1.0  0.77282  0.16982  0.25264  1.0000
  Cr  Cr2       1.0  0.38328  0.01113  0.74934  1.0000
  Cr  Cr3       1.0  0.11672  0.51113  0.25066000000000005  1.0000
  Cr  Cr4       1.0  0.8832800000000001  0.51113  0.74934  1.0000
  Cr  Cr5       1.0  0.22718  0.16981999999999997  0.74736  1.0000
  Cr  Cr6       1.0  0.27282  0.66982  0.25264  1.0000
  Cr  Cr7       1.0  0.72718  0.66982  0.74736  1.0000
  Cr  Cr8       1.0  0.61504  0.32361  0.24915  1.0000
  Cr  Cr9       1.0  0.38496  0.32361  0.75085  1.0000
  Cr  Cr10      1.0  0.11504000000000002  0.8236100000000001  0.24915  1.0000
  Cr  Cr11      1.0  0.88496  0.8236100000000001  0.75085  1.0000
  Cr  Cr12      1.0  0.61672  0.011130000000000001  0.25066000000000005  1.0000
  H   H1        1.0  0.62683  0.15639  0.020410000000000008  1.0000
  H   H2        1.0  0.41907000000000005  0.00991  0.33404000000000006  1.0000
  H   H3        1.0  0.91022  0.41653  0.58731  1.0000
  H   H4        1.0  0.9171500000000001  0.52914  0.33386  1.0000
  H   H5        1.0  0.89001  0.26671  0.49517000000000005  1.0000
  H   H6        1.0  0.88562  0.32456  0.36955  1.0000
  H   H7        1.0  0.39116  0.75886  0.5023200000000002  1.0000
  H   H8        1.0  0.38746  0.8074400000000002  0.3749200000000001  1.0000
  H   H9        1.0  0.9179800000000001  0.92578  0.59423  1.0000
  H   H10       1.0  0.08374  0.9627800000000001  0.40165  1.0000
  H   H11       1.0  0.3946  0.52518  0.60293  1.0000
  H   H12       1.0  0.37404  0.16323  0.97942  1.0000
  H   H13       1.0  0.58185  0.46398000000000006  0.39471  1.0000
  H   H14       1.0  0.6672100000000001  0.90793  0.58303  1.0000
  H   H15       1.0  0.26183  0.6775300000000001  0.46579  1.0000
  H   H16       1.0  0.15114  0.41725000000000007  0.5800200000000001  1.0000
  H   H17       1.0  0.76652  0.18091  0.46231  1.0000
  H   H18       1.0  0.0023300000000000005  0.9654300000000001  0.5102300000000001  1.0000
  H   H19       1.0  0.03767  0.14664  0.45580000000000004  1.0000
  H   H20       1.0  0.48629  0.5430400000000001  0.52466  1.0000
  H   H21       1.0  0.54104  0.65534  0.4378900000000001  1.0000
  H   H22       1.0  0.9781900000000001  0.9402700000000002  0.37804  1.0000
  H   H23       1.0  0.12684  0.65642  0.020410000000000008  1.0000
  H   H24       1.0  0.10301  0.24405000000000002  0.5524800000000001  1.0000
  H   H25       1.0  0.47383  0.47757000000000005  0.3954  1.0000
  H   H26       1.0  0.60004  0.75225  0.53938  1.0000
  H   H27       1.0  0.86613  0.8693600000000001  0.3402  1.0000
  H   H28       1.0  0.2264  0.17834000000000003  0.57255  1.0000
  H   H29       1.0  0.37031  0.37587  0.35708  1.0000
  H   H30       1.0  0.71416  0.67223  0.5752400000000001  1.0000
  H   H31       1.0  0.5502800000000001  0.3413  0.94385  1.0000
  H   H32       1.0  0.45247000000000004  0.34470000000000006  0.05695000000000001  1.0000
  H   H33       1.0  0.05028000000000001  0.84131  0.9438600000000001  1.0000
  H   H34       1.0  0.87405  0.66319  0.97942  1.0000
  H   H35       1.0  0.95247  0.84468  0.05695000000000001  1.0000
  H   H36       1.0  0.44787000000000005  0.98101  0.05387000000000001  1.0000
  H   H37       1.0  0.5515  0.97783  0.94471  1.0000
  H   H38       1.0  0.9478900000000001  0.48099  0.05386  1.0000
  H   H39       1.0  0.05152000000000001  0.47785000000000005  0.94469  1.0000
  H   H40       1.0  0.8599200000000001  0.98195  0.07382000000000002  1.0000
  H   H41       1.0  0.14092000000000002  0.9879800000000001  0.9276  1.0000
  H   H42       1.0  0.3599  0.4819800000000001  0.07381000000000001  1.0000
  H   H43       1.0  0.6409  0.4879500000000001  0.92759  1.0000
  H   H44       1.0  0.63974  0.7606400000000002  0.8866700000000002  1.0000
  H   H45       1.0  0.56279  0.30137  0.45660000000000006  1.0000
  H   H46       1.0  0.35677  0.7417800000000001  0.11136  1.0000
  H   H47       1.0  0.13970000000000002  0.26083  0.88664  1.0000
  H   H48       1.0  0.85674  0.24168000000000003  0.11133  1.0000
  H   H49       1.0  0.8716800000000001  0.93977  0.95005  1.0000
  H   H50       1.0  0.12825  0.9421500000000002  0.05034  1.0000
  H   H51       1.0  0.37166  0.43984  0.95004  1.0000
  H   H52       1.0  0.62824  0.44213  0.05033  1.0000
  H   H53       1.0  0.05311  0.16639  0.9569800000000002  1.0000
  H   H54       1.0  0.9447100000000002  0.15043  0.0395  1.0000
  H   H55       1.0  0.55314  0.66626  0.95701  1.0000
  H   H56       1.0  0.52094  0.30911000000000005  0.57646  1.0000
  H   H57       1.0  0.44475  0.65052  0.03954  1.0000
  H   H58       1.0  0.06332  0.15834  0.08777  1.0000
  H   H59       1.0  0.93634  0.1512  0.90854  1.0000
  H   H60       1.0  0.56335  0.65829  0.08780000000000002  1.0000
  H   H61       1.0  0.43639  0.65128  0.90858  1.0000
  H   H62       1.0  0.66106  0.75415  0.14778  1.0000
  H   H63       1.0  0.33987  0.75439  0.8501100000000003  1.0000
  H   H64       1.0  0.16103  0.25417  0.14776  1.0000
  H   H65       1.0  0.83981  0.25433  0.8500700000000002  1.0000
  H   H66       1.0  0.53883  0.86075  0.40024  1.0000
  H   H67       1.0  0.08514000000000001  0.77234  0.4616300000000001  1.0000
  H   H68       1.0  0.23798  0.61272  0.68819  1.0000
  H   H69       1.0  0.04682000000000001  0.31999  0.37533000000000005  1.0000
  H   H70       1.0  0.7903  0.15389  0.70594  1.0000
  H   H71       1.0  0.04699999999999999  0.7728000000000003  0.5849  1.0000
  H   H72       1.0  0.41192  0.91443  0.5899700000000001  1.0000
  O   O1        1.0  0.78819  0.043  0.17252000000000003  1.0000
  O   O2        1.0  0.45417  0.05161000000000001  0.66984  1.0000
  O   O3        1.0  0.04583000000000001  0.55161  0.33016  1.0000
  O   O4        1.0  0.9541700000000001  0.55161  0.66984  1.0000
  O   O5        1.0  0.68192  0.95972  0.32707000000000014  1.0000
  O   O6        1.0  0.31808  0.95972  0.67293  1.0000
  O   O7        1.0  0.18192  0.45972  0.32707000000000014  1.0000
  O   O8        1.0  0.81808  0.45972  0.67293  1.0000
  O   O9        1.0  0.6681900000000001  0.16819  0.25082  1.0000
  O   O10       1.0  0.33181  0.16819  0.74918  1.0000
  O   O11       1.0  0.16819  0.6681900000000001  0.25082  1.0000
  O   O12       1.0  0.21181  0.043000000000000003  0.8274800000000001  1.0000
  O   O13       1.0  0.83181  0.6681900000000001  0.74918  1.0000
  O   O14       1.0  0.76624  0.2923  0.17686  1.0000
  O   O15       1.0  0.23376  0.2923  0.82314  1.0000
  O   O16       1.0  0.26624  0.7923000000000001  0.17686  1.0000
  O   O17       1.0  0.73376  0.7923000000000001  0.82314  1.0000
  O   O18       1.0  0.67031  0.40916  0.16872000000000004  1.0000
  O   O19       1.0  0.32969  0.40916  0.8312800000000001  1.0000
  O   O20       1.0  0.17031  0.90916  0.16872000000000004  1.0000
  O   O21       1.0  0.82969  0.90916  0.8312800000000001  1.0000
  O   O22       1.0  0.55616  0.2519  0.17338  1.0000
  O   O23       1.0  0.28819  0.543  0.17252000000000003  1.0000
  O   O24       1.0  0.44384000000000007  0.2519  0.8266200000000002  1.0000
  O   O25       1.0  0.05616000000000001  0.7519  0.17338  1.0000
  O   O26       1.0  0.9438400000000001  0.7519  0.8266200000000002  1.0000
  O   O27       1.0  0.54541  0.05014  0.16824000000000003  1.0000
  O   O28       1.0  0.45459  0.05014  0.83176  1.0000
  O   O29       1.0  0.04541  0.55014  0.16824000000000003  1.0000
  O   O30       1.0  0.9545900000000002  0.55014  0.83176  1.0000
  O   O31       1.0  0.68153  0.9583500000000001  0.17697000000000002  1.0000
  O   O32       1.0  0.31847000000000003  0.9583500000000001  0.82303  1.0000
  O   O33       1.0  0.18153000000000002  0.45835000000000004  0.17697000000000002  1.0000
  O   O34       1.0  0.71181  0.543  0.8274800000000001  1.0000
  O   O35       1.0  0.81847  0.45835000000000004  0.82303  1.0000
  O   O36       1.0  0.78861  0.04448  0.33445  1.0000
  O   O37       1.0  0.21139  0.04448  0.66555  1.0000
  O   O38       1.0  0.28861  0.54448  0.33445  1.0000
  O   O39       1.0  0.7113900000000001  0.54448  0.66555  1.0000
  O   O40       1.0  0.7666300000000001  0.29367000000000004  0.32697000000000004  1.0000
  O   O41       1.0  0.23337  0.29367000000000004  0.67303  1.0000
  O   O42       1.0  0.26663  0.79367  0.32697000000000004  1.0000
  O   O43       1.0  0.73337  0.79367  0.67303  1.0000
  O   O44       1.0  0.6707300000000002  0.4106400000000001  0.33064  1.0000
  O   O45       1.0  0.55655  0.25326  0.32348  1.0000
  O   O46       1.0  0.32927  0.4106400000000001  0.66936  1.0000
  O   O47       1.0  0.17073000000000002  0.91064  0.33064  1.0000
  O   O48       1.0  0.82927  0.91064  0.66936  1.0000
  O   O49       1.0  0.58271  0.9950800000000001  0.49118000000000006  1.0000
  O   O50       1.0  0.59157  0.85643  0.4014600000000001  1.0000
  O   O51       1.0  0.33523000000000003  0.71341  0.6335700000000001  1.0000
  O   O52       1.0  0.22166  0.65646  0.6438  1.0000
  O   O53       1.0  0.06561  0.44105  0.47989  1.0000
  O   O54       1.0  0.09874000000000002  0.32464  0.3858600000000001  1.0000
  O   O55       1.0  0.83151  0.14022000000000004  0.58555  1.0000
  O   O56       1.0  0.44345000000000007  0.25326  0.67652  1.0000
  O   O57       1.0  0.7659000000000001  0.21763  0.6758400000000002  1.0000
  O   O58       1.0  0.05655000000000001  0.75326  0.32348  1.0000
  O   O59       1.0  0.94345  0.75326  0.67652  1.0000
  O   O60       1.0  0.54583  0.05161000000000001  0.33016  1.0000
