data_image0
_chemical_formula_structural       O3CO2CO2VOCOCVOC2H3C10H4C14H6C14H6O3CO2CO2VOCOCVOC2H3C10H2Cl2C2H5Cl
_chemical_formula_sum              "O20 C62 V4 H29 Cl3"
_cell_length_a       6.94591
_cell_length_b       18.258410000000005
_cell_length_c       20.126729999999995
_cell_angle_alpha    68.35863000000002
_cell_angle_beta     90.54113
_cell_angle_gamma    90.81093999999999

_space_group_name_H-M_alt    "P 1"
_space_group_IT_number       1

loop_
  _space_group_symop_operation_xyz
  'x, y, z'

loop_
  _atom_site_type_symbol
  _atom_site_label
  _atom_site_symmetry_multiplicity
  _atom_site_fract_x
  _atom_site_fract_y
  _atom_site_fract_z
  _atom_site_occupancy
  O   O1        1.0  0.48896000000000006  0.44375000000000003  0.94198  1.0000
  O   O2        1.0  0.82389  0.40651  0.08759  1.0000
  O   O3        1.0  0.99968  0.55625  0.05802  1.0000
  C   C1        1.0  0.65499  0.38339  0.11496000000000002  1.0000
  O   O4        1.0  0.8183600000000002  0.43441  0.9443400000000001  1.0000
  O   O5        1.0  0.99411  0.58435  0.91375  1.0000
  C   C2        1.0  0.64877  0.42019  0.92396  1.0000
  O   O6        1.0  0.49453000000000014  0.41565  0.08625000000000002  1.0000
  O   O7        1.0  0.6625900000000001  0.5491599999999999  0.9901300000000001  1.0000
  V   V1        1.0  0.93532  0.49088  0.00183  1.0000
  O   O8        1.0  0.32418000000000013  0.59349  0.9124100000000002  1.0000
  C   C3        1.0  0.15544  0.61649  0.88493  1.0000
  O   O9        1.0  0.32972  0.56559  0.05566  1.0000
  C   C4        1.0  0.16203000000000006  0.58  0.07595000000000003  1.0000
  V   V2        1.0  0.43599  0.5091200000000001  0.99817  1.0000
  O   O10       1.0  0.15885  0.45084  0.009870000000000002  1.0000
  C   C5        1.0  0.07864  0.70445  0.31372  1.0000
  C   C6        1.0  0.26089  0.69389  0.27440000000000003  1.0000
  H   H1        1.0  0.36638  0.6456  0.2959  1.0000
  H   H2        1.0  0.03348  0.66523  0.36813  1.0000
  H   H3        1.0  0.45222000000000007  0.8085299999999999  0.25498000000000004  1.0000
  C   C7        1.0  0.15543  0.62657  0.12082  1.0000
  C   C8        1.0  0.11063  0.87542  0.37728  1.0000
  C   C9        1.0  0.9586400000000003  0.72142  0.24439  1.0000
  C   C10       1.0  0.1408  0.71142  0.20569  1.0000
  C   C11       1.0  0.005709999999999995  0.8105799999999997  0.22167000000000003  1.0000
  C   C12       1.0  0.1258  0.7929900000000001  0.2904  1.0000
  C   C13       1.0  0.18799  0.7999899999999999  0.18231000000000006  1.0000
  C   C14       1.0  0.30799  0.78305  0.25168000000000007  1.0000
  C   C15       1.0  0.1491  0.66507  0.1588  1.0000
  C   C16       1.0  0.11727  0.83826  0.33818  1.0000
  H   H4        1.0  0.2328  0.83918  0.12784  1.0000
  H   H5        1.0  0.9003600000000003  0.85891  0.20009000000000002  1.0000
  H   H6        1.0  0.8143900000000001  0.69589  0.24119000000000002  1.0000
  H   H7        1.0  0.0017399999999999957  0.52704  0.68945  1.0000
  C   C17       1.0  0.22599  0.77411  0.87953  1.0000
  C   C18       1.0  0.25278  0.8489300000000001  0.88083  1.0000
  C   C19       1.0  0.22678000000000004  0.9146099999999998  0.8192000000000003  1.0000
  C   C20       1.0  0.17652000000000007  0.9069500000000001  0.75468  1.0000
  C   C21       1.0  0.15721  0.8302199999999998  0.75053  1.0000
  C   C22       1.0  0.1775  0.7629200000000002  0.81548  1.0000
  C   C23       1.0  0.11641  0.81782  0.68553  1.0000
  C   C24       1.0  0.08647  0.7401  0.68684  1.0000
  C   C25       1.0  0.09895000000000002  0.67428  0.75233  1.0000
  C   C26       1.0  0.14559  0.6856199999999998  0.81643  1.0000
  C   C27       1.0  0.04496  0.7262899999999999  0.62329  1.0000
  C   C28       1.0  0.014350000000000005  0.65021  0.62458  1.0000
  C   C29       1.0  0.02525  0.58609  0.6887  1.0000
  C   C30       1.0  0.06768  0.59761  0.75193  1.0000
  H   H8        1.0  0.24331999999999998  0.7251199999999998  0.92973  1.0000
  H   H9        1.0  0.29014000000000006  0.85606  0.93046  1.0000
  H   H10       1.0  0.24265  0.9725099999999999  0.82204  1.0000
  H   H11       1.0  0.03569  0.7739000000000001  0.5718  1.0000
  H   H12       1.0  0.98236  0.6409799999999999  0.5754700000000003  1.0000
  H   H13       1.0  0.07675  0.5456399999999999  0.80028  1.0000
  C   C31       1.0  0.58699  0.09557  0.24986000000000003  1.0000
  C   C32       1.0  0.5776000000000001  0.08214  0.18569  1.0000
  C   C33       1.0  0.58915  0.14699  0.12084  1.0000
  C   C34       1.0  0.6104800000000001  0.22324  0.12033  1.0000
  C   C35       1.0  0.6214000000000002  0.23746999999999993  0.18464  1.0000
  C   C36       1.0  0.6094100000000001  0.17235999999999999  0.25071000000000004  1.0000
  C   C37       1.0  0.64453  0.31507  0.1839  1.0000
  C   C38       1.0  0.6564400000000001  0.32738  0.2494  1.0000
  C   C39       1.0  0.64454  0.26217  0.31557  1.0000
  C   C40       1.0  0.62074  0.18470999999999999  0.3162100000000001  1.0000
  C   C41       1.0  0.68007  0.40405  0.25043  1.0000
  C   C42       1.0  0.69178  0.41608999999999996  0.31484000000000006  1.0000
  C   C43       1.0  0.68014  0.35236999999999996  0.37952  1.0000
  C   C44       1.0  0.6567000000000002  0.27614  0.38011  1.0000
  H   H14       1.0  0.5773500000000001  0.044809999999999996  0.29931  1.0000
  H   H15       1.0  0.58181  0.13972  0.06995  1.0000
  H   H16       1.0  0.61888  0.27094999999999997  0.06879  1.0000
  H   H17       1.0  0.6898500000000001  0.45546  0.20157  1.0000
  H   H18       1.0  0.70996  0.4753  0.31432  1.0000
  H   H19       1.0  0.6481100000000002  0.22827  0.43154  1.0000
  O   O11       1.0  0.7705400000000002  0.08453  0.41405  1.0000
  O   O12       1.0  0.44571  0.06566000000000001  0.55572  1.0000
  O   O13       1.0  0.27042  0.91565  0.58619  1.0000
  C   C45       1.0  0.61508  0.07972999999999993  0.5763900000000001  1.0000
  O   O14       1.0  0.44114000000000003  0.09354000000000001  0.41247  1.0000
  O   O15       1.0  0.26582  0.9437400000000001  0.44193  1.0000
  C   C46       1.0  0.61009  0.11653999999999999  0.38516  1.0000
  O   O16       1.0  0.77515  0.05644  0.5583100000000001  1.0000
  O   O17       1.0  0.60237  0.95096  0.51005  1.0000
  V   V3        1.0  0.32945  0.00914000000000001  0.49815  1.0000
  O   O18       1.0  0.93579  0.93428  0.44406  1.0000
  C   C47       1.0  0.10363000000000003  0.92048  0.42343000000000003  1.0000
  O   O19       1.0  0.94037  0.90639  0.58731  1.0000
  C   C48       1.0  0.10874000000000003  0.8845199999999999  0.61564  1.0000
  V   V4        1.0  0.8288100000000002  0.99071  0.50146  1.0000
  O   O20       1.0  0.10578  0.049099999999999956  0.4899600000000001  1.0000
  C   C49       1.0  0.7758400000000002  0.30228999999999995  0.7322100000000002  1.0000
  C   C50       1.0  0.60659  0.29812  0.68276  1.0000
  H   H20       1.0  0.5864100000000002  0.33835000000000004  0.62638  1.0000
  H   H21       1.0  0.89486  0.34652  0.71695  1.0000
  H   H22       1.0  0.32342000000000004  0.31725  0.73928  1.0000
  C   C51       1.0  0.6246500000000001  0.12515  0.62212  1.0000
  C   C52       1.0  0.6386  0.37416  0.87875  1.0000
  C   C53       1.0  0.80028  0.21166000000000001  0.75725  1.0000
  C   C54       1.0  0.6307800000000001  0.2081399999999999  0.7084800000000001  1.0000
  C   C55       1.0  0.65551  0.20059999999999997  0.8180400000000001  1.0000
  C   C56       1.0  0.63166  0.29007  0.79328  1.0000
  C   C57       1.0  0.48630000000000007  0.19565999999999997  0.7695  1.0000
  C   C58       1.0  0.4624900000000001  0.28633  0.74445  1.0000
  C   C59       1.0  0.62882  0.16268  0.6609  1.0000
  C   C60       1.0  0.6339700000000003  0.33607000000000004  0.84044  1.0000
  H   H23       1.0  0.3677  0.15124  0.7850500000000001  1.0000
  H   H24       1.0  0.9391400000000002  0.1805  0.76275  1.0000
  Cl  Cl1       1.0  0.12706  0.99762  0.6850600000000001  1.0000
  Cl  Cl2       1.0  0.6949500000000001  0.36789999999999995  0.46045  1.0000
  C   C61       1.0  0.55525  0.9975599999999998  0.19024  1.0000
  C   C62       1.0  0.55747  0.9859  0.11881  1.0000
  H   H25       1.0  0.4332200000000001  0.0159  0.08508  1.0000
  H   H26       1.0  0.69456  0.008700000000000003  0.0902  1.0000
  H   H27       1.0  0.54607  0.9220299999999999  0.12868  1.0000
  H   H28       1.0  0.67417  0.9623800000000001  0.22384000000000004  1.0000
  H   H29       1.0  0.41752  0.97303  0.21768  1.0000
  Cl  Cl3       1.0  0.6875  0.13547000000000003  0.90833  1.0000
