data_image0
_chemical_formula_structural       C124Cr12F4H68O64S4
_chemical_formula_sum              "C124 Cr12 F4 H68 O64 S4"
_cell_length_a       19.51077
_cell_length_b       11.26042
_cell_length_c       18.397580000000005
_cell_angle_alpha    90.09584
_cell_angle_beta     89.43473000000002
_cell_angle_gamma    90.03154

_space_group_name_H-M_alt    "P 1"
_space_group_IT_number       1

loop_
  _space_group_symop_operation_xyz
  'x, y, z'

loop_
  _atom_site_type_symbol
  _atom_site_label
  _atom_site_symmetry_multiplicity
  _atom_site_fract_x
  _atom_site_fract_y
  _atom_site_fract_z
  _atom_site_occupancy
  C   C1        1.0  0.73375  0.38537  0.14971  1.0000
  C   C2        1.0  0.99896  0.97966  0.03879  1.0000
  C   C3        1.0  0.77011  0.50622  0.5604199999999999  1.0000
  C   C4        1.0  0.73003  0.38195  0.35032  1.0000
  C   C5        1.0  0.26977  0.38084  0.64973  1.0000
  C   C6        1.0  0.23003  0.8819499999999999  0.35032  1.0000
  C   C7        1.0  0.76977  0.88084  0.64973  1.0000
  C   C8        1.0  0.5307  0.15672  0.35151  1.0000
  C   C9        1.0  0.46642999999999996  0.15702  0.64616  1.0000
  C   C10       1.0  0.0307  0.65672  0.35151  1.0000
  C   C11       1.0  0.96643  0.65702  0.64616  1.0000
  C   C12       1.0  0.7283299999999999  0.0189  0.36145  1.0000
  C   C13       1.0  0.50066  0.48002000000000006  0.9633899999999999  1.0000
  C   C14       1.0  0.27235  0.02194  0.63885  1.0000
  C   C15       1.0  0.22832999999999998  0.5189  0.36145  1.0000
  C   C16       1.0  0.77235  0.52194  0.63885  1.0000
  C   C17       1.0  0.49872999999999995  0.16009  0.92416  1.0000
  C   C18       1.0  0.50086  0.15959  0.07611  1.0000
  C   C19       1.0  0.99873  0.66009  0.92416  1.0000
  C   C20       1.0  0.00085  0.65959  0.07611  1.0000
  C   C21       1.0  0.50087  0.2677  0.9620399999999999  1.0000
  C   C22       1.0  0.49793999999999994  0.26738  0.03877  1.0000
  C   C23       1.0  0.0008599999999999997  0.7677  0.9620399999999999  1.0000
  C   C24       1.0  0.49896  0.4796599999999999  0.038779999999999995  1.0000
  C   C25       1.0  0.99794  0.76738  0.03877  1.0000
  C   C26       1.0  0.49762999999999996  0.05342  0.03713  1.0000
  C   C27       1.0  0.5027  0.05373000000000001  0.9626499999999999  1.0000
  C   C28       1.0  0.99763  0.55342  0.03713  1.0000
  C   C29       1.0  0.0027  0.55373  0.9626499999999999  1.0000
  C   C30       1.0  0.7300999999999999  0.96674  0.90568  1.0000
  C   C31       1.0  0.26976  0.96674  0.09433999999999998  1.0000
  C   C32       1.0  0.23009999999999997  0.46674000000000004  0.90568  1.0000
  C   C33       1.0  0.76976  0.46674000000000004  0.09433999999999998  1.0000
  C   C34       1.0  0.67069  0.9407500000000001  0.94643  1.0000
  C   C35       1.0  0.32927  0.94132  0.053589999999999985  1.0000
  C   C36       1.0  0.17069  0.44075  0.94643  1.0000
  C   C37       1.0  0.26624999999999993  0.38544  0.85028  1.0000
  C   C38       1.0  0.82927  0.44132  0.053589999999999985  1.0000
  C   C39       1.0  0.66617  0.9696300000000001  0.02142  1.0000
  C   C40       1.0  0.33379  0.97016  0.97863  1.0000
  C   C41       1.0  0.16617  0.46963  0.02142  1.0000
  C   C42       1.0  0.83379  0.4701600000000001  0.97863  1.0000
  C   C43       1.0  0.77135  0.07235  0.00953  1.0000
  C   C44       1.0  0.22829999999999998  0.07175  0.99054  1.0000
  C   C45       1.0  0.2713499999999999  0.57235  0.00953  1.0000
  C   C46       1.0  0.7283  0.57175  0.99054  1.0000
  C   C47       1.0  0.76386  0.06504  0.93264  1.0000
  C   C48       1.0  0.23375000000000004  0.8853700000000001  0.14971  1.0000
  C   C49       1.0  0.23568  0.06456  0.06743  1.0000
  C   C50       1.0  0.26386  0.56505  0.93264  1.0000
  C   C51       1.0  0.73568  0.56456  0.06743  1.0000
  C   C52       1.0  0.63946  0.8256500000000001  0.9579199999999999  1.0000
  C   C53       1.0  0.36076  0.8265100000000001  0.041929999999999995  1.0000
  C   C54       1.0  0.13946  0.32565  0.9579199999999999  1.0000
  C   C55       1.0  0.86076  0.32651  0.041929999999999995  1.0000
  C   C56       1.0  0.63617  0.8520899999999999  0.0383  1.0000
  C   C57       1.0  0.36418  0.85293  0.96161  1.0000
  C   C58       1.0  0.13617  0.35209  0.0383  1.0000
  C   C59       1.0  0.76624  0.88544  0.85028  1.0000
  C   C60       1.0  0.86418  0.35293  0.96161  1.0000
  C   C61       1.0  0.7213799999999999  0.023280000000000002  0.05712  1.0000
  C   C62       1.0  0.27845  0.023150000000000004  0.9429299999999999  1.0000
  C   C63       1.0  0.22137999999999997  0.52328  0.05712  1.0000
  C   C64       1.0  0.77845  0.52315  0.9429299999999999  1.0000
  C   C65       1.0  0.53125  0.15429  0.14806  1.0000
  C   C66       1.0  0.46866  0.15447  0.85203  1.0000
  C   C67       1.0  0.03125  0.65429  0.14806  1.0000
  C   C68       1.0  0.9686599999999999  0.65447  0.85203  1.0000
  C   C69       1.0  0.48572999999999994  0.16458  0.57057  1.0000
  C   C70       1.0  0.50502  0.37616  0.92534  1.0000
  C   C71       1.0  0.49277999999999994  0.16435  0.41904  1.0000
  C   C72       1.0  0.98572  0.66458  0.57057  1.0000
  C   C73       1.0  0.99278  0.66435  0.41904  1.0000
  C   C74       1.0  0.47764  0.06072999999999999  0.53092  1.0000
  C   C75       1.0  0.47855999999999993  0.05936  0.45707  1.0000
  C   C76       1.0  0.97764  0.56073  0.53092  1.0000
  C   C77       1.0  0.97856  0.55936  0.45707  1.0000
  C   C78       1.0  0.48808999999999997  0.2733  0.45665  1.0000
  C   C79       1.0  0.48666  0.27339  0.5327  1.0000
  C   C80       1.0  0.98809  0.7733000000000001  0.45665  1.0000
  C   C81       1.0  0.49364  0.37545  0.0761  1.0000
  C   C82       1.0  0.98666  0.77339  0.5327  1.0000
  C   C83       1.0  0.5113  0.9431299999999999  0.53918  1.0000
  C   C84       1.0  0.51112  0.93781  0.45727999999999996  1.0000
  C   C85       1.0  0.011300000000000001  0.44313  0.53918  1.0000
  C   C86       1.0  0.011120000000000001  0.43781  0.45727999999999996  1.0000
  C   C87       1.0  0.74428  0.93867  0.58534  1.0000
  C   C88       1.0  0.25293  0.94802  0.41379  1.0000
  C   C89       1.0  0.24428  0.43866999999999995  0.58534  1.0000
  C   C90       1.0  0.75293  0.44802000000000003  0.41379  1.0000
  C   C91       1.0  0.77668  0.0393  0.55624  1.0000
  C   C92       1.0  0.0050100000000000006  0.8761600000000002  0.92534  1.0000
  C   C93       1.0  0.20628  0.023060000000000004  0.44995999999999997  1.0000
  C   C94       1.0  0.27668  0.5393  0.55624  1.0000
  C   C95       1.0  0.70628  0.52306  0.44995999999999997  1.0000
  C   C96       1.0  0.76995  0.06619  0.48351  1.0000
  C   C97       1.0  0.21482  0.051840000000000004  0.52193  1.0000
  C   C98       1.0  0.26995  0.56619  0.48351  1.0000
  C   C99       1.0  0.71482  0.55184  0.52193  1.0000
  C   C100      1.0  0.69207  0.90176  0.46904999999999997  1.0000
  C   C101      1.0  0.32315  0.9496899999999999  0.52131  1.0000
  C   C102      1.0  0.19207  0.40176  0.46904999999999997  1.0000
  C   C103      1.0  0.99364  0.8754500000000001  0.0761  1.0000
  C   C104      1.0  0.82315  0.44970000000000004  0.52131  1.0000
  C   C105      1.0  0.69672  0.87748  0.54271  1.0000
  C   C106      1.0  0.3155  0.92414  0.44716999999999996  1.0000
  C   C107      1.0  0.19672  0.37748  0.54271  1.0000
  C   C108      1.0  0.81551  0.42414  0.44716999999999996  1.0000
  C   C109      1.0  0.85055  0.07552  0.55616  1.0000
  C   C110      1.0  0.13019  0.01139  0.45931999999999995  1.0000
  C   C111      1.0  0.35055  0.57552  0.55616  1.0000
  C   C112      1.0  0.63019  0.51139  0.45931999999999995  1.0000
  C   C113      1.0  0.7270699999999999  0.022320000000000003  0.13963  1.0000
  C   C114      1.0  0.0006600000000000004  0.98002  0.9634  1.0000
  C   C115      1.0  0.27289  0.0223  0.86041  1.0000
  C   C116      1.0  0.22707  0.52232  0.13963  1.0000
  C   C117      1.0  0.77289  0.5223  0.86041  1.0000
  C   C118      1.0  0.84353  0.10122  0.47615999999999997  1.0000
  C   C119      1.0  0.1396  0.04175  0.53823  1.0000
  C   C120      1.0  0.34353  0.60122  0.47615999999999997  1.0000
  C   C121      1.0  0.6396  0.54175  0.53823  1.0000
  C   C122      1.0  0.7312  0.99365  0.43822999999999995  1.0000
  C   C123      1.0  0.27011  0.00622  0.5604199999999999  1.0000
  C   C124      1.0  0.2312  0.49365  0.43822999999999995  1.0000
  Cr  Cr1       1.0  0.7720099999999999  0.16967  0.25009  1.0000
  Cr  Cr2       1.0  0.38328999999999996  0.01076  0.74916  1.0000
  Cr  Cr3       1.0  0.11671  0.51076  0.25084  1.0000
  Cr  Cr4       1.0  0.88329  0.51076  0.74916  1.0000
  Cr  Cr5       1.0  0.22799  0.16967  0.74991  1.0000
  Cr  Cr6       1.0  0.27201  0.66967  0.25009  1.0000
  Cr  Cr7       1.0  0.72799  0.66967  0.74991  1.0000
  Cr  Cr8       1.0  0.615  0.32326  0.24926  1.0000
  Cr  Cr9       1.0  0.385  0.32326  0.75074  1.0000
  Cr  Cr10      1.0  0.115  0.8232599999999999  0.24926  1.0000
  Cr  Cr11      1.0  0.885  0.8232599999999999  0.75074  1.0000
  Cr  Cr12      1.0  0.61671  0.01076  0.25084  1.0000
  F   F1        1.0  0.49104999999999993  0.37842  0.42073  1.0000
  F   F2        1.0  0.48974999999999996  0.37847  0.56866  1.0000
  F   F3        1.0  0.99105  0.8784199999999999  0.42073  1.0000
  F   F4        1.0  0.9897499999999999  0.87847  0.56866  1.0000
  H   H1        1.0  0.49549  0.96906  0.06454  1.0000
  H   H2        1.0  0.47661999999999993  0.86794  0.43565  1.0000
  H   H3        1.0  0.06328  0.45133000000000006  0.56265  1.0000
  H   H4        1.0  0.9766199999999999  0.36794  0.43565  1.0000
  H   H5        1.0  0.6621799999999999  0.84228  0.43571  1.0000
  H   H6        1.0  0.36739  0.91662  0.54915  1.0000
  H   H7        1.0  0.16218  0.34228  0.43571  1.0000
  H   H8        1.0  0.86739  0.41662000000000005  0.54915  1.0000
  H   H9        1.0  0.66938  0.80161  0.56384  1.0000
  H   H10       1.0  0.35503999999999997  0.87581  0.41823  1.0000
  H   H11       1.0  0.16938  0.30162  0.56384  1.0000
  H   H12       1.0  0.50552  0.96959  0.9348499999999998  1.0000
  H   H13       1.0  0.8550399999999999  0.37581000000000003  0.41823  1.0000
  H   H14       1.0  0.88649  0.0014400000000000003  0.56612  1.0000
  H   H15       1.0  0.11211  0.91873  0.4518  1.0000
  H   H16       1.0  0.38649  0.50143  0.56612  1.0000
  H   H17       1.0  0.6121099999999999  0.41873000000000005  0.4518  1.0000
  H   H18       1.0  0.85944  0.15657  0.58938  1.0000
  H   H19       1.0  0.10166000000000001  0.08034  0.42879  1.0000
  H   H20       1.0  0.35944  0.65656  0.58938  1.0000
  H   H21       1.0  0.60166  0.58034  0.42879  1.0000
  H   H22       1.0  0.85033  0.19584  0.46327  1.0000
  H   H23       1.0  0.99549  0.46906  0.06454  1.0000
  H   H24       1.0  0.11522  0.12713  0.5537  1.0000
  H   H25       1.0  0.35034  0.69584  0.46327  1.0000
  H   H26       1.0  0.61522  0.62713  0.5537  1.0000
  H   H27       1.0  0.8738199999999999  0.0394  0.44127000000000005  1.0000
  H   H28       1.0  0.12676  0.96613  0.57476  1.0000
  H   H29       1.0  0.37382  0.5394  0.44127000000000005  1.0000
  H   H30       1.0  0.62676  0.46613  0.57476  1.0000
  H   H31       1.0  0.51721  0.3834600000000001  0.8681899999999999  1.0000
  H   H32       1.0  0.48124  0.38208  0.13326  1.0000
  H   H33       1.0  0.01721  0.8834700000000001  0.8682  1.0000
  H   H34       1.0  0.00551  0.46959000000000006  0.9348499999999998  1.0000
  H   H35       1.0  0.9812399999999999  0.88208  0.13327  1.0000
  H   H36       1.0  0.0026999999999999993  0.06305  0.9344200000000001  1.0000
  H   H37       1.0  0.9976999999999999  0.06236  0.06832  1.0000
  H   H38       1.0  0.5027  0.56305  0.9344200000000001  1.0000
  H   H39       1.0  0.4977  0.56237  0.06831  1.0000
  H   H40       1.0  0.8014399999999999  0.10386  0.8962799999999999  1.0000
  H   H41       1.0  0.19793  0.10304  0.10376999999999999  1.0000
  H   H42       1.0  0.30144  0.60386  0.8962799999999999  1.0000
  H   H43       1.0  0.69794  0.60304  0.10376999999999999  1.0000
  H   H44       1.0  0.17909  0.26173  0.94285  1.0000
  H   H45       1.0  0.9782899999999999  0.37478  0.56519  1.0000
  H   H46       1.0  0.82113  0.26253  0.056799999999999996  1.0000
  H   H47       1.0  0.67909  0.76173  0.94285  1.0000
  H   H48       1.0  0.32113  0.7625300000000002  0.056799999999999996  1.0000
  H   H49       1.0  0.58876  0.81794  0.93145  1.0000
  H   H50       1.0  0.41139999999999993  0.81913  0.06855  1.0000
  H   H51       1.0  0.08876  0.31794  0.93145  1.0000
  H   H52       1.0  0.9114  0.31913  0.06855  1.0000
  H   H53       1.0  0.58352  0.85511  0.060509999999999994  1.0000
  H   H54       1.0  0.41687  0.8565400000000001  0.9395799999999999  1.0000
  H   H55       1.0  0.08352  0.35511  0.060509999999999994  1.0000
  H   H56       1.0  0.0634  0.43590999999999996  0.43449  1.0000
  H   H57       1.0  0.9168699999999999  0.35654  0.9395799999999999  1.0000
  H   H58       1.0  0.6717499999999998  0.79699  0.07062  1.0000
  H   H59       1.0  0.32885  0.79744  0.92907  1.0000
  H   H60       1.0  0.17175  0.29699  0.07062  1.0000
  H   H61       1.0  0.82885  0.29744  0.92907  1.0000
  H   H62       1.0  0.9031199999999999  0.03819  0.1371  1.0000
  H   H63       1.0  0.09633  0.03651  0.8629  1.0000
  H   H64       1.0  0.40312  0.53819  0.1371  1.0000
  H   H65       1.0  0.59634  0.5365  0.8629  1.0000
  H   H66       1.0  0.47828999999999994  0.87478  0.56519  1.0000
  H   H67       1.0  0.56339  0.9359200000000001  0.43449  1.0000
  H   H68       1.0  0.56328  0.95133  0.56265  1.0000
  O   O1        1.0  0.78752  0.04281  0.17044  1.0000
  O   O2        1.0  0.45405  0.051210000000000006  0.66914  1.0000
  O   O3        1.0  0.04594999999999999  0.55121  0.33086  1.0000
  O   O4        1.0  0.9540499999999998  0.55121  0.66914  1.0000
  O   O5        1.0  0.68139  0.95948  0.32551  1.0000
  O   O6        1.0  0.31861  0.95948  0.67449  1.0000
  O   O7        1.0  0.18139  0.45947999999999994  0.32551  1.0000
  O   O8        1.0  0.8186099999999997  0.45947999999999994  0.67449  1.0000
  O   O9        1.0  0.6679  0.1679  0.25006  1.0000
  O   O10       1.0  0.3321  0.1679  0.74994  1.0000
  O   O11       1.0  0.16789999999999997  0.6679  0.25006  1.0000
  O   O12       1.0  0.21248  0.04281  0.82956  1.0000
  O   O13       1.0  0.8321  0.6679  0.74994  1.0000
  O   O14       1.0  0.76564  0.2921  0.17502  1.0000
  O   O15       1.0  0.23435999999999998  0.2921  0.82498  1.0000
  O   O16       1.0  0.26564  0.7921  0.17502  1.0000
  O   O17       1.0  0.73436  0.7921  0.82498  1.0000
  O   O18       1.0  0.67019  0.40884000000000004  0.16854  1.0000
  O   O19       1.0  0.32981  0.40884000000000004  0.83146  1.0000
  O   O20       1.0  0.17019  0.90884  0.16854  1.0000
  O   O21       1.0  0.8298099999999999  0.90884  0.83146  1.0000
  O   O22       1.0  0.55662  0.25141  0.17516  1.0000
  O   O23       1.0  0.28751999999999994  0.54281  0.17044  1.0000
  O   O24       1.0  0.44338  0.25141  0.8248399999999999  1.0000
  O   O25       1.0  0.05661999999999999  0.7514099999999999  0.17516  1.0000
  O   O26       1.0  0.94338  0.7514099999999999  0.8248399999999999  1.0000
  O   O27       1.0  0.54596  0.04962  0.17031999999999997  1.0000
  O   O28       1.0  0.45404  0.04962  0.82968  1.0000
  O   O29       1.0  0.04596  0.54962  0.17031999999999997  1.0000
  O   O30       1.0  0.95404  0.54962  0.82968  1.0000
  O   O31       1.0  0.68139  0.95801  0.17669  1.0000
  O   O32       1.0  0.31861  0.95801  0.8233099999999999  1.0000
  O   O33       1.0  0.18139  0.45801  0.17669  1.0000
  O   O34       1.0  0.71248  0.54281  0.82956  1.0000
  O   O35       1.0  0.81861  0.45801  0.8233099999999999  1.0000
  O   O36       1.0  0.78751  0.04439  0.33097  1.0000
  O   O37       1.0  0.21249  0.04439  0.6690299999999999  1.0000
  O   O38       1.0  0.28751  0.54439  0.33097  1.0000
  O   O39       1.0  0.71249  0.54439  0.6690299999999999  1.0000
  O   O40       1.0  0.76563  0.29357  0.32384  1.0000
  O   O41       1.0  0.23436999999999997  0.29357  0.67616  1.0000
  O   O42       1.0  0.26563  0.7935700000000001  0.32384  1.0000
  O   O43       1.0  0.73437  0.7935699999999999  0.67616  1.0000
  O   O44       1.0  0.67019  0.41042  0.32907999999999993  1.0000
  O   O45       1.0  0.55661  0.25288  0.32398  1.0000
  O   O46       1.0  0.32981  0.41042  0.67092  1.0000
  O   O47       1.0  0.17019  0.91042  0.32907999999999993  1.0000
  O   O48       1.0  0.8298099999999999  0.91042  0.67092  1.0000
  O   O49       1.0  0.86381  0.91803  0.02648  1.0000
  O   O50       1.0  0.89431  0.11020999999999999  0.96974  1.0000
  O   O51       1.0  0.8865999999999999  0.10655  0.10842  1.0000
  O   O52       1.0  0.13572  0.9173299999999999  0.9734199999999998  1.0000
  O   O53       1.0  0.10535999999999998  0.10999  0.029950000000000004  1.0000
  O   O54       1.0  0.11305999999999998  0.10513000000000002  0.89136  1.0000
  O   O55       1.0  0.36381  0.41803000000000007  0.02648  1.0000
  O   O56       1.0  0.44338999999999995  0.25288  0.67602  1.0000
  O   O57       1.0  0.39431  0.61021  0.96974  1.0000
  O   O58       1.0  0.3866  0.60655  0.10842  1.0000
  O   O59       1.0  0.63572  0.41733  0.97343  1.0000
  O   O60       1.0  0.60536  0.60999  0.029950000000000004  1.0000
  O   O61       1.0  0.61306  0.60513  0.8913699999999999  1.0000
  O   O62       1.0  0.05661  0.7528800000000001  0.32398  1.0000
  O   O63       1.0  0.94339  0.7528800000000001  0.67602  1.0000
  O   O64       1.0  0.54595  0.051210000000000006  0.33086  1.0000
  S   S1        1.0  0.85565  0.05068  0.029989999999999996  1.0000
  S   S2        1.0  0.14404  0.04995  0.96982  1.0000
  S   S3        1.0  0.35565  0.55068  0.029989999999999996  1.0000
  S   S4        1.0  0.64404  0.54995  0.96983  1.0000
