data_image0
_chemical_formula_structural       O8C4O8C4O4V4C4H4C4O4N4C64O4C4H12F16NH2NH2NH2NH2
_chemical_formula_sum              "O28 C84 V4 H24 N8 F16"
_cell_length_a       28.1867
_cell_length_b       7.1949
_cell_length_c       17.18828
_cell_angle_alpha    89.99998
_cell_angle_beta     101.73978999999999
_cell_angle_gamma    90.0

_space_group_name_H-M_alt    "P 1"
_space_group_IT_number       1

loop_
  _space_group_symop_operation_xyz
  'x, y, z'

loop_
  _atom_site_type_symbol
  _atom_site_label
  _atom_site_symmetry_multiplicity
  _atom_site_fract_x
  _atom_site_fract_y
  _atom_site_fract_z
  _atom_site_occupancy
  O   O1        1.0  0.0007000000000000255  0.43651  0.8579200000000002  1.0000
  O   O2        1.0  0.9993  0.56349  0.14208000000000007  1.0000
  O   O3        1.0  0.9993  0.9365099999999997  0.64208  1.0000
  O   O4        1.0  0.0006999999999999939  0.06349  0.35792  1.0000
  O   O5        1.0  0.93008  0.76638  0.72189  1.0000
  O   O6        1.0  0.06992  0.23361999999999994  0.27811  1.0000
  O   O7        1.0  0.06992  0.26638  0.77811  1.0000
  O   O8        1.0  0.93008  0.73362  0.22189  1.0000
  C   C1        1.0  0.9105799999999998  0.59779  0.7088  1.0000
  C   C2        1.0  0.08942  0.40225  0.29116  1.0000
  C   C3        1.0  0.08942  0.09774999999999998  0.79116  1.0000
  C   C4        1.0  0.9105799999999998  0.90221  0.2088  1.0000
  O   O9        1.0  0.99618  0.76623  0.8623100000000002  1.0000
  O   O10       1.0  0.003820000000000001  0.23377  0.13769  1.0000
  O   O11       1.0  0.003820000000000007  0.26623  0.63769  1.0000
  O   O12       1.0  0.99618  0.73377  0.36231  1.0000
  O   O13       1.0  0.06587  0.9364599999999997  0.7835  1.0000
  O   O14       1.0  0.9341299999999998  0.06354  0.2165  1.0000
  O   O15       1.0  0.9341299999999998  0.43646  0.7165000000000002  1.0000
  O   O16       1.0  0.06587  0.56354  0.2835  1.0000
  C   C5        1.0  0.99848  0.59646  0.89448  1.0000
  C   C6        1.0  0.0015199999999999999  0.40353999999999995  0.10551  1.0000
  C   C7        1.0  0.0015199999999999999  0.09646  0.60552  1.0000
  C   C8        1.0  0.99848  0.9035399999999998  0.39448  1.0000
  O   O17       1.0  0.022790000000000015  0.60302  0.7239800000000002  1.0000
  O   O18       1.0  0.97721  0.3969799999999999  0.27602  1.0000
  O   O19       1.0  0.97721  0.10302  0.77602  1.0000
  O   O20       1.0  0.022789999999999998  0.89698  0.22398  1.0000
  V   V1        1.0  0.99577  0.8779  0.7548300000000002  1.0000
  V   V2        1.0  0.004230000000000002  0.1221  0.24517000000000003  1.0000
  V   V3        1.0  0.00423000000000001  0.3779  0.74517  1.0000
  V   V4        1.0  0.99577  0.6221  0.25483  1.0000
  C   C9        1.0  0.0017099999999999939  0.08265  0.51955  1.0000
  C   C10       1.0  0.9982899999999998  0.91735  0.48045000000000004  1.0000
  C   C11       1.0  0.9982899999999998  0.5826499999999998  0.98045  1.0000
  C   C12       1.0  0.00171  0.41735  0.01955  1.0000
  H   H1        1.0  0.004510000000000001  0.21146999999999996  0.48784  1.0000
  H   H2        1.0  0.9954899999999998  0.78853  0.51216  1.0000
  H   H3        1.0  0.9954899999999998  0.71147  0.01216  1.0000
  H   H4        1.0  0.004510000000000001  0.28853  0.98784  1.0000
  C   C13       1.0  0.68371  0.9486399999999999  0.027050000000000008  1.0000
  C   C14       1.0  0.31590999999999997  0.027929999999999996  0.9715600000000001  1.0000
  C   C15       1.0  0.31590999999999997  0.47207  0.4715600000000001  1.0000
  C   C16       1.0  0.68371  0.55136  0.52705  1.0000
  O   O21       1.0  0.71364  0.93505  0.9752200000000001  1.0000
  O   O22       1.0  0.28574  0.02215  0.02322  1.0000
  O   O23       1.0  0.28574  0.47785  0.52322  1.0000
  O   O24       1.0  0.71364  0.56495  0.4752200000000001  1.0000
  N   N1        1.0  0.70295  0.95226  0.10676000000000002  1.0000
  N   N2        1.0  0.29693  0.04627  0.8922000000000002  1.0000
  N   N3        1.0  0.29693  0.45373  0.3922  1.0000
  N   N4        1.0  0.70295  0.54774  0.60676  1.0000
  C   C17       1.0  0.67392  0.96864  0.16125  1.0000
  C   C18       1.0  0.32614  0.051309999999999995  0.8376800000000002  1.0000
  C   C19       1.0  0.32614  0.44869  0.33768  1.0000
  C   C20       1.0  0.67392  0.53135  0.66125  1.0000
  C   C21       1.0  0.78205  0.09339999999999998  0.16569  1.0000
  C   C22       1.0  0.21791  0.9066199999999998  0.83249  1.0000
  C   C23       1.0  0.21790999999999988  0.59338  0.33248  1.0000
  C   C24       1.0  0.78205  0.4066  0.66569  1.0000
  C   C25       1.0  0.8324399999999997  0.08067  0.19002000000000002  1.0000
  C   C26       1.0  0.16752  0.9196599999999998  0.8084  1.0000
  C   C27       1.0  0.16752  0.58034  0.3084  1.0000
  C   C28       1.0  0.8324400000000002  0.41933  0.6900200000000002  1.0000
  C   C29       1.0  0.8291099999999999  0.75572  0.15182  1.0000
  C   C30       1.0  0.17088000000000003  0.24297  0.8491400000000002  1.0000
  C   C31       1.0  0.17088  0.25703  0.34914  1.0000
  C   C32       1.0  0.8291099999999999  0.7442799999999999  0.65182  1.0000
  C   C33       1.0  0.77869  0.76937  0.12703000000000006  1.0000
  C   C34       1.0  0.22131000000000003  0.22887999999999994  0.8737700000000003  1.0000
  C   C35       1.0  0.22131  0.27112  0.37377  1.0000
  C   C36       1.0  0.77869  0.73063  0.62703  1.0000
  C   C37       1.0  0.75484  0.93808  0.1337  1.0000
  C   C38       1.0  0.24508  0.06088  0.86562  1.0000
  C   C39       1.0  0.24508  0.43912  0.36562  1.0000
  C   C40       1.0  0.75484  0.56192  0.6337  1.0000
  C   C41       1.0  0.6023200000000001  0.97695  0.05395000000000001  1.0000
  C   C42       1.0  0.39755  0.02111  0.9444300000000002  1.0000
  C   C43       1.0  0.39755  0.47889  0.44443  1.0000
  C   C44       1.0  0.60232  0.52305  0.55395  1.0000
  C   C45       1.0  0.63315  0.96  0.99895  1.0000
  C   C46       1.0  0.36646  0.014899999999999998  0.9994  1.0000
  C   C47       1.0  0.36646  0.4851  0.49940000000000007  1.0000
  C   C48       1.0  0.63315  0.54  0.49895000000000006  1.0000
  C   C49       1.0  0.61274  0.9537  0.9173700000000001  1.0000
  C   C50       1.0  0.38658  0.99413  0.08063  1.0000
  C   C51       1.0  0.38658  0.50587  0.58063  1.0000
  C   C52       1.0  0.61274  0.5463  0.41737000000000013  1.0000
  C   C53       1.0  0.62287  0.98278  0.1363  1.0000
  C   C54       1.0  0.37723  0.038589999999999985  0.86232  1.0000
  C   C55       1.0  0.37723  0.46141  0.36232  1.0000
  C   C56       1.0  0.62287  0.51722  0.6363  1.0000
  C   C57       1.0  0.85678  0.91206  0.18351  1.0000
  C   C58       1.0  0.14319999999999994  0.08763999999999997  0.81627  1.0000
  C   C59       1.0  0.14319999999999994  0.41236  0.3162700000000001  1.0000
  C   C60       1.0  0.85678  0.58794  0.68351  1.0000
  C   C61       1.0  0.4798699999999999  0.00902  0.91627  1.0000
  C   C62       1.0  0.52012  0.99871  0.08192000000000003  1.0000
  C   C63       1.0  0.52012  0.50129  0.58192  1.0000
  C   C64       1.0  0.47986999999999996  0.49098  0.4162700000000001  1.0000
  C   C65       1.0  0.46879999999999994  0.99879  0.05451000000000002  1.0000
  C   C66       1.0  0.53096  0.98859  0.94356  1.0000
  C   C67       1.0  0.53096  0.51141  0.4435600000000001  1.0000
  C   C68       1.0  0.46879999999999994  0.50121  0.55451  1.0000
  C   C69       1.0  0.44889000000000007  0.00962  0.9717700000000001  1.0000
  C   C70       1.0  0.55099  0.98815  0.02643  1.0000
  C   C71       1.0  0.55099  0.51185  0.52643  1.0000
  C   C72       1.0  0.44889  0.49038  0.47177  1.0000
  C   C73       1.0  0.45866000000000007  0.03056  0.8349400000000002  1.0000
  C   C74       1.0  0.54169  0.01182  0.16342  1.0000
  C   C75       1.0  0.54169  0.4881799999999999  0.66342  1.0000
  C   C76       1.0  0.45866  0.46944  0.33494  1.0000
  C   C77       1.0  0.4085599999999999  0.04432999999999999  0.80784  1.0000
  C   C78       1.0  0.59186  0.00373  0.19075000000000003  1.0000
  C   C79       1.0  0.59186  0.49627  0.6907500000000002  1.0000
  C   C80       1.0  0.4085599999999999  0.45567  0.30784  1.0000
  O   O25       1.0  0.30555  0.06952  0.76005  1.0000
  O   O26       1.0  0.6946  0.96928  0.23925  1.0000
  O   O27       1.0  0.6946  0.53072  0.73925  1.0000
  O   O28       1.0  0.30555  0.43048  0.26005  1.0000
  C   C81       1.0  0.56291  0.9669  0.8905700000000002  1.0000
  C   C82       1.0  0.43648999999999993  0.98573  0.10729  1.0000
  C   C83       1.0  0.43648999999999993  0.51427  0.60729  1.0000
  C   C84       1.0  0.56291  0.53311  0.39056  1.0000
  H   H5        1.0  0.14757999999999996  0.7978399999999998  0.78316  1.0000
  H   H6        1.0  0.8523499999999999  0.20332  0.21432  1.0000
  H   H7        1.0  0.8523499999999999  0.29668  0.7143200000000002  1.0000
  H   H8        1.0  0.14757999999999996  0.7021599999999998  0.28316000000000013  1.0000
  H   H9        1.0  0.4800799999999999  0.04182  0.78995  1.0000
  H   H10       1.0  0.52059  0.03382  0.20829  1.0000
  H   H11       1.0  0.52059  0.4661799999999999  0.7082900000000002  1.0000
  H   H12       1.0  0.4800799999999999  0.45818  0.28995  1.0000
  H   H13       1.0  0.55056  0.9551  0.8272500000000003  1.0000
  H   H14       1.0  0.44858  0.96404  0.1702  1.0000
  H   H15       1.0  0.44857999999999987  0.53596  0.6702  1.0000
  H   H16       1.0  0.55056  0.5449  0.32725  1.0000
  F   F1        1.0  0.85066  0.5904899999999997  0.14293  1.0000
  F   F2        1.0  0.14931  0.40738  0.8593700000000002  1.0000
  F   F3        1.0  0.14930999999999997  0.09262  0.35937  1.0000
  F   F4        1.0  0.85066  0.9095099999999998  0.64293  1.0000
  F   F5        1.0  0.75286  0.61809  0.096  1.0000
  F   F6        1.0  0.24719999999999995  0.37887  0.90613  1.0000
  F   F7        1.0  0.24719999999999995  0.12113  0.40613  1.0000
  F   F8        1.0  0.75286  0.88191  0.596  1.0000
  F   F9        1.0  0.64069  0.93372  0.86217  1.0000
  F   F10       1.0  0.35824  0.98082  0.13556000000000007  1.0000
  F   F11       1.0  0.35824  0.51918  0.63556  1.0000
  F   F12       1.0  0.64069  0.56628  0.3621700000000001  1.0000
  F   F13       1.0  0.24032  0.7431199999999998  0.8241500000000003  1.0000
  F   F14       1.0  0.7597  0.25777  0.17256  1.0000
  F   F15       1.0  0.7596999999999999  0.24223  0.67256  1.0000
  F   F16       1.0  0.24032  0.75688  0.32415  1.0000
  N   N5        1.0  0.39012999999999987  0.06441  0.72411  1.0000
  H   H17       1.0  0.4015  0.9498  0.69522  1.0000
  H   H18       1.0  0.40551999999999994  0.18356999999999998  0.70471  1.0000
  N   N6        1.0  0.6107  0.0191  0.27455  1.0000
  H   H19       1.0  0.5992999999999999  0.14606  0.29406  1.0000
  H   H20       1.0  0.59567  0.9126699999999999  0.3032  1.0000
  N   N7        1.0  0.6107  0.4809  0.77455  1.0000
  H   H21       1.0  0.5992999999999999  0.35394  0.7940600000000002  1.0000
  H   H22       1.0  0.59567  0.58732  0.8032  1.0000
  N   N8        1.0  0.39012999999999987  0.43559  0.22411000000000006  1.0000
  H   H23       1.0  0.4015000000000001  0.5502  0.19522000000000003  1.0000
  H   H24       1.0  0.4055199999999999  0.31643  0.20471000000000003  1.0000
