data_image0
_chemical_formula_structural       C104Cr12H36O52NH2NH2NH2NH2NH2NH2NH2NH2OHOHOHOHOHOHOHOH
_chemical_formula_sum              "C104 Cr12 H60 O60 N8"
_cell_length_a       18.86022
_cell_length_b       10.98284
_cell_length_c       18.83745
_cell_angle_alpha    89.98179
_cell_angle_beta     89.67398999999999
_cell_angle_gamma    90.07171999999998

_space_group_name_H-M_alt    "P 1"
_space_group_IT_number       1

loop_
  _space_group_symop_operation_xyz
  'x, y, z'

loop_
  _atom_site_type_symbol
  _atom_site_label
  _atom_site_symmetry_multiplicity
  _atom_site_fract_x
  _atom_site_fract_y
  _atom_site_fract_z
  _atom_site_occupancy
  C   C1        1.0  0.73171  0.38165  0.14746  1.0000
  C   C2        1.0  0.26829  0.38165  0.85254  1.0000
  C   C3        1.0  0.23171  0.88165  0.14746  1.0000
  C   C4        1.0  0.76829  0.88165  0.85254  1.0000
  C   C5        1.0  0.50884  0.38959  0.9266100000000002  1.0000
  C   C6        1.0  0.49106  0.38939999999999997  0.07342000000000001  1.0000
  C   C7        1.0  0.008839999999999999  0.88959  0.9266100000000002  1.0000
  C   C8        1.0  0.99106  0.8893999999999999  0.07342000000000001  1.0000
  C   C9        1.0  0.004329999999999999  0.99908  0.9634400000000001  1.0000
  C   C10       1.0  0.99549  0.9989899999999999  0.03663  1.0000
  C   C11       1.0  0.50433  0.49908  0.9634400000000001  1.0000
  C   C12       1.0  0.49549  0.49898999999999993  0.03663  1.0000
  C   C13       1.0  0.6758699999999999  0.9419699999999999  0.026730000000000004  1.0000
  C   C14       1.0  0.32415  0.94217  0.9732500000000001  1.0000
  C   C15       1.0  0.17586  0.4419699999999999  0.026730000000000004  1.0000
  C   C16       1.0  0.82415  0.44217  0.9732500000000001  1.0000
  C   C17       1.0  0.68214  0.9154599999999999  0.95432  1.0000
  C   C18       1.0  0.31788  0.9156799999999999  0.04568  1.0000
  C   C19       1.0  0.18214  0.41545999999999994  0.95432  1.0000
  C   C20       1.0  0.81788  0.41568  0.04568  1.0000
  C   C21       1.0  0.74561  0.94184  0.91865  1.0000
  C   C22       1.0  0.25444  0.9419200000000001  0.08135000000000003  1.0000
  C   C23       1.0  0.24561  0.44183999999999996  0.91865  1.0000
  C   C24       1.0  0.75444  0.44192  0.08135000000000003  1.0000
  C   C25       1.0  0.79549  0.01692  0.9516600000000001  1.0000
  C   C26       1.0  0.20461  0.0169  0.04833  1.0000
  C   C27       1.0  0.29549  0.51692  0.9516600000000001  1.0000
  C   C28       1.0  0.70461  0.5169  0.04833  1.0000
  C   C29       1.0  0.78997  0.04523  0.0229  1.0000
  C   C30       1.0  0.21011  0.04514  0.9770700000000001  1.0000
  C   C31       1.0  0.28997  0.54523  0.0229  1.0000
  C   C32       1.0  0.71011  0.54514  0.9770700000000001  1.0000
  C   C33       1.0  0.73153  0.00069  0.06272  1.0000
  C   C34       1.0  0.2685  0.0007199999999999999  0.93725  1.0000
  C   C35       1.0  0.23152999999999999  0.50069  0.06272  1.0000
  C   C36       1.0  0.7684999999999998  0.50072  0.93725  1.0000
  C   C37       1.0  0.53686  0.05781  0.4744100000000001  1.0000
  C   C38       1.0  0.53283  0.06714  0.5481900000000001  1.0000
  C   C39       1.0  0.03686  0.55781  0.4744100000000001  1.0000
  C   C40       1.0  0.03283  0.56714  0.5481900000000001  1.0000
  C   C41       1.0  0.50516  0.17243  0.57901  1.0000
  C   C42       1.0  0.51707  0.15909  0.43149000000000004  1.0000
  C   C43       1.0  0.005159999999999999  0.67243  0.57901  1.0000
  C   C44       1.0  0.01707  0.65909  0.43149000000000004  1.0000
  C   C45       1.0  0.53128  0.15546  0.14680000000000004  1.0000
  C   C46       1.0  0.46873  0.15552  0.8531900000000001  1.0000
  C   C47       1.0  0.03128  0.65546  0.14680000000000004  1.0000
  C   C48       1.0  0.96873  0.65552  0.8531900000000001  1.0000
  C   C49       1.0  0.49217  0.27718  0.53689  1.0000
  C   C50       1.0  0.49305  0.26771  0.46337000000000006  1.0000
  C   C51       1.0  0.99217  0.7771799999999999  0.53689  1.0000
  C   C52       1.0  0.9930400000000001  0.7677099999999999  0.46337000000000006  1.0000
  C   C53       1.0  0.78399  0.02931  0.47350000000000003  1.0000
  C   C54       1.0  0.18405  0.9119099999999999  0.54549  1.0000
  C   C55       1.0  0.28399  0.52931  0.47350000000000003  1.0000
  C   C56       1.0  0.68405  0.41191  0.54549  1.0000
  C   C57       1.0  0.78528  0.012419999999999999  0.54582  1.0000
  C   C58       1.0  0.17783  0.9008399999999999  0.47288  1.0000
  C   C59       1.0  0.28528  0.51242  0.54582  1.0000
  C   C60       1.0  0.67783  0.40082999999999996  0.47288  1.0000
  C   C61       1.0  0.7506  0.91238  0.57569  1.0000
  C   C62       1.0  0.23862999999999998  0.89561  0.42932000000000003  1.0000
  C   C63       1.0  0.2506  0.41237999999999997  0.57569  1.0000
  C   C64       1.0  0.73863  0.39560999999999996  0.42932000000000003  1.0000
  C   C65       1.0  0.70998  0.8331899999999999  0.5322800000000001  1.0000
  C   C66       1.0  0.30633  0.89458  0.45953  1.0000
  C   C67       1.0  0.20998  0.33319  0.5322800000000001  1.0000
  C   C68       1.0  0.80633  0.39458  0.45953  1.0000
  C   C69       1.0  0.70939  0.85098  0.45932000000000006  1.0000
  C   C70       1.0  0.31229  0.90683  0.5327800000000001  1.0000
  C   C71       1.0  0.20939  0.35098  0.45932000000000006  1.0000
  C   C72       1.0  0.81229  0.40683  0.5327800000000001  1.0000
  C   C73       1.0  0.74727  0.9470799999999999  0.42998000000000003  1.0000
  C   C74       1.0  0.25117  0.9204699999999999  0.57531  1.0000
  C   C75       1.0  0.24727  0.44708  0.42998000000000003  1.0000
  C   C76       1.0  0.75117  0.42047  0.57531  1.0000
  C   C77       1.0  0.72743  0.02139  0.14008000000000004  1.0000
  C   C78       1.0  0.27259  0.02136  0.8598900000000002  1.0000
  C   C79       1.0  0.22742999999999997  0.52139  0.14008000000000004  1.0000
  C   C80       1.0  0.77259  0.52136  0.8598900000000002  1.0000
  C   C81       1.0  0.72786  0.374  0.3543500000000001  1.0000
  C   C82       1.0  0.27004  0.37722  0.6471900000000002  1.0000
  C   C83       1.0  0.22787  0.8739899999999999  0.3543500000000001  1.0000
  C   C84       1.0  0.77004  0.8772199999999999  0.6471900000000002  1.0000
  C   C85       1.0  0.53555  0.15567  0.35589  1.0000
  C   C86       1.0  0.47007999999999994  0.15852  0.64788  1.0000
  C   C87       1.0  0.03555  0.65567  0.35589  1.0000
  C   C88       1.0  0.9700799999999999  0.65852  0.64788  1.0000
  C   C89       1.0  0.74061  0.9758  0.35584000000000005  1.0000
  C   C90       1.0  0.25866  0.9698299999999999  0.6460400000000002  1.0000
  C   C91       1.0  0.24061  0.4758  0.35584000000000005  1.0000
  C   C92       1.0  0.75866  0.46983  0.6460400000000002  1.0000
  C   C93       1.0  0.49715  0.16429  0.9254800000000002  1.0000
  C   C94       1.0  0.5029  0.16418  0.0745  1.0000
  C   C95       1.0  0.99715  0.66429  0.9254800000000002  1.0000
  C   C96       1.0  0.002899999999999999  0.66418  0.0745  1.0000
  C   C97       1.0  0.50161  0.27692  0.9623500000000001  1.0000
  C   C98       1.0  0.49837  0.27684  0.03766  1.0000
  C   C99       1.0  0.0016099999999999992  0.77692  0.9623500000000001  1.0000
  C   C100      1.0  0.9983700000000001  0.77684  0.03766  1.0000
  C   C101      1.0  0.50034  0.05504  0.03636  1.0000
  C   C102      1.0  0.49981  0.0551  0.96359  1.0000
  C   C103      1.0  0.00034  0.55503  0.03636  1.0000
  C   C104      1.0  0.9998099999999998  0.5551  0.96359  1.0000
  Cr  Cr1       1.0  0.772  0.16964  0.25011  1.0000
  Cr  Cr2       1.0  0.22799999999999998  0.16964  0.74989  1.0000
  Cr  Cr3       1.0  0.272  0.66964  0.25011  1.0000
  Cr  Cr4       1.0  0.728  0.66964  0.74989  1.0000
  Cr  Cr5       1.0  0.61496  0.32335  0.24926  1.0000
  Cr  Cr6       1.0  0.38504  0.32335  0.75074  1.0000
  Cr  Cr7       1.0  0.11496  0.8233499999999999  0.24926  1.0000
  Cr  Cr8       1.0  0.88504  0.8233499999999999  0.75074  1.0000
  Cr  Cr9       1.0  0.61667  0.01062  0.25084  1.0000
  Cr  Cr10      1.0  0.38333  0.01062  0.74916  1.0000
  Cr  Cr11      1.0  0.11667  0.51062  0.25084  1.0000
  Cr  Cr12      1.0  0.8833299999999998  0.51062  0.74916  1.0000
  H   H1        1.0  0.50217  0.96733  0.06261  1.0000
  H   H2        1.0  0.49804  0.96743  0.9373100000000001  1.0000
  H   H3        1.0  0.00217  0.46732999999999997  0.06261  1.0000
  H   H4        1.0  0.99804  0.46743  0.9373100000000001  1.0000
  H   H5        1.0  0.8112799999999999  0.10794  0.4518  1.0000
  H   H6        1.0  0.13667  0.92173  0.5777400000000001  1.0000
  H   H7        1.0  0.31128  0.60794  0.4518  1.0000
  H   H8        1.0  0.63667  0.42173000000000005  0.5777400000000001  1.0000
  H   H9        1.0  0.81604  0.07463  0.57805  1.0000
  H   H10       1.0  0.12506  0.89662  0.4507300000000001  1.0000
  H   H11       1.0  0.31604  0.57463  0.57805  1.0000
  H   H12       1.0  0.62506  0.39661  0.4507300000000001  1.0000
  H   H13       1.0  0.67948  0.7896799999999999  0.42571000000000003  1.0000
  H   H14       1.0  0.36483999999999994  0.91387  0.55544  1.0000
  H   H15       1.0  0.17948  0.28968  0.42571000000000003  1.0000
  H   H16       1.0  0.8648399999999999  0.41388  0.55544  1.0000
  H   H17       1.0  0.52005  0.39492  0.87041  1.0000
  H   H18       1.0  0.47985  0.39455  0.12963  1.0000
  H   H19       1.0  0.020050000000000002  0.8949199999999999  0.87041  1.0000
  H   H20       1.0  0.9798499999999999  0.89455  0.12963  1.0000
  H   H21       1.0  0.007730000000000001  0.08449  0.93494  1.0000
  H   H22       1.0  0.99206  0.08432  0.06515  1.0000
  H   H23       1.0  0.50773  0.58449  0.93494  1.0000
  H   H24       1.0  0.49205999999999994  0.58432  0.06515  1.0000
  H   H25       1.0  0.62859  0.9133199999999999  0.05491000000000001  1.0000
  H   H26       1.0  0.3714  0.91362  0.9450800000000001  1.0000
  H   H27       1.0  0.12859  0.41332  0.05491000000000001  1.0000
  H   H28       1.0  0.8713999999999998  0.41362  0.9450800000000001  1.0000
  H   H29       1.0  0.63882  0.87093  0.9274000000000001  1.0000
  H   H30       1.0  0.36118  0.8712799999999999  0.07261  1.0000
  H   H31       1.0  0.13882  0.37093000000000004  0.9274000000000001  1.0000
  H   H32       1.0  0.86118  0.37128  0.07261  1.0000
  H   H33       1.0  0.84264  0.04684  0.9235100000000002  1.0000
  H   H34       1.0  0.15751  0.04676999999999999  0.07648  1.0000
  H   H35       1.0  0.34264  0.54684  0.9235100000000002  1.0000
  H   H36       1.0  0.65751  0.54676  0.07648  1.0000
  O   O1        1.0  0.78754  0.04269  0.17047000000000007  1.0000
  O   O2        1.0  0.21246000000000004  0.04269  0.82953  1.0000
  O   O3        1.0  0.28754  0.54269  0.17047000000000007  1.0000
  O   O4        1.0  0.71246  0.54269  0.82953  1.0000
  O   O5        1.0  0.55654  0.25292  0.32397  1.0000
  O   O6        1.0  0.44346  0.25292  0.6760300000000002  1.0000
  O   O7        1.0  0.05654000000000001  0.75292  0.32397  1.0000
  O   O8        1.0  0.94346  0.75292  0.6760300000000002  1.0000
  O   O9        1.0  0.54587  0.0511  0.33084  1.0000
  O   O10       1.0  0.45413  0.0511  0.66916  1.0000
  O   O11       1.0  0.04587  0.5511  0.33084  1.0000
  O   O12       1.0  0.95413  0.5511  0.66916  1.0000
  O   O13       1.0  0.68134  0.9592999999999999  0.32551000000000013  1.0000
  O   O14       1.0  0.31866  0.9592999999999999  0.67449  1.0000
  O   O15       1.0  0.18133999999999997  0.4593  0.32551000000000013  1.0000
  O   O16       1.0  0.81866  0.4593  0.67449  1.0000
  O   O17       1.0  0.66788  0.16787  0.25007  1.0000
  O   O18       1.0  0.33212  0.16787  0.74993  1.0000
  O   O19       1.0  0.16788  0.66787  0.25007  1.0000
  O   O20       1.0  0.83212  0.66787  0.74993  1.0000
  O   O21       1.0  0.76566  0.29216  0.17505  1.0000
  O   O22       1.0  0.23434  0.29216  0.82495  1.0000
  O   O23       1.0  0.26566  0.79216  0.17505  1.0000
  O   O24       1.0  0.73434  0.79216  0.82495  1.0000
  O   O25       1.0  0.67019  0.40897999999999995  0.16855  1.0000
  O   O26       1.0  0.32981  0.40897999999999995  0.83145  1.0000
  O   O27       1.0  0.17019  0.90898  0.16855  1.0000
  O   O28       1.0  0.82981  0.90898  0.83145  1.0000
  O   O29       1.0  0.55658  0.25145  0.17516  1.0000
  O   O30       1.0  0.44342000000000004  0.25145  0.8248400000000002  1.0000
  O   O31       1.0  0.05657999999999999  0.75145  0.17516  1.0000
  O   O32       1.0  0.94342  0.75145  0.8248400000000002  1.0000
  O   O33       1.0  0.54592  0.04951  0.17032  1.0000
  O   O34       1.0  0.45408  0.04951  0.82968  1.0000
  O   O35       1.0  0.04592  0.54951  0.17032  1.0000
  O   O36       1.0  0.95408  0.54951  0.82968  1.0000
  O   O37       1.0  0.68139  0.95784  0.17671  1.0000
  O   O38       1.0  0.31861  0.95784  0.82329  1.0000
  O   O39       1.0  0.18139  0.45783999999999997  0.17671  1.0000
  O   O40       1.0  0.81861  0.45783999999999997  0.82329  1.0000
  O   O41       1.0  0.7875  0.04428  0.33099  1.0000
  O   O42       1.0  0.21250000000000002  0.04428  0.66901  1.0000
  O   O43       1.0  0.2875  0.54428  0.33099  1.0000
  O   O44       1.0  0.7125  0.54428  0.66901  1.0000
  O   O45       1.0  0.76561  0.29363  0.32386  1.0000
  O   O46       1.0  0.23439  0.29363  0.67614  1.0000
  O   O47       1.0  0.26561  0.7936299999999998  0.32386  1.0000
  O   O48       1.0  0.73439  0.7936299999999998  0.67614  1.0000
  O   O49       1.0  0.67014  0.41057  0.32908  1.0000
  O   O50       1.0  0.32986  0.41057  0.67092  1.0000
  O   O51       1.0  0.17014  0.9105699999999999  0.32908  1.0000
  O   O52       1.0  0.82986  0.9105699999999999  0.67092  1.0000
  N   N1        1.0  0.67272  0.73061  0.56095  1.0000
  H   H37       1.0  0.61906  0.73897  0.5485  1.0000
  H   H38       1.0  0.69187  0.65325  0.53516  1.0000
  N   N2        1.0  0.36866  0.8864  0.41599  1.0000
  H   H39       1.0  0.39899  0.96475  0.4243500000000001  1.0000
  H   H40       1.0  0.39826  0.81165  0.43317000000000005  1.0000
  N   N3        1.0  0.17272  0.23060999999999998  0.56095  1.0000
  H   H41       1.0  0.11906  0.23896999999999996  0.5485  1.0000
  H   H42       1.0  0.19187  0.15325  0.53516  1.0000
  N   N4        1.0  0.86866  0.38641  0.41598  1.0000
  H   H43       1.0  0.8989899999999998  0.46477  0.4243500000000001  1.0000
  H   H44       1.0  0.89826  0.31167  0.43317000000000005  1.0000
  N   N5        1.0  0.84593  0.1139  0.05505  1.0000
  H   H45       1.0  0.82186  0.18769  0.07909  1.0000
  H   H46       1.0  0.87934  0.15187  0.01647  1.0000
  N   N6        1.0  0.15416  0.11362  0.94491  1.0000
  H   H47       1.0  0.17823999999999998  0.18753  0.9209000000000002  1.0000
  H   H48       1.0  0.12074000000000001  0.15142  0.98348  1.0000
  N   N7        1.0  0.34593  0.6139  0.05505  1.0000
  H   H49       1.0  0.32186  0.68769  0.07909  1.0000
  H   H50       1.0  0.37934  0.65187  0.01647  1.0000
  N   N8        1.0  0.65416  0.61362  0.94491  1.0000
  H   H51       1.0  0.67824  0.68753  0.9209000000000002  1.0000
  H   H52       1.0  0.62074  0.65142  0.98348  1.0000
  O   O53       1.0  0.56202  0.9522999999999999  0.44297000000000003  1.0000
  H   H53       1.0  0.56139  0.8835699999999999  0.47661  1.0000
  O   O54       1.0  0.55648  0.97431  0.59127  1.0000
  H   H54       1.0  0.52471  0.90376  0.58292  1.0000
  O   O55       1.0  0.062020000000000006  0.4523  0.44297000000000003  1.0000
  H   H55       1.0  0.06139000000000001  0.38357  0.47661  1.0000
  O   O56       1.0  0.05647  0.47431  0.59127  1.0000
  H   H56       1.0  0.02471  0.40376  0.58292  1.0000
  O   O57       1.0  0.47449  0.38857  0.56565  1.0000
  H   H57       1.0  0.50388  0.40021  0.60858  1.0000
  O   O58       1.0  0.4707  0.36716999999999994  0.42461000000000004  1.0000
  H   H58       1.0  0.45089999999999997  0.33792  0.3791  1.0000
  O   O59       1.0  0.97449  0.88857  0.56565  1.0000
  H   H59       1.0  0.0038799999999999998  0.90021  0.60858  1.0000
  O   O60       1.0  0.9707  0.8671699999999999  0.42461000000000004  1.0000
  H   H60       1.0  0.9509099999999999  0.8379099999999999  0.3791  1.0000
