data_image0
_chemical_formula_structural       C92Cr12H52O52CH3CH3CH3CH3
_chemical_formula_sum              "C96 Cr12 H64 O52"
_cell_length_a       19.15015
_cell_length_b       10.90373
_cell_length_c       18.75831
_cell_angle_alpha    89.83413
_cell_angle_beta     88.86005000000002
_cell_angle_gamma    89.92172

_space_group_name_H-M_alt    "P 1"
_space_group_IT_number       1

loop_
  _space_group_symop_operation_xyz
  'x, y, z'

loop_
  _atom_site_type_symbol
  _atom_site_label
  _atom_site_symmetry_multiplicity
  _atom_site_fract_x
  _atom_site_fract_y
  _atom_site_fract_z
  _atom_site_occupancy
  C   C1        1.0  0.24088  0.46598999999999996  0.64743  1.0000
  C   C2        1.0  0.75938  0.46572  0.35264  1.0000
  C   C3        1.0  0.74088  0.96599  0.64743  1.0000
  C   C4        1.0  0.25938  0.96572  0.35264  1.0000
  C   C5        1.0  0.27647  0.81846  0.53191  1.0000
  C   C6        1.0  0.72815  0.81412  0.469  1.0000
  C   C7        1.0  0.77646  0.31846  0.53191  1.0000
  C   C8        1.0  0.22815  0.31412  0.469  1.0000
  C   C9        1.0  0.95774  0.65183  0.43938  1.0000
  C   C10       1.0  0.04113  0.65829  0.56119  1.0000
  C   C11       1.0  0.45773999999999987  0.15183  0.43938  1.0000
  C   C12       1.0  0.54113  0.15829  0.56119  1.0000
  C   C13       1.0  0.9292  0.8671800000000001  0.45983999999999997  1.0000
  C   C14       1.0  0.03379000000000001  0.88665  0.55734  1.0000
  C   C15       1.0  0.4292  0.36717  0.45983999999999997  1.0000
  C   C16       1.0  0.53379  0.38666  0.55734  1.0000
  C   C17       1.0  0.94127  0.97959  0.49183999999999994  1.0000
  C   C18       1.0  0.99566  0.99033  0.53894  1.0000
  C   C19       1.0  0.44127  0.47959000000000007  0.49183999999999994  1.0000
  C   C20       1.0  0.49566  0.49033  0.53894  1.0000
  C   C21       1.0  0.01591  0.76928  0.53152  1.0000
  C   C22       1.0  0.9688199999999999  0.76331  0.4751699999999999  1.0000
  C   C23       1.0  0.51591  0.26928  0.53152  1.0000
  C   C24       1.0  0.46882  0.26331  0.4751699999999999  1.0000
  C   C25       1.0  0.02906  0.54623  0.52525  1.0000
  C   C26       1.0  0.97975  0.54141  0.4716099999999999  1.0000
  C   C27       1.0  0.5290599999999999  0.04623000000000001  0.52525  1.0000
  C   C28       1.0  0.47975  0.04141  0.4716099999999999  1.0000
  C   C29       1.0  0.06409  0.43701  0.54286  1.0000
  C   C30       1.0  0.95532  0.42511000000000004  0.4501299999999999  1.0000
  C   C31       1.0  0.56409  0.9370100000000001  0.54286  1.0000
  C   C32       1.0  0.45531999999999995  0.92511  0.4501299999999999  1.0000
  C   C33       1.0  0.04497  0.32424  0.5149  1.0000
  C   C34       1.0  0.98861  0.3178  0.47024  1.0000
  C   C35       1.0  0.5449699999999998  0.82424  0.5149  1.0000
  C   C36       1.0  0.48861  0.8178000000000001  0.47024  1.0000
  C   C37       1.0  0.22408  0.85437  0.9343699999999999  1.0000
  C   C38       1.0  0.76278  0.89744  0.07143  1.0000
  C   C39       1.0  0.72408  0.35442  0.9343599999999999  1.0000
  C   C40       1.0  0.26278  0.39742000000000005  0.07142  1.0000
  C   C41       1.0  0.24233999999999997  0.88992  0.08785  1.0000
  C   C42       1.0  0.75078  0.8950399999999998  0.91556  1.0000
  C   C43       1.0  0.74235  0.38992  0.08785  1.0000
  C   C44       1.0  0.25079  0.39504000000000006  0.91556  1.0000
  C   C45       1.0  0.22702  0.87305  0.64688  1.0000
  C   C46       1.0  0.77219  0.87416  0.35251  1.0000
  C   C47       1.0  0.72702  0.37305  0.64688  1.0000
  C   C48       1.0  0.27219  0.37416000000000005  0.35251  1.0000
  C   C49       1.0  0.17936999999999997  0.8983500000000001  0.05527  1.0000
  C   C50       1.0  0.8124  0.8928500000000001  0.94904  1.0000
  C   C51       1.0  0.67939  0.39833  0.05527  1.0000
  C   C52       1.0  0.31241  0.3929  0.94903  1.0000
  C   C53       1.0  0.1713  0.85652  0.9816499999999999  1.0000
  C   C54       1.0  0.8136499999999999  0.8629  0.02513  1.0000
  C   C55       1.0  0.6713199999999999  0.35645  0.98166  1.0000
  C   C56       1.0  0.31369  0.36299  0.02513  1.0000
  C   C57       1.0  0.04066  0.65227  0.93268  1.0000
  C   C58       1.0  0.01641  0.66393  0.08642  1.0000
  C   C59       1.0  0.5406499999999999  0.15226  0.93268  1.0000
  C   C60       1.0  0.51641  0.16392  0.08642  1.0000
  C   C61       1.0  0.04173  0.56449  0.05296  1.0000
  C   C62       1.0  0.06511  0.56845  0.9782  1.0000
  C   C63       1.0  0.54173  0.06449  0.05296  1.0000
  C   C64       1.0  0.5651  0.06844  0.9782  1.0000
  C   C65       1.0  0.061669999999999996  0.65117  0.6368499999999999  1.0000
  C   C66       1.0  0.93784  0.64973  0.36317  1.0000
  C   C67       1.0  0.56167  0.15117  0.6368499999999999  1.0000
  C   C68       1.0  0.43784  0.14973  0.36317  1.0000
  C   C69       1.0  0.23904  0.4628999999999999  0.84979  1.0000
  C   C70       1.0  0.76008  0.46263  0.15055  1.0000
  C   C71       1.0  0.73904  0.96289  0.84979  1.0000
  C   C72       1.0  0.26008  0.96262  0.15056  1.0000
  C   C73       1.0  0.20945  0.82817  0.86072  1.0000
  C   C74       1.0  0.77414  0.8718  0.14599  1.0000
  C   C75       1.0  0.70945  0.32819  0.86072  1.0000
  C   C76       1.0  0.27414  0.37179  0.14598  1.0000
  C   C77       1.0  0.061369999999999994  0.64721  0.8584  1.0000
  C   C78       1.0  0.97316  0.65266  0.15048  1.0000
  C   C79       1.0  0.56136  0.14721  0.8584  1.0000
  C   C80       1.0  0.47315999999999997  0.15266  0.15048  1.0000
  C   C81       1.0  0.24725999999999998  0.90545  0.57427  1.0000
  C   C82       1.0  0.75127  0.90516  0.42527  1.0000
  C   C83       1.0  0.7472599999999999  0.40544  0.57427  1.0000
  C   C84       1.0  0.25127  0.40515  0.42527  1.0000
  C   C85       1.0  0.24058  0.9063099999999998  0.41963  1.0000
  C   C86       1.0  0.7606199999999999  0.90938  0.57999  1.0000
  C   C87       1.0  0.74058  0.40631000000000006  0.41963  1.0000
  C   C88       1.0  0.26062  0.4093800000000001  0.57999  1.0000
  C   C89       1.0  0.28434  0.83421  0.45464999999999994  1.0000
  C   C90       1.0  0.72107  0.829  0.54655  1.0000
  C   C91       1.0  0.7843399999999999  0.33421  0.45464999999999994  1.0000
  C   C92       1.0  0.22106999999999996  0.329  0.54655  1.0000
  Cr  Cr1       1.0  0.11397  0.50863  0.74792  1.0000
  Cr  Cr2       1.0  0.88603  0.50863  0.25208  1.0000
  Cr  Cr3       1.0  0.61397  0.00863  0.74792  1.0000
  Cr  Cr4       1.0  0.38603  0.00863  0.25208  1.0000
  Cr  Cr5       1.0  0.2692  0.66674  0.74985  1.0000
  Cr  Cr6       1.0  0.7308  0.66674  0.25015  1.0000
  Cr  Cr7       1.0  0.7691999999999999  0.16674  0.74985  1.0000
  Cr  Cr8       1.0  0.23079999999999998  0.16674  0.25015  1.0000
  Cr  Cr9       1.0  0.1123  0.8200699999999999  0.7498  1.0000
  Cr  Cr10      1.0  0.8877  0.8200699999999999  0.2502  1.0000
  Cr  Cr11      1.0  0.6123  0.32007  0.7498  1.0000
  Cr  Cr12      1.0  0.3877  0.32007  0.2502  1.0000
  H   H1        1.0  0.32683  0.78767  0.42694000000000004  1.0000
  H   H2        1.0  0.6815699999999999  0.77721  0.57579  1.0000
  H   H3        1.0  0.82683  0.28767  0.42694000000000004  1.0000
  H   H4        1.0  0.18157  0.27721  0.57579  1.0000
  H   H5        1.0  0.11876999999999999  0.84259  0.9628700000000001  1.0000
  H   H6        1.0  0.8610999999999999  0.82096  0.04501  1.0000
  H   H7        1.0  0.61879  0.3424  0.9628999999999999  1.0000
  H   H8        1.0  0.36118  0.32119  0.04502  1.0000
  H   H9        1.0  0.28440999999999994  0.8360800000000002  0.06415  1.0000
  H   H10       1.0  0.70459  0.85717  0.94202  1.0000
  H   H11       1.0  0.78442  0.33609  0.06414  1.0000
  H   H12       1.0  0.20461  0.35713  0.94202  1.0000
  H   H13       1.0  0.27765  0.8720700000000001  0.94902  1.0000
  H   H14       1.0  0.7143999999999999  0.9398299999999999  0.05484  1.0000
  H   H15       1.0  0.77765  0.37227000000000005  0.949  1.0000
  H   H16       1.0  0.21434  0.43963  0.05482  1.0000
  H   H17       1.0  0.04052  0.47521  0.07881  1.0000
  H   H18       1.0  0.09840000000000002  0.4945  0.95878  1.0000
  H   H19       1.0  0.54051  0.9752  0.07881  1.0000
  H   H20       1.0  0.5983999999999999  0.9945  0.95878  1.0000
  H   H21       1.0  0.02088  0.75408  0.0627  1.0000
  H   H22       1.0  0.005489999999999998  0.72498  0.94951  1.0000
  H   H23       1.0  0.52087  0.25407  0.0627  1.0000
  H   H24       1.0  0.50547  0.22495999999999997  0.94951  1.0000
  H   H25       1.0  0.29443  0.73196  0.55392  1.0000
  H   H26       1.0  0.7148299999999999  0.72469  0.44781999999999994  1.0000
  H   H27       1.0  0.79443  0.23196  0.55392  1.0000
  H   H28       1.0  0.21482999999999997  0.2247  0.44781999999999994  1.0000
  H   H29       1.0  0.19257  0.93769  0.44566  1.0000
  H   H30       1.0  0.806  0.94811  0.55269  1.0000
  H   H31       1.0  0.69257  0.43769  0.44566  1.0000
  H   H32       1.0  0.30599999999999994  0.44811000000000006  0.55269  1.0000
  H   H33       1.0  0.22958999999999996  0.99269  0.55315  1.0000
  H   H34       1.0  0.7647399999999999  0.9951300000000001  0.4454  1.0000
  H   H35       1.0  0.72959  0.49268999999999996  0.55315  1.0000
  H   H36       1.0  0.26474  0.49513  0.4454  1.0000
  H   H37       1.0  0.90792  0.057120000000000004  0.4806  1.0000
  H   H38       1.0  0.0066500000000000005  0.07744  0.56344  1.0000
  H   H39       1.0  0.40792  0.55712  0.4806  1.0000
  H   H40       1.0  0.50665  0.57744  0.56344  1.0000
  H   H41       1.0  0.8848499999999999  0.85654  0.42852999999999997  1.0000
  H   H42       1.0  0.0769  0.9001500000000001  0.5915  1.0000
  H   H43       1.0  0.3848499999999999  0.35654  0.42852999999999997  1.0000
  H   H44       1.0  0.5769  0.40015  0.5915  1.0000
  H   H45       1.0  0.9119199999999998  0.41701  0.41547  1.0000
  H   H46       1.0  0.1065  0.43951  0.57825  1.0000
  H   H47       1.0  0.41192  0.9170100000000001  0.41547  1.0000
  H   H48       1.0  0.6065  0.9395100000000001  0.57825  1.0000
  H   H49       1.0  0.07306  0.24196999999999996  0.52878  1.0000
  H   H50       1.0  0.972  0.23074  0.44929  1.0000
  H   H51       1.0  0.57306  0.74197  0.52878  1.0000
  H   H52       1.0  0.472  0.73074  0.44929  1.0000
  O   O1        1.0  0.04323  0.5493  0.66799  1.0000
  O   O2        1.0  0.95677  0.5493  0.33201  1.0000
  O   O3        1.0  0.5432299999999999  0.04929999999999999  0.66799  1.0000
  O   O4        1.0  0.45677  0.04929999999999999  0.33201  1.0000
  O   O5        1.0  0.26292  0.7886000000000001  0.82442  1.0000
  O   O6        1.0  0.73708  0.7886000000000001  0.17558  1.0000
  O   O7        1.0  0.76292  0.2886  0.82442  1.0000
  O   O8        1.0  0.23707999999999999  0.2886  0.17558  1.0000
  O   O9        1.0  0.16752999999999998  0.90511  0.83034  1.0000
  O   O10       1.0  0.8324700000000002  0.90511  0.16966  1.0000
  O   O11       1.0  0.6675299999999998  0.40510999999999997  0.83034  1.0000
  O   O12       1.0  0.33247  0.40510999999999997  0.16966  1.0000
  O   O13       1.0  0.05401  0.74844  0.82286  1.0000
  O   O14       1.0  0.94599  0.74844  0.17714  1.0000
  O   O15       1.0  0.55401  0.24844  0.82286  1.0000
  O   O16       1.0  0.44598999999999994  0.24844  0.17714  1.0000
  O   O17       1.0  0.16516  0.66515  0.74919  1.0000
  O   O18       1.0  0.8348399999999999  0.66515  0.25081  1.0000
  O   O19       1.0  0.66516  0.16515  0.74919  1.0000
  O   O20       1.0  0.33483999999999997  0.16515  0.25081  1.0000
  O   O21       1.0  0.17862  0.4576  0.6741  1.0000
  O   O22       1.0  0.82138  0.4576  0.3259  1.0000
  O   O23       1.0  0.6786199999999999  0.9576  0.6741  1.0000
  O   O24       1.0  0.32138  0.9576  0.3259  1.0000
  O   O25       1.0  0.28468  0.5421  0.66946  1.0000
  O   O26       1.0  0.71532  0.5421  0.33054  1.0000
  O   O27       1.0  0.78468  0.0421  0.66946  1.0000
  O   O28       1.0  0.21532  0.0421  0.33054  1.0000
  O   O29       1.0  0.26286  0.79039  0.67665  1.0000
  O   O30       1.0  0.7371399999999999  0.79039  0.32335  1.0000
  O   O31       1.0  0.76286  0.29039  0.67665  1.0000
  O   O32       1.0  0.23713999999999996  0.29039  0.32335  1.0000
  O   O33       1.0  0.16746  0.9070300000000001  0.67094  1.0000
  O   O34       1.0  0.83254  0.9070300000000001  0.32906  1.0000
  O   O35       1.0  0.66746  0.40702999999999995  0.67094  1.0000
  O   O36       1.0  0.33254  0.40702999999999995  0.32906  1.0000
  O   O37       1.0  0.05395  0.7502199999999999  0.6751  1.0000
  O   O38       1.0  0.94605  0.7502199999999999  0.3249  1.0000
  O   O39       1.0  0.5539499999999999  0.25022  0.6751  1.0000
  O   O40       1.0  0.44604999999999995  0.25022  0.3249  1.0000
  O   O41       1.0  0.0433  0.54737  0.82739  1.0000
  O   O42       1.0  0.9567  0.54737  0.17261  1.0000
  O   O43       1.0  0.5433  0.04737000000000001  0.82739  1.0000
  O   O44       1.0  0.4567  0.04737000000000001  0.17261  1.0000
  O   O45       1.0  0.17868999999999996  0.45582  0.82186  1.0000
  O   O46       1.0  0.82131  0.45582  0.17814  1.0000
  O   O47       1.0  0.6786899999999999  0.9558199999999999  0.82186  1.0000
  O   O48       1.0  0.32131  0.9558199999999999  0.17814  1.0000
  O   O49       1.0  0.28475  0.54017  0.82886  1.0000
  O   O50       1.0  0.71525  0.54017  0.17114  1.0000
  O   O51       1.0  0.78475  0.04017  0.82886  1.0000
  O   O52       1.0  0.21525  0.04017  0.17114  1.0000
  C   C93       1.0  0.11503  0.95851  0.08847  1.0000
  H   H53       1.0  0.06803  0.9447800000000001  0.05586  1.0000
  H   H54       1.0  0.10374999999999998  0.91921  0.14217  1.0000
  H   H55       1.0  0.12188999999999998  0.05940999999999999  0.0912  1.0000
  C   C94       1.0  0.8814299999999999  0.92332  0.9126499999999999  1.0000
  H   H56       1.0  0.9259499999999999  0.89538  0.94603  1.0000
  H   H57       1.0  0.8865  0.87408  0.8610399999999999  1.0000
  H   H58       1.0  0.8861999999999999  0.023710000000000002  0.9041499999999999  1.0000
  C   C95       1.0  0.61504  0.4585  0.08846  1.0000
  H   H59       1.0  0.56804  0.44477  0.05582999999999999  1.0000
  H   H60       1.0  0.60375  0.4192  0.14215  1.0000
  H   H61       1.0  0.6219  0.5594  0.09119  1.0000
  C   C96       1.0  0.38143  0.42346  0.91263  1.0000
  H   H62       1.0  0.42597  0.39529  0.94594  1.0000
  H   H63       1.0  0.3864399999999999  0.37449  0.86093  1.0000
  H   H64       1.0  0.3862  0.52391  0.90431  1.0000
