data_image0
_chemical_formula_structural       C42Cr6H21N3O26
_chemical_formula_sum              "C42 Cr6 H21 N3 O26"
_cell_length_a       10.68037
_cell_length_b       10.69465
_cell_length_c       17.03647
_cell_angle_alpha    80.52789999999999
_cell_angle_beta     99.45611
_cell_angle_gamma    118.75646999999998

_space_group_name_H-M_alt    "P 1"
_space_group_IT_number       1

loop_
  _space_group_symop_operation_xyz
  'x, y, z'

loop_
  _atom_site_type_symbol
  _atom_site_label
  _atom_site_symmetry_multiplicity
  _atom_site_fract_x
  _atom_site_fract_y
  _atom_site_fract_z
  _atom_site_occupancy
  C   C1        1.0  0.38428  0.28377  0.63197  1.0000
  C   C2        1.0  0.33322999999999997  0.18667000000000003  0.7815399999999998  1.0000
  C   C3        1.0  0.33625  0.66339  0.27762  1.0000
  C   C4        1.0  0.41478999999999994  0.62073  0.6017699999999999  1.0000
  C   C5        1.0  0.32377999999999996  0.67254  0.20686  1.0000
  C   C6        1.0  0.8572499999999998  0.68059  0.16471  1.0000
  C   C7        1.0  0.92178  0.61619  0.22353  1.0000
  C   C8        1.0  0.91131  0.61089  0.30288  1.0000
  C   C9        1.0  0.7956499999999999  0.7617899999999997  0.26936  1.0000
  C   C10       1.0  0.8014299999999999  0.76295  0.1877  1.0000
  C   C11       1.0  0.91  0.46987  0.23191  1.0000
  C   C12       1.0  0.5141199999999998  0.7346999999999998  0.73079  1.0000
  C   C13       1.0  0.898  0.46315  0.31996  1.0000
  C   C14       1.0  0.83782  0.67363  0.32646  1.0000
  C   C15       1.0  0.33883  0.18566999999999997  0.15455  1.0000
  C   C16       1.0  0.72178  0.58788  0.6333199999999998  1.0000
  C   C17       1.0  0.26327  0.24677999999999994  0.17862  1.0000
  C   C18       1.0  0.26816999999999996  0.25744  0.2580099999999999  1.0000
  C   C19       1.0  0.44703  0.17687999999999998  0.29084  1.0000
  C   C20       1.0  0.44338  0.16614000000000004  0.20988999999999994  1.0000
  C   C21       1.0  0.10867999999999998  0.21507  0.16462999999999997  1.0000
  C   C22       1.0  0.11588999999999999  0.2274  0.25266  1.0000
  C   C23       1.0  0.49072999999999983  0.7464299999999998  0.8069899999999998  1.0000
  C   C24       1.0  0.34735  0.20845999999999998  0.31583  1.0000
  C   C25       1.0  0.8853399999999999  0.69881  0.85722  1.0000
  C   C26       1.0  0.31643999999999983  0.7058399999999999  0.8986999999999998  1.0000
  C   C27       1.0  0.2864  0.1185  0.85839  1.0000
  C   C28       1.0  0.35431  0.23279  0.39724  1.0000
  C   C29       1.0  0.88826  0.69172  0.08429  1.0000
  C   C30       1.0  0.3132399999999999  0.7002799999999999  0.12373  1.0000
  C   C31       1.0  0.288  0.11178999999999999  0.08337  1.0000
  C   C32       1.0  0.3653799999999999  0.65407  0.3607  1.0000
  C   C33       1.0  0.77383  0.62427  0.40066  1.0000
  C   C34       1.0  0.10848999999999995  0.44465999999999994  0.78285  1.0000
  C   C35       1.0  0.35806  0.65476  0.8379099999999998  1.0000
  C   C36       1.0  0.26753000000000005  0.52985  0.80082  1.0000
  C   C37       1.0  0.2935299999999999  0.51224  0.72754  1.0000
  C   C38       1.0  0.13756999999999997  0.42408999999999997  0.7023  1.0000
  C   C39       1.0  0.40671999999999997  0.62213  0.68668  1.0000
  C   C40       1.0  0.77426  0.6301799999999999  0.71225  1.0000
  C   C41       1.0  0.8201000000000002  0.66869  0.77808  1.0000
  C   C42       1.0  0.3646  0.23326999999999998  0.71436  1.0000
  Cr  Cr1       1.0  0.6084400000000001  0.38908000000000004  0.5196799999999999  1.0000
  Cr  Cr2       1.0  0.28863999999999995  0.40009  0.49076  1.0000
  Cr  Cr3       1.0  0.60294  0.7108  0.48950999999999995  1.0000
  Cr  Cr4       1.0  0.05252999999999991  0.94756  0.96421  1.0000
  Cr  Cr5       1.0  0.059969999999999996  0.6268  0.99292  1.0000
  Cr  Cr6       1.0  0.37332  0.9384399999999999  0.9953699999999999  1.0000
  H   H1        1.0  0.8102799999999999  0.39185  0.19955  1.0000
  H   H2        1.0  0.57018  0.83921  0.83669  1.0000
  H   H3        1.0  0.06030999999999998  0.34423999999999993  0.82342  1.0000
  H   H4        1.0  0.10994999999999998  0.31124  0.69718  1.0000
  H   H5        1.0  0.09742000000000003  0.4761  0.64963  1.0000
  H   H6        1.0  0.7422999999999997  0.8157699999999998  0.28675999999999996  1.0000
  H   H7        1.0  0.010639999999999941  0.47388  0.21954  1.0000
  H   H8        1.0  0.7288  0.86614  0.7361  1.0000
  H   H9        1.0  0.6276599999999999  0.9411  0.6876699999999998  1.0000
  H   H10       1.0  0.9286199999999999  0.46837000000000006  0.75041  1.0000
  H   H11       1.0  0.08095000000000004  0.62216  0.73521  1.0000
  H   H12       1.0  0.7912699999999999  0.37927000000000005  0.33761  1.0000
  H   H13       1.0  0.81758  0.92715  0.10452999999999998  1.0000
  H   H14       1.0  0.6751800000000001  0.8627100000000004  0.15588999999999995  1.0000
  H   H15       1.0  0.99157  0.46152999999999994  0.3589699999999999  1.0000
  H   H16       1.0  0.52172  0.15345000000000003  0.33374  1.0000
  H   H17       1.0  0.51026  0.12663  0.19274  1.0000
  H   H18       1.0  0.034109999999999994  0.10471  0.14911  1.0000
  H   H19       1.0  0.09349  0.30151  0.12519  1.0000
  H   H20       1.0  0.10728000000000004  0.32155000000000006  0.26476  1.0000
  H   H21       1.0  0.04764999999999998  0.12434  0.28671  1.0000
  N   N1        1.0  0.63837  0.84752  0.69559  1.0000
  N   N2        1.0  0.03337  0.5304400000000001  0.7750799999999998  1.0000
  N   N3        1.0  0.7360799999999998  0.83237  0.1288  1.0000
  O   O1        1.0  0.75402  0.4975899999999999  0.60993  1.0000
  O   O2        1.0  0.4061800000000001  0.8269299999999999  0.92066  1.0000
  O   O3        1.0  0.35861999999999994  0.06286999999999998  0.90195  1.0000
  O   O4        1.0  0.48141999999999996  0.27138999999999996  0.6006299999999999  1.0000
  O   O5        1.0  0.16391  0.08546  0.05021  1.0000
  O   O6        1.0  0.9352  0.81517  0.04577  1.0000
  O   O7        1.0  0.9161199999999999  0.59669  0.06943  1.0000
  O   O8        1.0  0.19230999999999995  0.6311999999999999  0.08617  1.0000
  O   O9        1.0  0.40676999999999985  0.8194799999999998  0.09642  1.0000
  O   O10       1.0  0.35917  0.05596  0.06488  1.0000
  O   O11       1.0  0.16194  0.8375999999999999  0.98416  1.0000
  O   O12       1.0  0.29507999999999995  0.53362  0.39789  1.0000
  O   O13       1.0  0.26381  0.25455  0.58959  1.0000
  O   O14       1.0  0.30082  0.5311999999999999  0.56089  1.0000
  O   O15       1.0  0.4914799999999999  0.74402  0.5642699999999999  1.0000
  O   O16       1.0  0.72629  0.6938  0.58301  1.0000
  O   O17       1.0  0.74783  0.50019  0.43408999999999986  1.0000
  O   O18       1.0  0.47567999999999994  0.2738  0.4376299999999999  1.0000
  O   O19       1.0  0.25762  0.25716  0.41374999999999995  1.0000
  O   O20       1.0  0.48528  0.74662  0.38844  1.0000
  O   O21       1.0  0.7205499999999999  0.69622  0.42001  1.0000
  O   O22       1.0  0.50001  0.49999  0.49998  1.0000
  O   O23       1.0  0.16331999999999994  0.09289999999999998  0.87445  1.0000
  O   O24       1.0  0.9346500000000001  0.8220800000000001  0.88284  1.0000
  O   O25       1.0  0.9155200000000001  0.60414  0.89367  1.0000
  O   O26       1.0  0.19176000000000012  0.6381100000000001  0.92323  1.0000
