data_image0
_chemical_formula_structural       O3CO2CO2VOCOCVOCH3C13H4C2H2C2H2C2H2C2H2CH3C13H5O3CO2CO2VOCOCVOCN
_chemical_formula_sum              "O20 C45 V4 H23 N1"
_cell_length_a       6.95017
_cell_length_b       13.662520000000002
_cell_length_c       20.449920000000002
_cell_angle_alpha    102.35641000000001
_cell_angle_beta     90.09213
_cell_angle_gamma    90.65771999999998

_space_group_name_H-M_alt    "P 1"
_space_group_IT_number       1

loop_
  _space_group_symop_operation_xyz
  'x, y, z'

loop_
  _atom_site_type_symbol
  _atom_site_label
  _atom_site_symmetry_multiplicity
  _atom_site_fract_x
  _atom_site_fract_y
  _atom_site_fract_z
  _atom_site_occupancy
  O   O1        1.0  0.50686  0.59939  0.4492400000000001  1.0000
  O   O2        1.0  0.18022  0.5946  0.5867800000000001  1.0000
  O   O3        1.0  0.004499999999999995  0.40061  0.55076  1.0000
  C   C1        1.0  0.34918  0.61457  0.6139200000000001  1.0000
  O   O4        1.0  0.17749  0.61129  0.45197000000000004  1.0000
  O   O5        1.0  0.0017500000000000003  0.41742  0.41499  1.0000
  C   C2        1.0  0.34668  0.63733  0.43479  1.0000
  O   O6        1.0  0.50961  0.58258  0.58501  1.0000
  O   O7        1.0  0.33742  0.43637  0.48802  1.0000
  V   V1        1.0  0.06468  0.5118  0.50222  1.0000
  O   O8        1.0  0.6717099999999998  0.40540000000000004  0.41322000000000003  1.0000
  C   C3        1.0  0.83963  0.38406  0.38654000000000005  1.0000
  O   O9        1.0  0.67444  0.38871  0.54803  1.0000
  C   C4        1.0  0.84271  0.36214  0.56436  1.0000
  V   V2        1.0  0.56401  0.4881999999999999  0.49778000000000006  1.0000
  O   O10       1.0  0.84114  0.5636299999999999  0.5119800000000001  1.0000
  C   C5        1.0  0.8488899999999999  0.11008999999999997  0.60753  1.0000
  H   H1        1.0  0.84145  0.16284  0.51614  1.0000
  H   H2        1.0  0.8522299999999999  0.9828599999999997  0.6862000000000003  1.0000
  H   H3        1.0  0.84654  0.03219999999999999  0.58134  1.0000
  C   C6        1.0  0.84954  0.28445  0.60292  1.0000
  C   C7        1.0  0.8654  0.31034  0.9251400000000001  1.0000
  C   C8        1.0  0.86306  0.38598  0.88977  1.0000
  C   C9        1.0  0.85983  0.363  0.82029  1.0000
  C   C10       1.0  0.85849  0.26232  0.78365  1.0000
  C   C11       1.0  0.85962  0.18333000000000005  0.8199600000000002  1.0000
  C   C12       1.0  0.8558099999999998  0.23818999999999999  0.71204  1.0000
  C   C13       1.0  0.85331  0.13628000000000004  0.6777800000000002  1.0000
  C   C14       1.0  0.85434  0.06052000000000004  0.7133200000000001  1.0000
  C   C15       1.0  0.8572899999999999  0.08196000000000007  0.7828700000000002  1.0000
  C   C16       1.0  0.85488  0.31173  0.67274  1.0000
  C   C17       1.0  0.8462500000000001  0.18394000000000002  0.5703000000000001  1.0000
  C   C18       1.0  0.86362  0.20989000000000008  0.8916400000000002  1.0000
  H   H4        1.0  0.85683  0.39087  0.6942600000000001  1.0000
  H   H5        1.0  0.86889  0.33033  0.9793800000000003  1.0000
  H   H6        1.0  0.85839  0.42655  0.79705  1.0000
  H   H7        1.0  0.8642699999999999  0.46351  0.91649  1.0000
  C   C19       1.0  0.005040000000000001  0.28922  0.28505000000000014  1.0000
  C   C20       1.0  0.84195  0.31558  0.31977  1.0000
  H   H8        1.0  0.14197  0.31835  0.30702  1.0000
  H   H9        1.0  0.7035199999999999  0.28692  0.29950000000000004  1.0000
  C   C21       1.0  0.013739999999999999  0.22103  0.21747  1.0000
  C   C22       1.0  0.85884  0.18338  0.18031  1.0000
  H   H10       1.0  0.15654  0.20204  0.1976  1.0000
  H   H11       1.0  0.7148  0.20172  0.19859  1.0000
  C   C23       1.0  0.20876  0.76867  0.7896  1.0000
  C   C24       1.0  0.3637599999999999  0.82024  0.8183400000000002  1.0000
  H   H12       1.0  0.07613999999999999  0.77208  0.8177600000000003  1.0000
  H   H13       1.0  0.49872999999999995  0.81613  0.79158  1.0000
  C   C25       1.0  0.20505000000000004  0.70627  0.72016  1.0000
  C   C26       1.0  0.36196999999999996  0.67919  0.6819  1.0000
  H   H14       1.0  0.06416  0.67944  0.70069  1.0000
  H   H15       1.0  0.50508  0.70096  0.7010500000000002  1.0000
  C   C27       1.0  0.38609  0.88767  0.38764000000000004  1.0000
  H   H16       1.0  0.38259  0.8373699999999997  0.48008000000000006  1.0000
  H   H17       1.0  0.40268  0.01303  0.30521  1.0000
  H   H18       1.0  0.40052  0.96569  0.41292000000000006  1.0000
  C   C28       1.0  0.3572  0.71402  0.39472000000000007  1.0000
  C   C29       1.0  0.33741  0.68558  0.07127  1.0000
  C   C30       1.0  0.32619  0.60952  0.10663000000000002  1.0000
  C   C31       1.0  0.33302  0.6318  0.17636  1.0000
  C   C32       1.0  0.35151  0.73205  0.21291  1.0000
  C   C33       1.0  0.36292  0.80981  0.1762  1.0000
  C   C34       1.0  0.35907  0.75772  0.2845  1.0000
  C   C35       1.0  0.37789  0.8602299999999998  0.31745  1.0000
  C   C36       1.0  0.38849  0.9347999999999999  0.28033  1.0000
  C   C37       1.0  0.38113  0.91021  0.21091000000000001  1.0000
  C   C38       1.0  0.34876  0.6854399999999998  0.32481  1.0000
  C   C39       1.0  0.37592  0.8149599999999999  0.42599000000000004  1.0000
  C   C40       1.0  0.35573  0.78545  0.10523000000000002  1.0000
  H   H19       1.0  0.33434  0.6063699999999999  0.30374  1.0000
  H   H20       1.0  0.33171  0.6665299999999998  0.01706  1.0000
  H   H21       1.0  0.3234  0.56863  0.19995000000000004  1.0000
  H   H22       1.0  0.31199  0.53237  0.07974  1.0000
  H   H23       1.0  0.3899799999999999  0.97099  0.18461  1.0000
  O   O11       1.0  0.20323  0.9173099999999998  0.9150200000000001  1.0000
  O   O12       1.0  0.5355  0.8886900000000001  0.048040000000000006  1.0000
  O   O13       1.0  0.71108  0.08261  0.085  1.0000
  C   C41       1.0  0.36636  0.8628  0.06535000000000002  1.0000
  O   O14       1.0  0.53263  0.9053699999999999  0.91323  1.0000
  O   O15       1.0  0.70819  0.09940999999999997  0.94923  1.0000
  C   C42       1.0  0.36426  0.88415  0.8865500000000001  1.0000
  O   O16       1.0  0.20612  0.90051  0.05079000000000001  1.0000
  O   O17       1.0  0.37536  0.06357  0.01199  1.0000
  V   V3        1.0  0.64817  0.9882  0.99778  1.0000
  O   O18       1.0  0.03824  0.11139000000000002  0.95194  1.0000
  C   C43       1.0  0.87015  0.13616000000000003  0.9339500000000001  1.0000
  O   O19       1.0  0.04112  0.09471  0.08675000000000001  1.0000
  C   C44       1.0  0.8726699999999998  0.11574  0.11350000000000003  1.0000
  V   V4        1.0  0.14881  0.01193  0.00218  1.0000
  O   O20       1.0  0.87175  0.93643  0.98801  1.0000
  C   C45       1.0  0.8559299999999997  0.99522  0.8123400000000002  1.0000
  N   N1        1.0  0.85441  0.92456  0.8348600000000002  1.0000
