data_image0
_chemical_formula_structural       O2CO2CO2CO2CO2CO2CCr3OCH2CH4C3H2C3H2C4H3C4H4C4H3C4H3C4H3O2CO2CO2CO2CO2CO2CCr3OClNO2NO2Cl2NO2
_chemical_formula_sum              "O32 C40 Cr6 H26 Cl3 N3"
_cell_length_a       10.96497
_cell_length_b       10.919020000000002
_cell_length_c       18.592810000000004
_cell_angle_alpha    90.5401
_cell_angle_beta     90.08715
_cell_angle_gamma    60.264010000000006

_symmetry_space_group_name_H-M    'P 1'
_symmetry_Int_Tables_number       1

loop_
  _symmetry_equiv_pos_as_xyz
  'x,y,z'

loop_
  _atom_site_type_symbol
  _atom_site_label
  _atom_site_symmetry_multiplicity
  _atom_site_fract_x
  _atom_site_fract_y
  _atom_site_fract_z
  _atom_site_occupancy
  O   O1        1.0  0.50711  0.25628  0.5803  1.0000
  O   O2        1.0  0.28082999999999997  0.5271900000000002  0.57794  1.0000
  C   C1        1.0  0.23156  0.64747  0.6075600000000001  1.0000
  O   O3        1.0  0.26136  0.73899  0.5842700000000001  1.0000
  O   O4        1.0  0.5325899999999999  0.69478  0.57437  1.0000
  C   C2        1.0  0.6579600000000001  0.62714  0.59871  1.0000
  O   O5        1.0  0.74447  0.50375  0.577  1.0000
  O   O6        1.0  0.69852  0.27723  0.57162  1.0000
  C   C3        1.0  0.62915  0.22648000000000001  0.60148  1.0000
  O   O7        1.0  0.4985299999999999  0.25692  0.41928  1.0000
  O   O8        1.0  0.27288  0.52778  0.42868  1.0000
  C   C4        1.0  0.21214999999999998  0.65431  0.40566000000000013  1.0000
  O   O9        1.0  0.25278  0.73963  0.42325  1.0000
  O   O10       1.0  0.52464  0.69537  0.4251  1.0000
  C   C5        1.0  0.63986  0.61795  0.39115  1.0000
  O   O11       1.0  0.73589  0.50439  0.41598  1.0000
  O   O12       1.0  0.69056  0.27782  0.42235  1.0000
  C   C6        1.0  0.57788  0.29719  0.38822  1.0000
  Cr  Cr1       1.0  0.39301  0.39805  0.50148  1.0000
  Cr  Cr2       1.0  0.3988200000000001  0.7079800000000002  0.5016300000000001  1.0000
  Cr  Cr3       1.0  0.70814  0.39394  0.49685  1.0000
  O   O13       1.0  0.49999  0.49998999999999993  0.49998  1.0000
  C   C7        1.0  0.64153  0.84064  0.76972  1.0000
  H   H1        1.0  0.70031  0.89936  0.76885  1.0000
  H   H2        1.0  0.5421699999999999  0.9066500000000001  0.79994  1.0000
  C   C8        1.0  0.604  0.81972  0.69187  1.0000
  H   H3        1.0  0.48887999999999987  0.86465  0.68684  1.0000
  H   H4        1.0  0.63327  0.8792200000000001  0.65396  1.0000
  H   H5        1.0  0.9351499999999997  0.6678500000000002  0.77154  1.0000
  H   H6        1.0  0.87069  0.68363  0.65371  1.0000
  C   C9        1.0  0.8745  0.61247  0.76367  1.0000
  C   C10       1.0  0.6527799999999998  0.6128900000000002  0.80341  1.0000
  C   C11       1.0  0.73339  0.69477  0.8067900000000001  1.0000
  H   H7        1.0  0.7044799999999999  0.51439  0.83545  1.0000
  H   H8        1.0  0.5464600000000001  0.67875  0.82747  1.0000
  C   C12       1.0  0.6849  0.66031  0.6723900000000003  1.0000
  C   C13       1.0  0.8434499999999998  0.61159  0.68271  1.0000
  C   C14       1.0  0.6447300000000001  0.57443  0.7251600000000002  1.0000
  H   H9        1.0  0.7235199999999999  0.46066999999999997  0.71768  1.0000
  H   H10       1.0  0.91247  0.50496  0.65926  1.0000
  C   C15       1.0  0.6778  0.15809  0.6710000000000002  1.0000
  C   C16       1.0  0.6865300000000001  0.17249  0.8285600000000002  1.0000
  C   C17       1.0  0.79638  0.14877  0.78602  1.0000
  C   C18       1.0  0.77493  0.1737  0.7080500000000001  1.0000
  H   H11       1.0  0.83735  0.21234  0.68158  1.0000
  H   H12       1.0  0.58168  0.22051  0.80576  1.0000
  H   H13       1.0  0.6184  0.11498  0.69635  1.0000
  C   C19       1.0  0.17149000000000003  0.6649  0.67979  1.0000
  C   C20       1.0  0.19208  0.66638  0.8384  1.0000
  C   C21       1.0  0.20186999999999983  0.5574500000000001  0.8004400000000003  1.0000
  C   C22       1.0  0.21408  0.55007  0.72151  1.0000
  H   H14       1.0  0.19433999999999993  0.47407000000000005  0.82754  1.0000
  H   H15       1.0  0.26700999999999997  0.44483  0.69788  1.0000
  H   H16       1.0  0.21240999999999996  0.7436  0.8132200000000002  1.0000
  H   H17       1.0  0.11536000000000002  0.77049  0.70272  1.0000
  C   C23       1.0  0.6437099999999999  0.6386000000000001  0.31415000000000004  1.0000
  C   C24       1.0  0.6311200000000001  0.66159  0.15659  1.0000
  C   C25       1.0  0.70877  0.54048  0.19087  1.0000
  C   C26       1.0  0.73125  0.5328  0.26869  1.0000
  H   H18       1.0  0.78665  0.44938  0.16057000000000002  1.0000
  H   H19       1.0  0.5461300000000001  0.75372  0.18226000000000006  1.0000
  H   H20       1.0  0.5535299999999999  0.73268  0.29424  1.0000
  C   C27       1.0  0.59501  0.26651  0.31211  1.0000
  C   C28       1.0  0.62975  0.21479  0.15953  1.0000
  C   C29       1.0  0.50907  0.25167  0.19335  1.0000
  C   C30       1.0  0.48589  0.29672  0.26815  1.0000
  H   H21       1.0  0.43083999999999995  0.23084  0.16904  1.0000
  H   H22       1.0  0.70561  0.24264000000000002  0.18001  1.0000
  H   H23       1.0  0.70191  0.21206999999999998  0.29245  1.0000
  C   C31       1.0  0.10008999999999996  0.70104  0.35247000000000006  1.0000
  C   C32       1.0  0.04623999999999997  0.72524  0.19571  1.0000
  C   C33       1.0  0.005710000000000027  0.83493  0.24078  1.0000
  C   C34       1.0  0.07097  0.81295  0.3114  1.0000
  H   H24       1.0  0.9506699999999999  0.94193  0.22029000000000004  1.0000
  H   H25       1.0  0.11864999999999995  0.87771  0.32259000000000004  1.0000
  H   H26       1.0  0.10776000000000002  0.61726  0.21406  1.0000
  O   O14       1.0  0.08919  0.82587  0.93232  1.0000
  O   O15       1.0  0.8190699999999999  0.05396  0.9314400000000002  1.0000
  C   C35       1.0  0.70291  0.10345  0.8978300000000001  1.0000
  O   O16       1.0  0.60707  0.07644  0.91646  1.0000
  O   O17       1.0  0.64711  0.80655  0.9176900000000001  1.0000
  C   C36       1.0  0.7586999999999998  0.71275  0.8833300000000001  1.0000
  O   O18       1.0  0.83708  0.59386  0.9153  1.0000
  O   O19       1.0  0.06476999999999997  0.63608  0.9325500000000001  1.0000
  C   C37       1.0  0.1200499999999999  0.7058500000000001  0.90766  1.0000
  O   O20       1.0  0.06825000000000005  0.8292  0.09294  1.0000
  O   O21       1.0  0.7996499999999997  0.05704  0.08033  1.0000
  C   C38       1.0  0.67213  0.11618000000000002  0.10037000000000003  1.0000
  O   O22       1.0  0.58613  0.07976  0.07708  1.0000
  O   O23       1.0  0.6277  0.80963  0.06658  1.0000
  C   C39       1.0  0.69076  0.6869  0.09293  1.0000
  O   O24       1.0  0.81614  0.5971800000000002  0.07592000000000002  1.0000
  O   O25       1.0  0.04535999999999999  0.63917  0.08144  1.0000
  C   C40       1.0  0.02316  0.74912  0.11932000000000001  1.0000
  Cr  Cr4       1.0  0.9379500000000001  0.9384499999999999  0.00894  1.0000
  Cr  Cr5       1.0  0.62618  0.93703  0.9947500000000001  1.0000
  Cr  Cr6       1.0  0.9377899999999998  0.62576  0.00141  1.0000
  O   O26       1.0  0.8339799999999999  0.83375  0.0017  1.0000
  Cl  Cl1       1.0  0.9804499999999999  0.43175  0.79179  1.0000
  N   N1        1.0  0.93328  0.10774  0.8145700000000001  1.0000
  O   O27       1.0  0.04436  0.028310000000000002  0.7759700000000002  1.0000
  O   O28       1.0  0.94534  0.17576000000000003  0.8694900000000001  1.0000
  N   N2        1.0  0.86057  0.41353  0.29232  1.0000
  O   O29       1.0  0.9779499999999998  0.39386000000000004  0.26469000000000004  1.0000
  O   O30       1.0  0.85902  0.30523  0.3195100000000001  1.0000
  Cl  Cl2       1.0  0.31272  0.36146  0.2983600000000001  1.0000
  Cl  Cl3       1.0  0.9958299999999999  0.61974  0.3493  1.0000
  N   N3        1.0  0.5062600000000002  0.59238  0.7111800000000001  1.0000
  O   O31       1.0  0.39426000000000005  0.71456  0.7206400000000001  1.0000
  O   O32       1.0  0.49464  0.48223  0.69646  1.0000
