data_image0
_chemical_formula_structural       C120Cr12H140O52SO3HSO3HSO3HSO3H
_chemical_formula_sum              "C120 Cr12 H144 O64 S4"
_cell_length_a       19.67882
_cell_length_b       11.433760000000001
_cell_length_c       18.715639999999997
_cell_angle_alpha    89.99918
_cell_angle_beta     89.68545000000002
_cell_angle_gamma    90.00068

_symmetry_space_group_name_H-M    'P 1'
_symmetry_Int_Tables_number       1

loop_
  _symmetry_equiv_pos_as_xyz
  'x,y,z'

loop_
  _atom_site_type_symbol
  _atom_site_label
  _atom_site_symmetry_multiplicity
  _atom_site_fract_x
  _atom_site_fract_y
  _atom_site_fract_z
  _atom_site_occupancy
  C   C1        1.0  0.76152  0.52049  0.63812  1.0000
  C   C2        1.0  0.23848  0.52049  0.36187  1.0000
  C   C3        1.0  0.26152  0.02049  0.63812  1.0000
  C   C4        1.0  0.73848  0.02049  0.36187  1.0000
  C   C5        1.0  0.81615  0.11742  0.44979  1.0000
  C   C6        1.0  0.18384999999999999  0.11742  0.5502  1.0000
  C   C7        1.0  0.31616  0.61742  0.44979  1.0000
  C   C8        1.0  0.68385  0.61742  0.5502  1.0000
  C   C9        1.0  0.74983  0.05084  0.43833  1.0000
  C   C10       1.0  0.25016999999999995  0.05084  0.56167  1.0000
  C   C11       1.0  0.24983  0.55084  0.43833  1.0000
  C   C12       1.0  0.75017  0.55084  0.56167  1.0000
  C   C13       1.0  0.76599  0.08561  0.5756  1.0000
  C   C14       1.0  0.23400999999999997  0.08559  0.4244  1.0000
  C   C15       1.0  0.26599  0.58561  0.5756  1.0000
  C   C16       1.0  0.73401  0.58559  0.4244  1.0000
  C   C17       1.0  0.77969  0.95442  0.56088  1.0000
  C   C18       1.0  0.22031  0.95441  0.43912  1.0000
  C   C19       1.0  0.27969  0.45442  0.56088  1.0000
  C   C20       1.0  0.7203099999999999  0.45441000000000004  0.43912  1.0000
  C   C21       1.0  0.81791  0.15351  0.52918  1.0000
  C   C22       1.0  0.1821  0.15351  0.47081  1.0000
  C   C23       1.0  0.31791  0.65351  0.52918  1.0000
  C   C24       1.0  0.6821  0.65351  0.47081  1.0000
  C   C25       1.0  0.9968599999999999  0.20952  0.45911  1.0000
  C   C26       1.0  0.003129999999999999  0.20952  0.5409  1.0000
  C   C27       1.0  0.49686  0.7095199999999999  0.45911  1.0000
  C   C28       1.0  0.50313  0.7095199999999999  0.5409  1.0000
  C   C29       1.0  0.0663  0.39828  0.47220000000000006  1.0000
  C   C30       1.0  0.93373  0.39835  0.52781  1.0000
  C   C31       1.0  0.5663  0.8982800000000001  0.47220000000000006  1.0000
  C   C32       1.0  0.43372999999999995  0.89835  0.52781  1.0000
  C   C33       1.0  0.94381  0.40134000000000003  0.44638999999999995  1.0000
  C   C34       1.0  0.056209999999999996  0.40134000000000003  0.5536099999999999  1.0000
  C   C35       1.0  0.44381  0.90134  0.44638999999999995  1.0000
  C   C36       1.0  0.5562099999999999  0.90134  0.5536099999999999  1.0000
  C   C37       1.0  0.008709999999999999  0.33495  0.43043  1.0000
  C   C38       1.0  0.9913  0.33496  0.56958  1.0000
  C   C39       1.0  0.50871  0.83495  0.43043  1.0000
  C   C40       1.0  0.4913  0.83496  0.56958  1.0000
  C   C41       1.0  0.81937  0.02642  0.046209999999999994  1.0000
  C   C42       1.0  0.18063  0.02644  0.95379  1.0000
  C   C43       1.0  0.31937  0.52642  0.046209999999999994  1.0000
  C   C44       1.0  0.68063  0.52644  0.95379  1.0000
  C   C45       1.0  0.77511  0.12017  0.6501999999999999  1.0000
  C   C46       1.0  0.22489  0.12016  0.3498  1.0000
  C   C47       1.0  0.27511  0.62017  0.6501999999999999  1.0000
  C   C48       1.0  0.72489  0.62016  0.3498  1.0000
  C   C49       1.0  0.81858  0.023260000000000003  0.9655199999999999  1.0000
  C   C50       1.0  0.18142  0.02328  0.03447  1.0000
  C   C51       1.0  0.31858  0.52326  0.9655199999999999  1.0000
  C   C52       1.0  0.68142  0.52328  0.03447  1.0000
  C   C53       1.0  0.6914299999999999  0.01574  0.03223  1.0000
  C   C54       1.0  0.30856  0.01575  0.96778  1.0000
  C   C55       1.0  0.19142999999999996  0.51574  0.03223  1.0000
  C   C56       1.0  0.8085599999999998  0.51575  0.96778  1.0000
  C   C57       1.0  0.74502  0.20159000000000002  0.06123  1.0000
  C   C58       1.0  0.25499  0.20161  0.93876  1.0000
  C   C59       1.0  0.24501999999999996  0.70159  0.06123  1.0000
  C   C60       1.0  0.75499  0.7016100000000001  0.93876  1.0000
  C   C61       1.0  0.74938  0.07124  0.07554999999999999  1.0000
  C   C62       1.0  0.25062  0.07125  0.92444  1.0000
  C   C63       1.0  0.24938  0.57124  0.07554999999999999  1.0000
  C   C64       1.0  0.75062  0.57125  0.92444  1.0000
  C   C65       1.0  0.76061  0.10391  0.9361899999999999  1.0000
  C   C66       1.0  0.23939  0.10394  0.06381  1.0000
  C   C67       1.0  0.26061  0.60391  0.9361899999999999  1.0000
  C   C68       1.0  0.7393899999999999  0.60394  0.06381  1.0000
  C   C69       1.0  0.69378  0.04222  0.95103  1.0000
  C   C70       1.0  0.30622  0.04227  0.048969999999999986  1.0000
  C   C71       1.0  0.19377999999999998  0.54222  0.95103  1.0000
  C   C72       1.0  0.80622  0.54227  0.048969999999999986  1.0000
  C   C73       1.0  0.75792  0.21872000000000003  0.98015  1.0000
  C   C74       1.0  0.24205999999999997  0.21874000000000002  0.01983  1.0000
  C   C75       1.0  0.25792  0.71872  0.98015  1.0000
  C   C76       1.0  0.74206  0.71874  0.01983  1.0000
  C   C77       1.0  0.99884  0.47915  0.04068  1.0000
  C   C78       1.0  0.0011599999999999996  0.47915  0.9593200000000001  1.0000
  C   C79       1.0  0.49884  0.97915  0.04068  1.0000
  C   C80       1.0  0.50116  0.97915  0.9593200000000001  1.0000
  C   C81       1.0  0.06788  0.29333  0.02492  1.0000
  C   C82       1.0  0.9320999999999999  0.29333  0.9750799999999998  1.0000
  C   C83       1.0  0.56788  0.79332  0.02492  1.0000
  C   C84       1.0  0.43209999999999993  0.7933300000000001  0.9750799999999998  1.0000
  C   C85       1.0  0.94757  0.28104  0.05543000000000001  1.0000
  C   C86       1.0  0.05242  0.28104  0.94457  1.0000
  C   C87       1.0  0.44756999999999997  0.78104  0.05543000000000001  1.0000
  C   C88       1.0  0.5524199999999999  0.78104  0.94457  1.0000
  C   C89       1.0  0.97051  0.34237  0.64592  1.0000
  C   C90       1.0  0.0295  0.34237  0.35409  1.0000
  C   C91       1.0  0.47050999999999993  0.8423699999999998  0.64592  1.0000
  C   C92       1.0  0.5295  0.8423699999999998  0.35409  1.0000
  C   C93       1.0  0.011  0.35223000000000004  0.06936  1.0000
  C   C94       1.0  0.9889899999999999  0.35223000000000004  0.93064  1.0000
  C   C95       1.0  0.511  0.8522300000000002  0.06936  1.0000
  C   C96       1.0  0.48899  0.8522300000000002  0.93064  1.0000
  C   C97       1.0  0.7597899999999999  0.53492  0.8481  1.0000
  C   C98       1.0  0.24021  0.53492  0.1519  1.0000
  C   C99       1.0  0.25979  0.03492  0.8481  1.0000
  C   C100      1.0  0.74021  0.03492  0.1519  1.0000
  C   C101      1.0  0.77415  0.13267  0.8588399999999999  1.0000
  C   C102      1.0  0.22585  0.13269  0.14115  1.0000
  C   C103      1.0  0.27414999999999995  0.63267  0.8588399999999999  1.0000
  C   C104      1.0  0.72585  0.63269  0.14115  1.0000
  C   C105      1.0  0.9675199999999999  0.35358  0.8542099999999999  1.0000
  C   C106      1.0  0.03248  0.35358  0.1458  1.0000
  C   C107      1.0  0.46751999999999994  0.8535800000000001  0.8542099999999999  1.0000
  C   C108      1.0  0.53248  0.8535800000000001  0.1458  1.0000
  C   C109      1.0  0.6921999999999999  0.12641  0.46971999999999997  1.0000
  C   C110      1.0  0.30781  0.12638  0.53027  1.0000
  C   C111      1.0  0.19219999999999998  0.62641  0.46971999999999997  1.0000
  C   C112      1.0  0.80781  0.62638  0.53027  1.0000
  C   C113      1.0  0.69252  0.11741  0.55104  1.0000
  C   C114      1.0  0.30749  0.11739  0.44895  1.0000
  C   C115      1.0  0.19251999999999997  0.61741  0.55104  1.0000
  C   C116      1.0  0.80749  0.61739  0.44895  1.0000
  C   C117      1.0  0.75629  0.93574  0.4829399999999999  1.0000
  C   C118      1.0  0.2437  0.9357300000000001  0.51706  1.0000
  C   C119      1.0  0.25629  0.43574000000000007  0.4829399999999999  1.0000
  C   C120      1.0  0.7437  0.43573  0.51706  1.0000
  Cr  Cr1       1.0  0.88569  0.4928600000000001  0.74531  1.0000
  Cr  Cr2       1.0  0.11431  0.4928600000000001  0.25469  1.0000
  Cr  Cr3       1.0  0.3856899999999999  0.99286  0.74531  1.0000
  Cr  Cr4       1.0  0.61431  0.99286  0.25469  1.0000
  Cr  Cr5       1.0  0.72988  0.33227  0.74819  1.0000
  Cr  Cr6       1.0  0.27012  0.33227  0.25181  1.0000
  Cr  Cr7       1.0  0.22988  0.83227  0.74819  1.0000
  Cr  Cr8       1.0  0.7701199999999999  0.83227  0.25181  1.0000
  Cr  Cr9       1.0  0.88812  0.17859000000000003  0.75301  1.0000
  Cr  Cr10      1.0  0.11187999999999998  0.17859000000000003  0.24698999999999996  1.0000
  Cr  Cr11      1.0  0.38812  0.67859  0.75301  1.0000
  Cr  Cr12      1.0  0.6118799999999999  0.67859  0.24698999999999996  1.0000
  H   H1        1.0  0.64183  0.11092000000000002  0.44755  1.0000
  H   H2        1.0  0.35817  0.11085000000000002  0.55244  1.0000
  H   H3        1.0  0.14183  0.61092  0.44755  1.0000
  H   H4        1.0  0.85817  0.61085  0.55244  1.0000
  H   H5        1.0  0.86898  0.1482  0.54944  1.0000
  H   H6        1.0  0.13103  0.14819  0.45053999999999994  1.0000
  H   H7        1.0  0.3689799999999999  0.6482  0.54944  1.0000
  H   H8        1.0  0.63103  0.64819  0.45053999999999994  1.0000
  H   H9        1.0  0.78632  0.86865  0.45514999999999994  1.0000
  H   H10       1.0  0.21365999999999996  0.86865  0.5448599999999999  1.0000
  H   H11       1.0  0.28632  0.36865  0.45514999999999994  1.0000
  H   H12       1.0  0.7136599999999999  0.36865  0.5448599999999999  1.0000
  H   H13       1.0  0.02941  0.14495  0.43496999999999997  1.0000
  H   H14       1.0  0.97059  0.14496  0.56504  1.0000
  H   H15       1.0  0.52941  0.64495  0.43496999999999997  1.0000
  H   H16       1.0  0.47058  0.64496  0.56504  1.0000
  H   H17       1.0  0.94578  0.17971  0.4439699999999999  1.0000
  H   H18       1.0  0.05421  0.1797  0.55603  1.0000
  H   H19       1.0  0.44577999999999995  0.67971  0.4439699999999999  1.0000
  H   H20       1.0  0.55421  0.6797  0.55603  1.0000
  H   H21       1.0  0.61299  0.855  0.45707999999999993  1.0000
  H   H22       1.0  0.38699  0.85519  0.543  1.0000
  H   H23       1.0  0.11299  0.355  0.45707999999999993  1.0000
  H   H24       1.0  0.88699  0.35519000000000006  0.543  1.0000
  H   H25       1.0  0.60045  0.86189  0.58139  1.0000
  H   H26       1.0  0.39955  0.86186  0.41863999999999996  1.0000
  H   H27       1.0  0.10045000000000001  0.36189  0.58139  1.0000
  H   H28       1.0  0.89955  0.36186  0.41863999999999996  1.0000
  H   H29       1.0  0.9491399999999999  0.49334  0.42778  1.0000
  H   H30       1.0  0.05088  0.49335  0.5721899999999999  1.0000
  H   H31       1.0  0.44913999999999993  0.99334  0.42778  1.0000
  H   H32       1.0  0.55088  0.9933500000000001  0.5721899999999999  1.0000
  H   H33       1.0  0.9326499999999999  0.48994000000000004  0.5451499999999999  1.0000
  H   H34       1.0  0.06751  0.48979000000000006  0.45483  1.0000
  H   H35       1.0  0.43265  0.98994  0.5451499999999999  1.0000
  H   H36       1.0  0.56751  0.98979  0.45483  1.0000
  H   H37       1.0  0.83423  0.93794  0.06415  1.0000
  H   H38       1.0  0.16577  0.93795  0.9358500000000001  1.0000
  H   H39       1.0  0.33423  0.43794  0.06415  1.0000
  H   H40       1.0  0.66577  0.43795000000000006  0.9358500000000001  1.0000
  H   H41       1.0  0.7050899999999999  0.21658  0.45641999999999994  1.0000
  H   H42       1.0  0.29493  0.21656  0.54357  1.0000
  H   H43       1.0  0.20509  0.71658  0.45641999999999994  1.0000
  H   H44       1.0  0.79493  0.71656  0.54357  1.0000
  H   H45       1.0  0.8601399999999999  0.08521  0.06519999999999998  1.0000
  H   H46       1.0  0.13986  0.08523  0.93479  1.0000
  H   H47       1.0  0.36014  0.58521  0.06519999999999998  1.0000
  H   H48       1.0  0.6398599999999999  0.58523  0.93479  1.0000
  H   H49       1.0  0.87045  0.04475  0.94714  1.0000
  H   H50       1.0  0.12955  0.04476000000000001  0.05285999999999998  1.0000
  H   H51       1.0  0.37044999999999995  0.54475  0.94714  1.0000
  H   H52       1.0  0.62955  0.54476  0.05285999999999998  1.0000
  H   H53       1.0  0.80995  0.93248  0.94681  1.0000
  H   H54       1.0  0.19006  0.93249  0.05318999999999999  1.0000
  H   H55       1.0  0.30995  0.43248  0.94681  1.0000
  H   H56       1.0  0.69006  0.43249  0.05318999999999999  1.0000
  H   H57       1.0  0.70041  0.92463  0.04059  1.0000
  H   H58       1.0  0.29958  0.9246400000000001  0.9594499999999999  1.0000
  H   H59       1.0  0.20041  0.42463  0.04059  1.0000
  H   H60       1.0  0.7995799999999998  0.42464  0.9594499999999999  1.0000
  H   H61       1.0  0.68964  0.9602400000000001  0.91947  1.0000
  H   H62       1.0  0.31037999999999993  0.96031  0.08055  1.0000
  H   H63       1.0  0.18964  0.46024  0.91947  1.0000
  H   H64       1.0  0.81038  0.46031  0.08055  1.0000
  H   H65       1.0  0.69379  0.23476  0.07631  1.0000
  H   H66       1.0  0.30623  0.23476  0.9236899999999999  1.0000
  H   H67       1.0  0.19379  0.73476  0.07631  1.0000
  H   H68       1.0  0.8062299999999999  0.73476  0.9236899999999999  1.0000
  H   H69       1.0  0.78322  0.24995000000000003  0.09328  1.0000
  H   H70       1.0  0.2168  0.24997000000000003  0.9066799999999999  1.0000
  H   H71       1.0  0.28322  0.74995  0.09328  1.0000
  H   H72       1.0  0.7168  0.74997  0.9066799999999999  1.0000
  H   H73       1.0  0.80813  0.25204  0.97504  1.0000
  H   H74       1.0  0.19183  0.25202  0.02492  1.0000
  H   H75       1.0  0.30813  0.7520400000000002  0.97504  1.0000
  H   H76       1.0  0.6918299999999998  0.75202  0.02492  1.0000
  H   H77       1.0  0.72  0.27926  0.95784  1.0000
  H   H78       1.0  0.27996  0.27931  0.04215  1.0000
  H   H79       1.0  0.22  0.77926  0.95784  1.0000
  H   H80       1.0  0.77996  0.77931  0.04215  1.0000
  H   H81       1.0  0.64186  0.04205  0.0543  1.0000
  H   H82       1.0  0.35814999999999997  0.04203  0.94569  1.0000
  H   H83       1.0  0.14186  0.54205  0.0543  1.0000
  H   H84       1.0  0.85815  0.54203  0.94569  1.0000
  H   H85       1.0  0.6720899999999999  0.1996  0.5734399999999998  1.0000
  H   H86       1.0  0.32791  0.19959  0.42656  1.0000
  H   H87       1.0  0.17209  0.6996  0.5734399999999998  1.0000
  H   H88       1.0  0.82791  0.69959  0.42656  1.0000
  H   H89       1.0  0.65112  0.10071  0.93593  1.0000
  H   H90       1.0  0.34887  0.10079  0.06404  1.0000
  H   H91       1.0  0.15112  0.60071  0.93593  1.0000
  H   H92       1.0  0.84887  0.60079  0.06404  1.0000
  H   H93       1.0  0.03529  0.54522  0.059809999999999995  1.0000
  H   H94       1.0  0.96471  0.54523  0.94019  1.0000
  H   H95       1.0  0.53529  0.04522000000000001  0.059809999999999995  1.0000
  H   H96       1.0  0.46471  0.045230000000000006  0.94019  1.0000
  H   H97       1.0  0.94864  0.51015  0.05962  1.0000
  H   H98       1.0  0.05135  0.51014  0.94038  1.0000
  H   H99       1.0  0.4486399999999999  0.01015  0.05962  1.0000
  H   H100      1.0  0.55136  0.01014  0.94038  1.0000
  H   H101      1.0  0.60864  0.85365  0.02925  1.0000
  H   H102      1.0  0.39133999999999997  0.8536600000000001  0.9707599999999998  1.0000
  H   H103      1.0  0.10864  0.35365  0.02925  1.0000
  H   H104      1.0  0.89135  0.35366  0.9707599999999998  1.0000
  H   H105      1.0  0.59574  0.81286  0.91151  1.0000
  H   H106      1.0  0.40424999999999994  0.81286  0.0885  1.0000
  H   H107      1.0  0.09574  0.31286  0.91151  1.0000
  H   H108      1.0  0.90425  0.31286  0.0885  1.0000
  H   H109      1.0  0.95701  0.18787  0.06916  1.0000
  H   H110      1.0  0.04297  0.18786  0.93084  1.0000
  H   H111      1.0  0.45702  0.68787  0.06916  1.0000
  H   H112      1.0  0.5429699999999998  0.68786  0.93084  1.0000
  H   H113      1.0  0.91882  0.20765  0.95263  1.0000
  H   H114      1.0  0.08116  0.20763  0.04738  1.0000
  H   H115      1.0  0.41882  0.70765  0.95263  1.0000
  H   H116      1.0  0.58115  0.7076399999999999  0.04738  1.0000
  H   H117      1.0  0.6575499999999999  0.04868  0.56953  1.0000
  H   H118      1.0  0.34246  0.04866  0.43046  1.0000
  H   H119      1.0  0.15755  0.54868  0.56953  1.0000
  H   H120      1.0  0.8424599999999999  0.54866  0.43046  1.0000
  H   H121      1.0  0.70455  0.90811  0.48952  1.0000
  H   H122      1.0  0.29544  0.9081000000000001  0.51048  1.0000
  H   H123      1.0  0.20455  0.40811  0.48952  1.0000
  H   H124      1.0  0.79544  0.4081  0.51048  1.0000
  H   H125      1.0  0.7455999999999999  0.90299  0.5968099999999998  1.0000
  H   H126      1.0  0.2544  0.9029800000000001  0.40319  1.0000
  H   H127      1.0  0.24559999999999996  0.40299000000000007  0.5968099999999998  1.0000
  H   H128      1.0  0.7544  0.40298  0.40319  1.0000
  H   H129      1.0  0.85969  0.05888  0.43708  1.0000
  H   H130      1.0  0.14031  0.05889  0.56291  1.0000
  H   H131      1.0  0.35969  0.55888  0.43708  1.0000
  H   H132      1.0  0.64031  0.55889  0.56291  1.0000
  H   H133      1.0  0.81929  0.19585000000000002  0.41475  1.0000
  H   H134      1.0  0.18072  0.19586  0.58523  1.0000
  H   H135      1.0  0.31928999999999996  0.69585  0.41475  1.0000
  H   H136      1.0  0.68073  0.69586  0.58523  1.0000
  H   H137      1.0  0.80326  0.24224000000000004  0.53462  1.0000
  H   H138      1.0  0.19677  0.24223  0.46536  1.0000
  H   H139      1.0  0.30326  0.74224  0.53462  1.0000
  H   H140      1.0  0.69677  0.74223  0.46536  1.0000
  O   O1        1.0  0.9572099999999999  0.44941  0.66548  1.0000
  O   O2        1.0  0.04279  0.44941  0.33452  1.0000
  O   O3        1.0  0.45721  0.94941  0.66548  1.0000
  O   O4        1.0  0.54279  0.94941  0.33452  1.0000
  O   O5        1.0  0.7362599999999999  0.21201  0.82656  1.0000
  O   O6        1.0  0.26374  0.21201  0.17343999999999998  1.0000
  O   O7        1.0  0.23625999999999997  0.7120100000000001  0.82656  1.0000
  O   O8        1.0  0.76374  0.7120100000000001  0.17343999999999998  1.0000
  O   O9        1.0  0.8325199999999999  0.0953  0.836  1.0000
  O   O10       1.0  0.16748  0.0953  0.164  1.0000
  O   O11       1.0  0.3325199999999999  0.5953  0.836  1.0000
  O   O12       1.0  0.66748  0.5953  0.164  1.0000
  O   O13       1.0  0.94638  0.25394  0.82694  1.0000
  O   O14       1.0  0.053619999999999994  0.25394  0.17305999999999996  1.0000
  O   O15       1.0  0.44638  0.75394  0.82694  1.0000
  O   O16       1.0  0.55362  0.75394  0.17305999999999996  1.0000
  O   O17       1.0  0.8345599999999999  0.33457  0.74884  1.0000
  O   O18       1.0  0.16544  0.33457  0.25116  1.0000
  O   O19       1.0  0.33456  0.83457  0.74884  1.0000
  O   O20       1.0  0.66544  0.83457  0.25116  1.0000
  O   O21       1.0  0.8207299999999998  0.54124  0.66825  1.0000
  O   O22       1.0  0.17927  0.54124  0.33175  1.0000
  O   O23       1.0  0.32073  0.04124  0.66825  1.0000
  O   O24       1.0  0.67927  0.04124  0.33175  1.0000
  O   O25       1.0  0.71424  0.4550600000000001  0.66371  1.0000
  O   O26       1.0  0.28575999999999996  0.4550600000000001  0.33629  1.0000
  O   O27       1.0  0.21424  0.95506  0.66371  1.0000
  O   O28       1.0  0.78576  0.95506  0.33629  1.0000
  O   O29       1.0  0.73678  0.20487  0.67591  1.0000
  O   O30       1.0  0.26322  0.20487  0.32408999999999993  1.0000
  O   O31       1.0  0.23678  0.7048699999999999  0.67591  1.0000
  O   O32       1.0  0.76322  0.7048699999999999  0.32408999999999993  1.0000
  O   O33       1.0  0.8330699999999999  0.08759  0.67349  1.0000
  O   O34       1.0  0.16693  0.08759  0.32651  1.0000
  O   O35       1.0  0.33307  0.58759  0.67349  1.0000
  O   O36       1.0  0.66693  0.58759  0.32651  1.0000
  O   O37       1.0  0.94689  0.2468  0.6763  1.0000
  O   O38       1.0  0.05311  0.2468  0.3237  1.0000
  O   O39       1.0  0.44688999999999995  0.7468  0.6763  1.0000
  O   O40       1.0  0.55311  0.7468  0.3237  1.0000
  O   O41       1.0  0.9566499999999999  0.45712  0.82798  1.0000
  O   O42       1.0  0.04335  0.45712  0.17202  1.0000
  O   O43       1.0  0.45664999999999994  0.95712  0.82798  1.0000
  O   O44       1.0  0.54335  0.95712  0.17202  1.0000
  O   O45       1.0  0.82022  0.54839  0.81889  1.0000
  O   O46       1.0  0.17978  0.54839  0.18111  1.0000
  O   O47       1.0  0.32022  0.04839  0.81889  1.0000
  O   O48       1.0  0.67978  0.04839  0.18111  1.0000
  O   O49       1.0  0.7136799999999999  0.46277  0.8262099999999999  1.0000
  O   O50       1.0  0.28632  0.46277  0.17379  1.0000
  O   O51       1.0  0.21367999999999998  0.96277  0.8262099999999999  1.0000
  O   O52       1.0  0.78632  0.96277  0.17379  1.0000
  S   S1        1.0  0.86626  0.89611  0.5770799999999999  1.0000
  O   O53       1.0  0.91804  0.98158  0.60255  1.0000
  O   O54       1.0  0.86061  0.80434  0.63438  1.0000
  O   O55       1.0  0.8988899999999999  0.8358200000000001  0.50243  1.0000
  H   H141      1.0  0.9365199999999999  0.7853100000000001  0.51897  1.0000
  S   S2        1.0  0.13375  0.8961  0.4229  1.0000
  O   O56       1.0  0.08196  0.9815700000000002  0.39746  1.0000
  O   O57       1.0  0.1394  0.8043700000000001  0.36558  1.0000
  O   O58       1.0  0.10113000000000001  0.8357100000000001  0.49753  1.0000
  H   H142      1.0  0.06326  0.78563  0.48096999999999995  1.0000
  S   S3        1.0  0.3662599999999999  0.39611  0.5770799999999999  1.0000
  O   O59       1.0  0.41803999999999997  0.48158  0.60255  1.0000
  O   O60       1.0  0.36061  0.30434  0.63438  1.0000
  O   O61       1.0  0.39889  0.33582  0.50243  1.0000
  H   H143      1.0  0.43652  0.28531  0.51897  1.0000
  S   S4        1.0  0.63375  0.39610000000000006  0.4229  1.0000
  O   O62       1.0  0.5819599999999999  0.48157  0.39746  1.0000
  O   O63       1.0  0.6394  0.30437  0.36558  1.0000
  O   O64       1.0  0.60113  0.33571  0.49753  1.0000
  H   H144      1.0  0.5632599999999999  0.28563  0.48096999999999995  1.0000
