data_image0
_chemical_formula_structural       C60Cr6H36O28
_chemical_formula_sum              "C60 Cr6 H36 O28"
_cell_length_a       10.9036
_cell_length_b       10.94701
_cell_length_c       18.81423
_cell_angle_alpha    89.90481
_cell_angle_beta     89.78359999999999
_cell_angle_gamma    120.07418

_symmetry_space_group_name_H-M    'P 1'
_symmetry_Int_Tables_number       1

loop_
  _symmetry_equiv_pos_as_xyz
  'x,y,z'

loop_
  _atom_site_type_symbol
  _atom_site_label
  _atom_site_symmetry_multiplicity
  _atom_site_fract_x
  _atom_site_fract_y
  _atom_site_fract_z
  _atom_site_occupancy
  C   C1        1.0  0.8682100000000003  0.6356999999999999  0.60522  1.0000
  C   C2        1.0  0.93799  0.14111  0.70898  1.0000
  C   C3        1.0  0.95522  0.15327  0.78393  1.0000
  C   C4        1.0  0.26549  0.62894  0.6053  1.0000
  C   C5        1.0  0.7380200000000001  0.18217  0.72016  1.0000
  C   C6        1.0  0.7714200000000001  0.21788999999999997  0.79177  1.0000
  C   C7        1.0  0.60879  0.16714  0.69479  1.0000
  C   C8        1.0  0.5316  0.21232  0.73504  1.0000
  C   C9        1.0  0.57968  0.27066999999999997  0.80169  1.0000
  C   C10       1.0  0.70018  0.27579  0.82965  1.0000
  C   C11       1.0  0.83539  0.1654  0.67637  1.0000
  C   C12       1.0  0.27175000000000005  0.5482699999999999  0.79621  1.0000
  C   C13       1.0  0.7075900000000003  0.58942  0.70776  1.0000
  C   C14       1.0  0.69067  0.59595  0.7806  1.0000
  C   C15       1.0  0.8095900000000001  0.6520599999999998  0.82548  1.0000
  C   C16       1.0  0.8592400000000001  0.2241  0.60299  1.0000
  C   C17       1.0  0.94452  0.69878  0.79753  1.0000
  C   C18       1.0  0.96157  0.69556  0.7251  1.0000
  C   C19       1.0  0.84382  0.64378  0.67995  1.0000
  C   C20       1.0  0.29241  0.54558  0.27989  1.0000
  C   C21       1.0  0.29986  0.55285  0.20745  1.0000
  C   C22       1.0  0.32470000000000004  0.67631  0.1723  1.0000
  C   C23       1.0  0.25642  0.53361  0.72366  1.0000
  C   C24       1.0  0.31696  0.78212  0.21016000000000004  1.0000
  C   C25       1.0  0.30551  0.7732299999999999  0.28413  1.0000
  C   C26       1.0  0.29898  0.65666  0.31938  1.0000
  C   C27       1.0  0.71329  0.11408  0.29482  1.0000
  C   C28       1.0  0.8648700000000001  0.6399099999999999  0.39758  1.0000
  C   C29       1.0  0.70254  0.10521999999999998  0.22198000000000004  1.0000
  C   C30       1.0  0.82251  0.1334  0.18009  1.0000
  C   C31       1.0  0.9525000000000001  0.17527  0.21269000000000002  1.0000
  C   C32       1.0  0.9637900000000001  0.1927  0.28597  1.0000
  C   C33       1.0  0.84469  0.16662  0.32668  1.0000
  C   C34       1.0  0.29888  0.65257  0.68018  1.0000
  C   C35       1.0  0.8925800000000002  0.80223  0.29997  1.0000
  C   C36       1.0  0.8754699999999999  0.8231499999999999  0.22906  1.0000
  C   C37       1.0  0.77739  0.7111  0.18773  1.0000
  C   C38       1.0  0.6880699999999998  0.5792199999999998  0.21954000000000004  1.0000
  C   C39       1.0  0.7068600000000003  0.55592  0.29079  1.0000
  C   C40       1.0  0.2657  0.63102  0.39455  1.0000
  C   C41       1.0  0.8152000000000001  0.66697  0.33026  1.0000
  C   C42       1.0  0.81245  0.1094  0.8965199999999999  1.0000
  C   C43       1.0  0.39383000000000007  0.70085  0.8970400000000001  1.0000
  C   C44       1.0  0.79657  0.69082  0.89728  1.0000
  C   C45       1.0  0.8619900000000001  0.17933  0.82596  1.0000
  C   C46       1.0  0.8025  0.09950999999999997  0.10482  1.0000
  C   C47       1.0  0.39055  0.70198  0.10236  1.0000
  C   C48       1.0  0.7728  0.73435  0.11152999999999999  1.0000
  C   C49       1.0  0.8618700000000001  0.22678  0.39676  1.0000
  C   C50       1.0  0.34991999999999995  0.7858299999999999  0.71054  1.0000
  C   C51       1.0  0.3688199999999999  0.80132  0.78371  1.0000
  C   C52       1.0  0.3344  0.6827  0.8264  1.0000
  C   C53       1.0  0.54434  0.17228  0.18922  1.0000
  C   C54       1.0  0.49712999999999996  0.3826099999999999  0.33684  1.0000
  C   C55       1.0  0.43847000000000014  0.25651  0.38794  1.0000
  C   C56       1.0  0.06625  0.13996  0.81449  1.0000
  C   C57       1.0  0.28004  0.19385  0.4012  1.0000
  C   C58       1.0  0.14751  0.10081  0.77343  1.0000
  C   C59       1.0  0.12259000000000002  0.07771  0.70093  1.0000
  C   C60       1.0  0.020000000000000007  0.09903  0.66865  1.0000
  Cr  Cr1       1.0  0.79166  0.39025  0.49993  1.0000
  Cr  Cr2       1.0  0.09851999999999998  0.70829  0.50054  1.0000
  Cr  Cr3       1.0  0.10977000000000008  0.40143000000000006  0.49948  1.0000
  Cr  Cr4       1.0  0.87479  0.92589  7e-05  1.0000
  Cr  Cr5       1.0  0.57412  0.9486699999999999  0.9993  1.0000
  Cr  Cr6       1.0  0.55142  0.62532  0.0009199999999999999  1.0000
  H   H1        1.0  0.37644999999999995  0.8770599999999998  0.67768  1.0000
  H   H2        1.0  0.2975  0.46495  0.17977  1.0000
  H   H3        1.0  0.32418  0.87244  0.1829  1.0000
  H   H4        1.0  0.41744000000000003  0.90636  0.80612  1.0000
  H   H5        1.0  0.3012799999999999  0.85618  0.31341  1.0000
  H   H6        1.0  0.61981  0.08993  0.32585  1.0000
  H   H7        1.0  0.04473  0.19558  0.18162  1.0000
  H   H8        1.0  0.06645999999999998  0.23299  0.31021  1.0000
  H   H9        1.0  0.97427  0.89007  0.3295100000000001  1.0000
  H   H10       1.0  0.94385  0.92559  0.20549  1.0000
  H   H11       1.0  0.61042  0.49167999999999995  0.18833  1.0000
  H   H12       1.0  0.43577  0.20408  0.71386  1.0000
  H   H13       1.0  0.24268  0.45522  0.82822  1.0000
  H   H14       1.0  0.20969  0.42826  0.70174  1.0000
  H   H15       1.0  0.22968  0.08769  0.79814  1.0000
  H   H16       1.0  0.18366  0.044139999999999985  0.66945  1.0000
  H   H17       1.0  0.09422  0.16345  0.86983  1.0000
  H   H18       1.0  0.002060000000000001  0.07764  0.61236  1.0000
  H   H19       1.0  0.73348  0.3182099999999999  0.88257  1.0000
  H   H20       1.0  0.63677  0.27126  0.16848  1.0000
  H   H21       1.0  0.51182  0.1898  0.24218  1.0000
  H   H22       1.0  0.45464000000000004  0.14368  0.15253  1.0000
  H   H23       1.0  0.5643  0.11754  0.64445  1.0000
  H   H24       1.0  0.43067  0.35245  0.28819  1.0000
  H   H25       1.0  0.4924699999999999  0.4705599999999999  0.36434  1.0000
  H   H26       1.0  0.45644  0.17283  0.36573  1.0000
  H   H27       1.0  0.49556  0.29096999999999995  0.4393500000000001  1.0000
  H   H28       1.0  0.25782  0.27514  0.42274  1.0000
  H   H29       1.0  0.24277  0.10616  0.44034000000000006  1.0000
  H   H30       1.0  0.22086000000000003  0.15102  0.35097  1.0000
  H   H31       1.0  0.52131  0.30814  0.83261  1.0000
  H   H32       1.0  0.61604  0.5463  0.67328  1.0000
  H   H33       1.0  0.5857000000000001  0.56272  0.80137  1.0000
  H   H34       1.0  0.03720999999999999  0.74376  0.83132  1.0000
  H   H35       1.0  0.06731999999999992  0.73379  0.70423  1.0000
  H   H36       1.0  0.27835  0.45028  0.30464  1.0000
  O   O1        1.0  0.7665  0.25004  0.57979  1.0000
  O   O2        1.0  0.41333  0.60336  0.9204399999999999  1.0000
  O   O3        1.0  0.6761100000000001  0.62625  0.92675  1.0000
  O   O4        1.0  0.79857  0.5167799999999999  0.57478  1.0000
  O   O5        1.0  0.8953499999999999  0.8098699999999998  0.08095  1.0000
  O   O6        1.0  0.87249  0.04976  0.0738  1.0000
  O   O7        1.0  0.69168  0.08807  0.07907  1.0000
  O   O8        1.0  0.4517200000000001  0.82525  0.07405  1.0000
  O   O9        1.0  0.41358  0.60637  0.08096000000000002  1.0000
  O   O10       1.0  0.67634  0.62904  0.07555  1.0000
  O   O11       1.0  0.66678  0.83329  9e-05  1.0000
  O   O12       1.0  0.21869000000000002  0.7019  0.42596  1.0000
  O   O13       1.0  0.984  0.73295  0.58109  1.0000
  O   O14       1.0  0.21860000000000002  0.70089  0.57476  1.0000
  O   O15       1.0  0.24938999999999992  0.5153499999999999  0.57994  1.0000
  O   O16       1.0  0.9827900000000002  0.2808999999999999  0.5737  1.0000
  O   O17       1.0  0.7666000000000002  0.25113  0.4192600000000001  1.0000
  O   O18       1.0  0.7986600000000001  0.51779  0.42597999999999997  1.0000
  O   O19       1.0  0.9841  0.73404  0.42057  1.0000
  O   O20       1.0  0.5710500000000001  0.059  0.19226  1.0000
  O   O21       1.0  0.6369799999999999  0.42001999999999995  0.31782  1.0000
  O   O22       1.0  0.24949000000000002  0.51644  0.41942  1.0000
  O   O23       1.0  0.98288  0.28191  0.42489  1.0000
  O   O24       1.0  0.99998  0.49999  0.49998  1.0000
  O   O25       1.0  0.8951100000000001  0.80686  0.9204300000000001  1.0000
  O   O26       1.0  0.8722600000000001  0.04696999999999999  0.9250000000000002  1.0000
  O   O27       1.0  0.69143  0.08506  0.91855  1.0000
  O   O28       1.0  0.45149000000000006  0.82246  0.9252499999999999  1.0000
