data_image0
_chemical_formula_structural       C108Cr12H36O76
_chemical_formula_sum              "C108 Cr12 H36 O76"
_cell_length_a       19.75541
_cell_length_b       10.92828
_cell_length_c       19.47277
_cell_angle_alpha    89.7971
_cell_angle_beta     97.00118
_cell_angle_gamma    90.54094999999998

_symmetry_space_group_name_H-M    'P 1'
_symmetry_Int_Tables_number       1

loop_
  _symmetry_equiv_pos_as_xyz
  'x,y,z'

loop_
  _atom_site_type_symbol
  _atom_site_label
  _atom_site_symmetry_multiplicity
  _atom_site_fract_x
  _atom_site_fract_y
  _atom_site_fract_z
  _atom_site_occupancy
  C   C1        1.0  0.72545  0.94928  0.35968  1.0000
  C   C2        1.0  0.2565  0.39282  0.56547  1.0000
  C   C3        1.0  0.60653  0.87738  0.45876  1.0000
  C   C4        1.0  0.6214499999999998  0.16703  0.02135  1.0000
  C   C5        1.0  0.33479  0.16776  0.9880700000000001  1.0000
  C   C6        1.0  0.12144999999999999  0.66703  0.02135  1.0000
  C   C7        1.0  0.83479  0.66775  0.9880700000000001  1.0000
  C   C8        1.0  0.53598  0.38669  0.9509100000000001  1.0000
  C   C9        1.0  0.42305  0.37982  0.06571  1.0000
  C   C10       1.0  0.03597000000000003  0.88669  0.9509100000000001  1.0000
  C   C11       1.0  0.92305  0.8798200000000002  0.06572  1.0000
  C   C12       1.0  0.24734999999999996  0.89684  0.4335899999999999  1.0000
  C   C13       1.0  0.7565  0.8927700000000001  0.56546  1.0000
  C   C14       1.0  0.71647  0.50302  0.469  1.0000
  C   C15       1.0  0.31501  0.41151  0.52108  1.0000
  C   C16       1.0  0.21652999999999997  0.00306  0.46898  1.0000
  C   C17       1.0  0.81502  0.91127  0.52106  1.0000
  C   C18       1.0  0.78565  0.51746  0.51548  1.0000
  C   C19       1.0  0.27228  0.51373  0.48268  1.0000
  C   C20       1.0  0.28571  0.0174  0.51547  1.0000
  C   C21       1.0  0.27473  0.95204  0.63953  1.0000
  C   C22       1.0  0.7724  0.01366  0.48268999999999995  1.0000
  C   C23       1.0  0.8163199999999999  0.41085  0.47864000000000007  1.0000
  C   C24       1.0  0.21401  0.4938  0.52862  1.0000
  C   C25       1.0  0.31632  0.9107  0.47865  1.0000
  C   C26       1.0  0.71412  0.99392  0.52866  1.0000
  C   C27       1.0  0.79098  0.32055  0.53061  1.0000
  C   C28       1.0  0.18169999999999994  0.39766000000000007  0.47741  1.0000
  C   C29       1.0  0.29091000000000006  0.82049  0.53063  1.0000
  C   C30       1.0  0.68168  0.89791  0.47744  1.0000
  C   C31       1.0  0.76033  0.42545000000000005  0.56679  1.0000
  C   C32       1.0  0.22545  0.44925  0.35967  1.0000
  C   C33       1.0  0.23895999999999998  0.41778  0.43179  1.0000
  C   C34       1.0  0.26033  0.92547  0.56679  1.0000
  C   C35       1.0  0.7389400000000002  0.9178400000000001  0.4318000000000001  1.0000
  C   C36       1.0  0.50272  0.27446  0.97783  1.0000
  C   C37       1.0  0.45454  0.27176  0.03439  1.0000
  C   C38       1.0  0.0027200000000000006  0.77446  0.97783  1.0000
  C   C39       1.0  0.9545399999999999  0.77176  0.03439  1.0000
  C   C40       1.0  0.54536  0.17206  0.01479  1.0000
  C   C41       1.0  0.41047  0.17225  0.9945900000000001  1.0000
  C   C42       1.0  0.04536  0.67206  0.01479  1.0000
  C   C43       1.0  0.77472  0.45203000000000004  0.63953  1.0000
  C   C44       1.0  0.9104699999999999  0.67225  0.9945900000000001  1.0000
  C   C45       1.0  0.49772  0.17025  0.0718  1.0000
  C   C46       1.0  0.45808  0.17546  0.9376600000000002  1.0000
  C   C47       1.0  0.99772  0.67025  0.0718  1.0000
  C   C48       1.0  0.95808  0.67546  0.9376600000000002  1.0000
  C   C49       1.0  0.53371  0.17977  0.33699  1.0000
  C   C50       1.0  0.43494  0.18381000000000003  0.65182  1.0000
  C   C51       1.0  0.03371  0.67977  0.33699  1.0000
  C   C52       1.0  0.9349399999999999  0.68381  0.65182  1.0000
  C   C53       1.0  0.45368  0.07  0.032900000000000006  1.0000
  C   C54       1.0  0.72201  0.30417  0.48494000000000004  1.0000
  C   C55       1.0  0.50126  0.07267  0.97483  1.0000
  C   C56       1.0  0.95368  0.57  0.032900000000000006  1.0000
  C   C57       1.0  0.001260000000000014  0.57267  0.97483  1.0000
  C   C58       1.0  0.76049  0.41703000000000007  0.9020500000000001  1.0000
  C   C59       1.0  0.23519  0.43122  0.09391  1.0000
  C   C60       1.0  0.26049  0.91703  0.9020500000000001  1.0000
  C   C61       1.0  0.73519  0.93122  0.09391  1.0000
  C   C62       1.0  0.74631  0.40009999999999996  0.033080000000000005  1.0000
  C   C63       1.0  0.24806  0.42034  0.9621000000000001  1.0000
  C   C64       1.0  0.24632  0.9001  0.033080000000000005  1.0000
  C   C65       1.0  0.22379999999999997  0.29587  0.5146  1.0000
  C   C66       1.0  0.74806  0.9203399999999999  0.9621000000000001  1.0000
  C   C67       1.0  0.75199  0.4053  0.96181  1.0000
  C   C68       1.0  0.24208  0.42545000000000005  0.03343  1.0000
  C   C69       1.0  0.25199  0.9053000000000001  0.96181  1.0000
  C   C70       1.0  0.74208  0.92545  0.03343  1.0000
  C   C71       1.0  0.74237  0.39067  0.09399  1.0000
  C   C72       1.0  0.25387  0.40533  0.9019  1.0000
  C   C73       1.0  0.24236999999999997  0.89067  0.09399  1.0000
  C   C74       1.0  0.75387  0.9053300000000001  0.9019  1.0000
  C   C75       1.0  0.73965  0.3639  0.36138  1.0000
  C   C76       1.0  0.22194  0.80421  0.48496000000000006  1.0000
  C   C77       1.0  0.26151  0.36231  0.6378100000000001  1.0000
  C   C78       1.0  0.23964999999999997  0.8638799999999999  0.36138  1.0000
  C   C79       1.0  0.76151  0.86229  0.6378100000000001  1.0000
  C   C80       1.0  0.72165  0.9534400000000001  0.16326  1.0000
  C   C81       1.0  0.27727  0.95014  0.8351100000000001  1.0000
  C   C82       1.0  0.22164999999999999  0.45344  0.16326  1.0000
  C   C83       1.0  0.77728  0.45014000000000004  0.8351100000000001  1.0000
  C   C84       1.0  0.52799  0.17831  0.14286  1.0000
  C   C85       1.0  0.43694  0.18238000000000004  0.8633100000000001  1.0000
  C   C86       1.0  0.027989999999999998  0.67831  0.14286  1.0000
  C   C87       1.0  0.72367  0.7959500000000002  0.51459  1.0000
  C   C88       1.0  0.9369399999999999  0.68238  0.8633100000000001  1.0000
  C   C89       1.0  0.73597  0.35979  0.16423  1.0000
  C   C90       1.0  0.26303  0.36412  0.834  1.0000
  C   C91       1.0  0.23596999999999996  0.8597900000000002  0.16423  1.0000
  C   C92       1.0  0.76302  0.86412  0.834  1.0000
  C   C93       1.0  0.4517  0.17742  0.58235  1.0000
  C   C94       1.0  0.50243  0.17243  0.39951  1.0000
  C   C95       1.0  0.9517  0.67741  0.58235  1.0000
  C   C96       1.0  0.00242  0.67244  0.39951  1.0000
  C   C97       1.0  0.4824899999999999  0.17191  0.45555999999999996  1.0000
  C   C98       1.0  0.74735  0.39688  0.4335899999999999  1.0000
  C   C99       1.0  0.4648399999999999  0.17393  0.52358  1.0000
  C   C100      1.0  0.98249  0.6719  0.45555999999999996  1.0000
  C   C101      1.0  0.9648400000000001  0.67392  0.52358  1.0000
  C   C102      1.0  0.69149  0.41179  0.52181  1.0000
  C   C103      1.0  0.28155  0.31628  0.46860000000000007  1.0000
  C   C104      1.0  0.19149  0.91192  0.5218000000000002  1.0000
  C   C105      1.0  0.78143  0.81617  0.46856  1.0000
  C   C106      1.0  0.8353599999999999  0.22665  0.5699  1.0000
  C   C107      1.0  0.10659  0.37684  0.45865  1.0000
  C   C108      1.0  0.33525  0.72656  0.56996  1.0000
  Cr  Cr1       1.0  0.76583  0.16066  0.26818  1.0000
  Cr  Cr2       1.0  0.38407  0.32405  0.75155  1.0000
  Cr  Cr3       1.0  0.11593  0.82405  0.24845000000000003  1.0000
  Cr  Cr4       1.0  0.88407  0.82405  0.75155  1.0000
  Cr  Cr5       1.0  0.23417  0.16066  0.73182  1.0000
  Cr  Cr6       1.0  0.26583  0.66066  0.26818  1.0000
  Cr  Cr7       1.0  0.73417  0.66066  0.73182  1.0000
  Cr  Cr8       1.0  0.61211  0.00915  0.24876999999999996  1.0000
  Cr  Cr9       1.0  0.38789  0.00915  0.7512300000000001  1.0000
  Cr  Cr10      1.0  0.11210999999999999  0.50915  0.24876999999999996  1.0000
  Cr  Cr11      1.0  0.88789  0.50915  0.7512300000000001  1.0000
  Cr  Cr12      1.0  0.61593  0.32405  0.24845000000000003  1.0000
  H   H1        1.0  0.69304  0.22007000000000002  0.46807000000000004  1.0000
  H   H2        1.0  0.3699  0.41928  0.54126  1.0000
  H   H3        1.0  0.18619999999999998  0.07522  0.43956  1.0000
  H   H4        1.0  0.8699199999999999  0.9188499999999998  0.54122  1.0000
  H   H5        1.0  0.31405  0.10174000000000001  0.53283  1.0000
  H   H6        1.0  0.79441  0.09849  0.46331  1.0000
  H   H7        1.0  0.81394  0.60184  0.53287  1.0000
  H   H8        1.0  0.29422  0.59862  0.46329  1.0000
  H   H9        1.0  0.8669299999999999  0.41200000000000003  0.45929  1.0000
  H   H10       1.0  0.18705  0.56505  0.55503  1.0000
  H   H11       1.0  0.36693  0.91172  0.45931  1.0000
  H   H12       1.0  0.20082  0.20990999999999999  0.53151  1.0000
  H   H13       1.0  0.68726  0.06525  0.55512  1.0000
  H   H14       1.0  0.43319  0.98706  0.05653  1.0000
  H   H15       1.0  0.52109  0.99142  0.94993  1.0000
  H   H16       1.0  0.9332  0.48706000000000005  0.05653  1.0000
  H   H17       1.0  0.02109  0.49143000000000003  0.94993  1.0000
  H   H18       1.0  0.92627  0.14218  0.58349  1.0000
  H   H19       1.0  0.011500000000000007  0.41564  0.47828000000000004  1.0000
  H   H20       1.0  0.42616  0.64212  0.58368  1.0000
  H   H21       1.0  0.51155  0.91606  0.47879  1.0000
  H   H22       1.0  0.70529  0.16157  0.9721  1.0000
  H   H23       1.0  0.19293000000000002  0.72015  0.4681100000000001  1.0000
  H   H24       1.0  0.25057  0.16262  0.03689  1.0000
  H   H25       1.0  0.2053  0.66157  0.9721  1.0000
  H   H26       1.0  0.75057  0.66262  0.03689  1.0000
  H   H27       1.0  0.59993  0.4556  0.8870700000000001  1.0000
  H   H28       1.0  0.39344  0.45774  0.15074  1.0000
  H   H29       1.0  0.09994  0.95562  0.88709  1.0000
  H   H30       1.0  0.89344  0.9577299999999999  0.15074  1.0000
  H   H31       1.0  0.70062  0.71003  0.53146  1.0000
  H   H32       1.0  0.64107  0.41144  0.54149  1.0000
  H   H33       1.0  0.30823  0.24578  0.44136  1.0000
  H   H34       1.0  0.14106  0.9117  0.54148  1.0000
  H   H35       1.0  0.80801  0.74561  0.44128  1.0000
  H   H36       1.0  0.68609  0.57515  0.4396  1.0000
  O   O1        1.0  0.78323  0.2878  0.34651  1.0000
  O   O2        1.0  0.45457  0.28514  0.8368999999999999  1.0000
  O   O3        1.0  0.04543  0.7851400000000001  0.1631  1.0000
  O   O4        1.0  0.95457  0.7851400000000001  0.8368999999999999  1.0000
  O   O5        1.0  0.67785  0.37473  0.1855  1.0000
  O   O6        1.0  0.32215  0.37473  0.8145000000000001  1.0000
  O   O7        1.0  0.17784999999999998  0.8747300000000001  0.1855  1.0000
  O   O8        1.0  0.82215  0.8747300000000001  0.8145000000000001  1.0000
  O   O9        1.0  0.6646300000000002  0.16462  0.2551300000000001  1.0000
  O   O10       1.0  0.33537  0.16462  0.74487  1.0000
  O   O11       1.0  0.16463  0.66462  0.2551300000000001  1.0000
  O   O12       1.0  0.21676999999999996  0.2878  0.65349  1.0000
  O   O13       1.0  0.83537  0.66462  0.74487  1.0000
  O   O14       1.0  0.76013  0.03706  0.33861  1.0000
  O   O15       1.0  0.23987  0.03706  0.66139  1.0000
  O   O16       1.0  0.26013  0.53706  0.33861  1.0000
  O   O17       1.0  0.73987  0.53706  0.66139  1.0000
  O   O18       1.0  0.66662  0.92137  0.33244  1.0000
  O   O19       1.0  0.33338  0.92137  0.66756  1.0000
  O   O20       1.0  0.16662  0.42136999999999997  0.33244  1.0000
  O   O21       1.0  0.83338  0.42136999999999997  0.66756  1.0000
  O   O22       1.0  0.55717  0.08242  0.31235  1.0000
  O   O23       1.0  0.28323  0.7878  0.34651  1.0000
  O   O24       1.0  0.44282999999999995  0.08242  0.68765  1.0000
  O   O25       1.0  0.05717  0.58242  0.31235  1.0000
  O   O26       1.0  0.9428299999999998  0.58242  0.68765  1.0000
  O   O27       1.0  0.54831  0.28598  0.31625  1.0000
  O   O28       1.0  0.45169  0.28598  0.68375  1.0000
  O   O29       1.0  0.04831  0.78598  0.31625  1.0000
  O   O30       1.0  0.95169  0.78598  0.68375  1.0000
  O   O31       1.0  0.68052  0.3755  0.32747  1.0000
  O   O32       1.0  0.31948  0.3755  0.67253  1.0000
  O   O33       1.0  0.18052  0.8755  0.32747  1.0000
  O   O34       1.0  0.71677  0.7878  0.65349  1.0000
  O   O35       1.0  0.81948  0.8755  0.67253  1.0000
  O   O36       1.0  0.78035  0.28697  0.19335  1.0000
  O   O37       1.0  0.21965  0.28697  0.80665  1.0000
  O   O38       1.0  0.28035  0.7869700000000001  0.19335  1.0000
  O   O39       1.0  0.71965  0.7869700000000001  0.80665  1.0000
  O   O40       1.0  0.75746  0.03629  0.19664  1.0000
  O   O41       1.0  0.24254  0.03629  0.80336  1.0000
  O   O42       1.0  0.25746  0.53629  0.19664  1.0000
  O   O43       1.0  0.7425400000000001  0.53629  0.80336  1.0000
  O   O44       1.0  0.66374  0.92054  0.17929  1.0000
  O   O45       1.0  0.5545  0.08165  0.17037  1.0000
  O   O46       1.0  0.33625999999999995  0.92054  0.82071  1.0000
  O   O47       1.0  0.16374  0.42054  0.17929  1.0000
  O   O48       1.0  0.83626  0.42054  0.82071  1.0000
  O   O49       1.0  0.81399  0.16875  0.6167  1.0000
  O   O50       1.0  0.9013199999999999  0.2075  0.55346  1.0000
  O   O51       1.0  0.08622000000000002  0.29752  0.41685000000000005  1.0000
  O   O52       1.0  0.06046  0.44238  0.49264  1.0000
  O   O53       1.0  0.31383000000000005  0.66869  0.6167400000000001  1.0000
  O   O54       1.0  0.40123  0.70739  0.5536  1.0000
  O   O55       1.0  0.58602  0.7984900000000001  0.41674  1.0000
  O   O56       1.0  0.4455  0.08165  0.8296300000000001  1.0000
  O   O57       1.0  0.56054  0.94259  0.49313  1.0000
  O   O58       1.0  0.65468  0.16522  0.07833  1.0000
  O   O59       1.0  0.65384  0.16318  0.9615600000000001  1.0000
  O   O60       1.0  0.30201  0.16423  0.93101  1.0000
  O   O61       1.0  0.30206  0.16599  0.04771  1.0000
  O   O62       1.0  0.15469  0.66522  0.07833  1.0000
  O   O63       1.0  0.15384  0.66318  0.9615600000000001  1.0000
  O   O64       1.0  0.80201  0.66423  0.93101  1.0000
  O   O65       1.0  0.80206  0.66599  0.04771  1.0000
  O   O66       1.0  0.52514  0.48777  0.97361  1.0000
  O   O67       1.0  0.0545  0.58165  0.17037  1.0000
  O   O68       1.0  0.58039  0.37424  0.90078  1.0000
  O   O69       1.0  0.40116  0.46458  0.028650000000000002  1.0000
  O   O70       1.0  0.41621  0.38084  0.13627  1.0000
  O   O71       1.0  0.025119999999999993  0.9877600000000001  0.97358  1.0000
  O   O72       1.0  0.08040000000000001  0.87426  0.9008000000000002  1.0000
  O   O73       1.0  0.90117  0.96458  0.02866  1.0000
  O   O74       1.0  0.9161999999999999  0.8808299999999999  0.13626  1.0000
  O   O75       1.0  0.9454999999999999  0.58165  0.8296300000000001  1.0000
  O   O76       1.0  0.54543  0.28514  0.1631  1.0000
