data_image0
_chemical_formula_structural       C60Cr6H28O30
_chemical_formula_sum              "C60 Cr6 H28 O30"
_cell_length_a       10.88185
_cell_length_b       11.000610000000002
_cell_length_c       18.78818
_cell_angle_alpha    90.25426
_cell_angle_beta     89.41577
_cell_angle_gamma    119.90666

_space_group_name_H-M_alt    "P 1"
_space_group_IT_number       1

loop_
  _space_group_symop_operation_xyz
  'x, y, z'

loop_
  _atom_site_type_symbol
  _atom_site_label
  _atom_site_symmetry_multiplicity
  _atom_site_fract_x
  _atom_site_fract_y
  _atom_site_fract_z
  _atom_site_occupancy
  C   C1        1.0  0.8679599999999998  0.6355  0.60511  1.0000
  C   C2        1.0  0.91917  0.11463  0.70205  1.0000
  C   C3        1.0  0.9331199999999997  0.11472  0.77708  1.0000
  C   C4        1.0  0.26599000000000006  0.6292400000000001  0.60503  1.0000
  C   C5        1.0  0.73474  0.17744  0.71808  1.0000
  C   C6        1.0  0.77129  0.20974  0.78934  1.0000
  C   C7        1.0  0.60753  0.16993  0.69471  1.0000
  C   C8        1.0  0.5324999999999999  0.21378000000000003  0.73814  1.0000
  C   C9        1.0  0.5840699999999999  0.26941  0.80535  1.0000
  C   C10       1.0  0.7076799999999999  0.27397  0.82913  1.0000
  C   C11       1.0  0.8273999999999999  0.15598  0.67263  1.0000
  C   C12       1.0  0.24321999999999996  0.55468  0.79909  1.0000
  C   C13       1.0  0.70981  0.60454  0.70669  1.0000
  C   C14       1.0  0.69268  0.61233  0.77945  1.0000
  C   C15       1.0  0.80837  0.65262  0.82523  1.0000
  C   C16       1.0  0.85762  0.22219000000000003  0.60166  1.0000
  C   C17       1.0  0.94011  0.6821  0.79839  1.0000
  C   C18       1.0  0.9576999999999998  0.6769100000000001  0.72581  1.0000
  C   C19       1.0  0.84372  0.64195  0.67994  1.0000
  C   C20       1.0  0.23505  0.53831  0.27445  1.0000
  C   C21       1.0  0.25054  0.55558  0.20166  1.0000
  C   C22       1.0  0.33212  0.69  0.17343  1.0000
  C   C23       1.0  0.22864  0.53668  0.72593  1.0000
  C   C24       1.0  0.38342  0.80822  0.21803  1.0000
  C   C25       1.0  0.36444  0.79058  0.29129  1.0000
  C   C26       1.0  0.29634999999999995  0.65512  0.31962  1.0000
  C   C27       1.0  0.8208299999999998  0.30654  0.26573  1.0000
  C   C28       1.0  0.86869  0.63813  0.39676  1.0000
  C   C29       1.0  0.81519  0.27642  0.19333  1.0000
  C   C30       1.0  0.8605999999999999  0.18356  0.16923  1.0000
  C   C31       1.0  0.9271  0.13657  0.21651  1.0000
  C   C32       1.0  0.93718  0.17156  0.28814  1.0000
  C   C33       1.0  0.87987  0.2531  0.31331  1.0000
  C   C34       1.0  0.29753999999999997  0.65252  0.6801  1.0000
  C   C35       1.0  0.9607299999999999  0.71908  0.2778  1.0000
  C   C36       1.0  0.9424499999999999  0.7184  0.20574  1.0000
  C   C37       1.0  0.80602  0.65299  0.1775  1.0000
  C   C38       1.0  0.6850799999999998  0.57519  0.22308000000000003  1.0000
  C   C39       1.0  0.7067699999999999  0.57881  0.29632  1.0000
  C   C40       1.0  0.26611  0.63068  0.39486  1.0000
  C   C41       1.0  0.8429599999999999  0.652  0.32328  1.0000
  C   C42       1.0  0.81027  0.10393  0.89482  1.0000
  C   C43       1.0  0.39532999999999996  0.70212  0.89682  1.0000
  C   C44       1.0  0.7968499999999997  0.69097  0.8973800000000001  1.0000
  C   C45       1.0  0.8539799999999999  0.15907  0.82147  1.0000
  C   C46       1.0  0.81028  0.11011  0.10148  1.0000
  C   C47       1.0  0.39329  0.70467  0.10302  1.0000
  C   C48       1.0  0.7950199999999997  0.69437  0.10541  1.0000
  C   C49       1.0  0.88724  0.29029  0.38825  1.0000
  C   C50       1.0  0.37625  0.78746  0.70765  1.0000
  C   C51       1.0  0.3972  0.80531  0.78061  1.0000
  C   C52       1.0  0.33583  0.68803  0.82627  1.0000
  C   C53       1.0  0.50426  0.31205  0.85362  1.0000
  C   C54       1.0  0.7559699999999999  0.33821  0.14455  1.0000
  C   C55       1.0  0.53725  0.48282  0.19775  1.0000
  C   C56       1.0  0.03016  0.07558  0.80417  1.0000
  C   C57       1.0  0.16547999999999996  0.4324700000000001  0.84596  1.0000
  C   C58       1.0  0.10460999999999998  0.0334  0.75921  1.0000
  C   C59       1.0  0.08498  0.0281  0.68626  1.0000
  C   C60       1.0  0.9929999999999998  0.06790000000000002  0.6577  1.0000
  Cr  Cr1       1.0  0.79166  0.39025000000000004  0.49992999999999993  1.0000
  Cr  Cr2       1.0  0.09852000000000007  0.7082900000000001  0.50054  1.0000
  Cr  Cr3       1.0  0.10977  0.40143  0.49948  1.0000
  Cr  Cr4       1.0  0.87479  0.92589  7e-05  1.0000
  Cr  Cr5       1.0  0.5741200000000001  0.9486700000000001  0.9993  1.0000
  Cr  Cr6       1.0  0.55142  0.62532  0.00092  1.0000
  H   H1        1.0  0.4345999999999999  0.20442  0.71898  1.0000
  H   H2        1.0  0.46846999999999994  0.90955  0.80068  1.0000
  H   H3        1.0  0.7806999999999998  0.37292  0.28511  1.0000
  H   H4        1.0  0.9850499999999999  0.13074  0.32412  1.0000
  H   H5        1.0  0.61852  0.5207  0.33268  1.0000
  H   H6        1.0  0.15922999999999998  0.43267  0.7048  1.0000
  H   H7        1.0  0.17913  0.005850000000000002  0.78119  1.0000
  H   H8        1.0  0.14179999999999993  0.99365  0.65167  1.0000
  H   H9        1.0  0.06053999999999998  0.08739  0.8591799999999999  1.0000
  H   H10       1.0  0.9773100000000002  0.05842000000000001  0.60072  1.0000
  H   H11       1.0  0.74699  0.31635  0.8815500000000001  1.0000
  H   H12       1.0  0.56119  0.12439000000000001  0.64394  1.0000
  H   H13       1.0  0.42466999999999994  0.8773  0.67256  1.0000
  H   H14       1.0  0.5415899999999999  0.34655  0.9072899999999999  1.0000
  H   H15       1.0  0.4064499999999999  0.8815700000000001  0.32573  1.0000
  H   H16       1.0  0.66422  0.34453  0.16085  1.0000
  H   H17       1.0  0.9624699999999999  0.06485  0.1992  1.0000
  H   H18       1.0  0.06812000000000001  0.77021  0.29779  1.0000
  H   H19       1.0  0.03581999999999991  0.77455  0.1722  1.0000
  H   H20       1.0  0.5140899999999999  0.44872999999999996  0.14313  1.0000
  H   H21       1.0  0.15851999999999997  0.33507  0.83116  1.0000
  H   H22       1.0  0.62107  0.57473  0.67145  1.0000
  H   H23       1.0  0.59099  0.59355  0.79952  1.0000
  H   H24       1.0  0.030199999999999973  0.71496  0.83311  1.0000
  H   H25       1.0  0.06102999999999999  0.7021  0.70524  1.0000
  H   H26       1.0  0.17683  0.43303  0.29556  1.0000
  H   H27       1.0  0.20866  0.46348  0.16794  1.0000
  H   H28       1.0  0.4467  0.91343  0.19698  1.0000
  O   O1        1.0  0.7665  0.25004  0.57979  1.0000
  O   O2        1.0  0.41332999999999986  0.60336  0.92044  1.0000
  O   O3        1.0  0.67611  0.62625  0.92675  1.0000
  O   O4        1.0  0.7985699999999999  0.51678  0.57478  1.0000
  O   O5        1.0  0.8953499999999998  0.80987  0.08095  1.0000
  O   O6        1.0  0.8724899999999999  0.04976  0.0738  1.0000
  O   O7        1.0  0.69168  0.08807  0.07907  1.0000
  O   O8        1.0  0.45171999999999995  0.82525  0.07405  1.0000
  O   O9        1.0  0.41357999999999995  0.60637  0.08096  1.0000
  O   O10       1.0  0.67634  0.62904  0.07555  1.0000
  O   O11       1.0  0.66678  0.8332900000000001  9e-05  1.0000
  O   O12       1.0  0.21869  0.7019  0.42596  1.0000
  O   O13       1.0  0.984  0.73295  0.58109  1.0000
  O   O14       1.0  0.21859999999999996  0.70089  0.57476  1.0000
  O   O15       1.0  0.24938999999999995  0.51535  0.57994  1.0000
  O   O16       1.0  0.9827899999999999  0.28090000000000004  0.5737  1.0000
  O   O17       1.0  0.7666  0.25113  0.41926  1.0000
  O   O18       1.0  0.79866  0.51779  0.42597999999999997  1.0000
  O   O19       1.0  0.9840999999999999  0.7340400000000001  0.42057  1.0000
  O   O20       1.0  0.39581000000000005  0.3086400000000001  0.83431  1.0000
  O   O21       1.0  0.80901  0.38158  0.08592  1.0000
  O   O22       1.0  0.43754  0.43422  0.23962000000000003  1.0000
  O   O23       1.0  0.24949  0.51644  0.41942  1.0000
  O   O24       1.0  0.11100999999999996  0.44101  0.9015099999999999  1.0000
  O   O25       1.0  0.9828799999999999  0.28191  0.42489  1.0000
  O   O26       1.0  0.9999799999999998  0.49999  0.49998000000000004  1.0000
  O   O27       1.0  0.89511  0.80686  0.9204299999999999  1.0000
  O   O28       1.0  0.87226  0.04697  0.925  1.0000
  O   O29       1.0  0.6914299999999999  0.08506  0.9185500000000001  1.0000
  O   O30       1.0  0.45149  0.82246  0.92525  1.0000
