data_image0
_chemical_formula_structural       C152Cr12H96O60
_chemical_formula_sum              "C152 Cr12 H96 O60"
_cell_length_a       10.94406
_cell_length_b       19.601249999999997
_cell_length_c       18.58979
_cell_angle_alpha    89.98333
_cell_angle_beta     89.54161
_cell_angle_gamma    90.09518

_space_group_name_H-M_alt    "P 1"
_space_group_IT_number       1

loop_
  _space_group_symop_operation_xyz
  'x, y, z'

loop_
  _atom_site_type_symbol
  _atom_site_label
  _atom_site_symmetry_multiplicity
  _atom_site_fract_x
  _atom_site_fract_y
  _atom_site_fract_z
  _atom_site_occupancy
  C   C1        1.0  0.31626  0.9355799999999999  0.63744  1.0000
  C   C2        1.0  0.15243  0.69812  0.01892  1.0000
  C   C3        1.0  0.10101000000000003  0.19631  0.97193  1.0000
  C   C4        1.0  0.50899  0.29151  0.47612000000000004  1.0000
  C   C5        1.0  0.51066  0.29235  0.02493  1.0000
  C   C6        1.0  0.5994  0.69457  0.52873  1.0000
  C   C7        1.0  0.5035200000000001  0.70697  0.97827  1.0000
  C   C8        1.0  0.13776  0.78067  0.5066400000000001  1.0000
  C   C9        1.0  0.18166000000000004  0.76599  0.9814700000000001  1.0000
  C   C10       1.0  0.18503  0.2376  0.48049  1.0000
  C   C11       1.0  0.18371  0.24107  0.01937  1.0000
  C   C12       1.0  0.63769  0.28062  0.50667  1.0000
  C   C13       1.0  0.14878  0.30409  0.51847  1.0000
  C   C14       1.0  0.63815  0.28014  0.9923600000000001  1.0000
  C   C15       1.0  0.68501  0.73755  0.4805  1.0000
  C   C16       1.0  0.63394  0.71537  0.00744  1.0000
  C   C17       1.0  0.07969  0.74808  0.57382  1.0000
  C   C18       1.0  0.08142000000000002  0.7512  0.92676  1.0000
  C   C19       1.0  0.08165000000000001  0.24818  0.42687  1.0000
  C   C20       1.0  0.07964  0.25011  0.07387  1.0000
  C   C21       1.0  0.5796  0.24804  0.57386  1.0000
  C   C22       1.0  0.57773  0.24912  0.9257800000000002  1.0000
  C   C23       1.0  0.58168  0.74819  0.42688  1.0000
  C   C24       1.0  0.14444  0.30654  0.98099  1.0000
  C   C25       1.0  0.58083  0.75177  0.0738  1.0000
  C   C26       1.0  0.95132  0.75883  0.54447  1.0000
  C   C27       1.0  0.98805  0.79055  0.9730200000000001  1.0000
  C   C28       1.0  0.9949400000000002  0.20493999999999998  0.4742700000000001  1.0000
  C   C29       1.0  0.99552  0.20544  0.027  1.0000
  C   C30       1.0  0.45124000000000003  0.25879  0.5445  1.0000
  C   C31       1.0  0.45055000000000006  0.26151  0.95694  1.0000
  C   C32       1.0  0.49490000000000006  0.70499  0.47425  1.0000
  C   C33       1.0  0.45103  0.74344  0.045970000000000004  1.0000
  C   C34       1.0  0.9579400000000002  0.68762  0.50768  1.0000
  C   C35       1.0  0.64641  0.20952000000000004  0.47195999999999994  1.0000
  C   C36       1.0  0.9567900000000003  0.72272  0.01196  1.0000
  C   C37       1.0  0.95671  0.2716  0.51347  1.0000
  C   C38       1.0  0.95451  0.27122  0.9875199999999998  1.0000
  C   C39       1.0  0.4578700000000001  0.18758  0.50772  1.0000
  C   C40       1.0  0.45419  0.18977  0.99265  1.0000
  C   C41       1.0  0.4567700000000001  0.77166  0.51346  1.0000
  C   C42       1.0  0.46308  0.81324  0.00672  1.0000
  C   C43       1.0  0.08492  0.67827  0.53911  1.0000
  C   C44       1.0  0.05061  0.68531  0.9643500000000002  1.0000
  C   C45       1.0  0.04444  0.31281  0.46495  1.0000
  C   C46       1.0  0.64443  0.20837999999999998  0.02587  1.0000
  C   C47       1.0  0.03975  0.31409  0.03528  1.0000
  C   C48       1.0  0.58483  0.17823  0.53917  1.0000
  C   C49       1.0  0.57985  0.17892  0.95918  1.0000
  C   C50       1.0  0.5445700000000001  0.81282  0.46496  1.0000
  C   C51       1.0  0.5915900000000001  0.8203200000000002  0.0365  1.0000
  C   C52       1.0  0.0367  0.60202  0.631  1.0000
  C   C53       1.0  0.92369  0.62886  0.88525  1.0000
  C   C54       1.0  0.9138800000000001  0.36636  0.38572  1.0000
  C   C55       1.0  0.90718  0.36745  0.11450999999999999  1.0000
  C   C56       1.0  0.53665  0.10204000000000002  0.63115  1.0000
  C   C57       1.0  0.6488500000000001  0.80404  0.51849  1.0000
  C   C58       1.0  0.52486  0.10620999999999998  0.86552  1.0000
  C   C59       1.0  0.41423000000000004  0.86646  0.38567  1.0000
  C   C60       1.0  0.55479  0.90092  0.12593  1.0000
  C   C61       1.0  0.6480400000000001  0.78526  0.97009  1.0000
  C   C62       1.0  0.01831  0.72133  0.44063  1.0000
  C   C63       1.0  0.06021000000000001  0.73769  0.06577  1.0000
  C   C64       1.0  0.06314  0.26081  0.56631  1.0000
  C   C65       1.0  0.31595  0.93736  0.86284  1.0000
  C   C66       1.0  0.061510000000000016  0.26153  0.9340500000000002  1.0000
  C   C67       1.0  0.5182500000000001  0.22128  0.44065999999999994  1.0000
  C   C68       1.0  0.51743  0.22144999999999998  0.05933  1.0000
  C   C69       1.0  0.56313  0.76082  0.56632  1.0000
  C   C70       1.0  0.51831  0.77627  0.9403700000000002  1.0000
  C   C71       1.0  0.32188  0.03719  0.4376900000000001  1.0000
  C   C72       1.0  0.32364  0.04162  0.06143  1.0000
  C   C73       1.0  0.32291  0.95551  0.56132  1.0000
  C   C74       1.0  0.323  0.9610099999999999  0.93735  1.0000
  C   C75       1.0  0.8218600000000001  0.53718  0.4376900000000001  1.0000
  C   C76       1.0  0.31589  0.06192000000000001  0.36312  1.0000
  C   C77       1.0  0.8220000000000002  0.54097  0.06130000000000001  1.0000
  C   C78       1.0  0.8228900000000002  0.45547999999999994  0.56132  1.0000
  C   C79       1.0  0.8221  0.45856  0.9380800000000001  1.0000
  C   C80       1.0  0.5476  0.04301  0.44312  1.0000
  C   C81       1.0  0.5497900000000001  0.04725  0.05355  1.0000
  C   C82       1.0  0.54985  0.9535700000000001  0.55508  1.0000
  C   C83       1.0  0.55114  0.9579299999999998  0.9414900000000002  1.0000
  C   C84       1.0  0.04757  0.543  0.44312  1.0000
  C   C85       1.0  0.04759  0.54652  0.05359000000000001  1.0000
  C   C86       1.0  0.04982  0.45353  0.55505  1.0000
  C   C87       1.0  0.31668  0.06329  0.13714  1.0000
  C   C88       1.0  0.049429999999999995  0.45785999999999993  0.9409500000000001  1.0000
  C   C89       1.0  0.65718  0.02475  0.4728299999999999  1.0000
  C   C90       1.0  0.65941  0.02904  0.02214  1.0000
  C   C91       1.0  0.65879  0.97972  0.52929  1.0000
  C   C92       1.0  0.6604100000000002  0.9842  0.9654299999999999  1.0000
  C   C93       1.0  0.15716  0.52472  0.47281  1.0000
  C   C94       1.0  0.15692  0.52894  0.02136  1.0000
  C   C95       1.0  0.15876000000000004  0.47968000000000005  0.52926  1.0000
  C   C96       1.0  0.15823  0.48476  0.96445  1.0000
  C   C97       1.0  0.43533000000000005  0.9746199999999999  0.52867  1.0000
  C   C98       1.0  0.81625  0.43556999999999996  0.63744  1.0000
  C   C99       1.0  0.43642000000000003  0.98019  0.96841  1.0000
  C   C100      1.0  0.43461  0.01773  0.46843000000000007  1.0000
  C   C101      1.0  0.4362700000000001  0.02325  0.028650000000000002  1.0000
  C   C102      1.0  0.93531  0.47457999999999995  0.52865  1.0000
  C   C103      1.0  0.9348200000000002  0.47886999999999996  0.9687  1.0000
  C   C104      1.0  0.9345900000000003  0.51771  0.46842  1.0000
  C   C105      1.0  0.93441  0.52187  0.02907  1.0000
  C   C106      1.0  0.21186000000000002  0.9706599999999999  0.52657  1.0000
  C   C107      1.0  0.21219  0.9768599999999998  0.9729299999999999  1.0000
  C   C108      1.0  0.21113  0.01988  0.47269  1.0000
  C   C109      1.0  0.8156600000000002  0.43645999999999996  0.86277  1.0000
  C   C110      1.0  0.21278  0.025710000000000004  0.026930000000000003  1.0000
  C   C111      1.0  0.71184  0.47064  0.52656  1.0000
  C   C112      1.0  0.71112  0.47401  0.97378  1.0000
  C   C113      1.0  0.71112  0.51986  0.47269  1.0000
  C   C114      1.0  0.7107800000000001  0.52374  0.027270000000000003  1.0000
  C   C115      1.0  0.09992  0.93869  0.54501  1.0000
  C   C116      1.0  0.09949000000000002  0.94518  0.9561999999999999  1.0000
  C   C117      1.0  0.09727  0.04624  0.45105000000000006  1.0000
  C   C118      1.0  0.09976  0.05239  0.05028  1.0000
  C   C119      1.0  0.5999000000000001  0.43867999999999996  0.54501  1.0000
  C   C120      1.0  0.81588  0.56192  0.36312  1.0000
  C   C121      1.0  0.59907  0.4416  0.9569900000000001  1.0000
  C   C122      1.0  0.5972600000000001  0.54623  0.45105000000000006  1.0000
  C   C123      1.0  0.59677  0.55018  0.05004  1.0000
  C   C124      1.0  0.9919200000000001  0.95635  0.51177  1.0000
  C   C125      1.0  0.99219  0.96305  0.99188  1.0000
  C   C126      1.0  0.9908400000000002  0.01081  0.46485  1.0000
  C   C127      1.0  0.99264  0.01753  0.038590000000000006  1.0000
  C   C128      1.0  0.49191  0.45634  0.51177  1.0000
  C   C129      1.0  0.49101  0.45972  0.9912800000000002  1.0000
  C   C130      1.0  0.4908299999999999  0.5108  0.46485  1.0000
  C   C131      1.0  0.81628  0.56322  0.13701  1.0000
  C   C132      1.0  0.49034  0.51455  0.03782  1.0000
  C   C133      1.0  0.13382  0.75849  0.64414  1.0000
  C   C134      1.0  0.12797  0.75729  0.85357  1.0000
  C   C135      1.0  0.12774  0.24265000000000003  0.35353  1.0000
  C   C136      1.0  0.12718  0.24309  0.14687000000000003  1.0000
  C   C137      1.0  0.6337900000000001  0.25848  0.64416  1.0000
  C   C138      1.0  0.63314  0.25865  0.85563  1.0000
  C   C139      1.0  0.6277500000000001  0.74264  0.35353  1.0000
  C   C140      1.0  0.6340700000000001  0.74148  0.14413000000000004  1.0000
  C   C141      1.0  0.53922  0.77171  0.64303  1.0000
  C   C142      1.0  0.14648  0.70957  0.47191  1.0000
  C   C143      1.0  0.4952400000000001  0.78779  0.8627500000000001  1.0000
  C   C144      1.0  0.4947900000000001  0.21162  0.36263  1.0000
  C   C145      1.0  0.49465  0.21145000000000003  0.13759  1.0000
  C   C146      1.0  0.03923000000000001  0.2717  0.64303  1.0000
  C   C147      1.0  0.03837  0.27189  0.85717  1.0000
  C   C148      1.0  0.99481  0.71163  0.36263  1.0000
  C   C149      1.0  0.03777  0.7277  0.14261  1.0000
  C   C150      1.0  0.009060000000000004  0.79156  0.4761  1.0000
  C   C151      1.0  0.08943000000000001  0.80505  0.02875  1.0000
  C   C152      1.0  0.09949000000000001  0.19457  0.52873  1.0000
  Cr  Cr1       1.0  0.48816000000000004  0.88466  0.75  1.0000
  Cr  Cr2       1.0  0.33341  0.27274  0.25  1.0000
  Cr  Cr3       1.0  0.83341  0.22726000000000002  0.75  1.0000
  Cr  Cr4       1.0  0.83341  0.77274  0.25  1.0000
  Cr  Cr5       1.0  0.48816000000000004  0.11534  0.25  1.0000
  Cr  Cr6       1.0  0.98816  0.38466  0.75  1.0000
  Cr  Cr7       1.0  0.98816  0.61534  0.25  1.0000
  Cr  Cr8       1.0  0.17348  0.8831199999999999  0.75  1.0000
  Cr  Cr9       1.0  0.17348  0.11688  0.25  1.0000
  Cr  Cr10      1.0  0.67348  0.38312  0.75  1.0000
  Cr  Cr11      1.0  0.67348  0.61688  0.25  1.0000
  Cr  Cr12      1.0  0.33341  0.72726  0.75  1.0000
  H   H1        1.0  0.20286000000000004  0.82326  0.50338  1.0000
  H   H2        1.0  0.9102  0.9337699999999999  0.9848199999999999  1.0000
  H   H3        1.0  0.9113  0.02352  0.43497  1.0000
  H   H4        1.0  0.9137800000000001  0.030719999999999997  0.06999  1.0000
  H   H5        1.0  0.41115  0.4262  0.52133  1.0000
  H   H6        1.0  0.40943000000000007  0.43001999999999996  0.98277  1.0000
  H   H7        1.0  0.41128  0.52351  0.43497  1.0000
  H   H8        1.0  0.41105  0.52747  0.06881  1.0000
  H   H9        1.0  0.97583  0.83688  0.4467  1.0000
  H   H10       1.0  0.10899  0.85194  0.05996  1.0000
  H   H11       1.0  0.1256  0.1471  0.55726  1.0000
  H   H12       1.0  0.2671  0.78419  0.95801  1.0000
  H   H13       1.0  0.12991  0.14931  0.9433  1.0000
  H   H14       1.0  0.47578  0.33684  0.44672000000000006  1.0000
  H   H15       1.0  0.48042  0.33818  0.054900000000000004  1.0000
  H   H16       1.0  0.62539  0.6471  0.55725  1.0000
  H   H17       1.0  0.4658500000000001  0.6598  0.9538400000000001  1.0000
  H   H18       1.0  0.87621  0.77895  0.57851  1.0000
  H   H19       1.0  0.92207  0.8262600000000001  0.94923  1.0000
  H   H20       1.0  0.93106  0.16548  0.45431  1.0000
  H   H21       1.0  0.9319200000000001  0.1658  0.04744  1.0000
  H   H22       1.0  0.37611  0.27893  0.57851  1.0000
  H   H23       1.0  0.27219  0.22506  0.45538000000000006  1.0000
  H   H24       1.0  0.3764  0.28351  0.9241900000000001  1.0000
  H   H25       1.0  0.43102000000000007  0.66556  0.45427  1.0000
  H   H26       1.0  0.37559  0.72746  0.0822  1.0000
  H   H27       1.0  0.8849900000000003  0.64865  0.50979  1.0000
  H   H28       1.0  0.87009  0.70343  0.03347  1.0000
  H   H29       1.0  0.86885  0.28587  0.53727  1.0000
  H   H30       1.0  0.86692  0.28298  0.9631500000000001  1.0000
  H   H31       1.0  0.38488  0.14862  0.50985  1.0000
  H   H32       1.0  0.37897000000000003  0.15231  0.99056  1.0000
  H   H33       1.0  0.36894000000000005  0.78595  0.53725  1.0000
  H   H34       1.0  0.2715  0.2318  0.0442  1.0000
  H   H35       1.0  0.39282  0.8533700000000001  0.00946  1.0000
  H   H36       1.0  0.22587000000000002  0.68848  0.44217  1.0000
  H   H37       1.0  0.22303  0.66326  0.03917  1.0000
  H   H38       1.0  0.21504  0.34301  0.53663  1.0000
  H   H39       1.0  0.20929999999999999  0.34624  0.96227  1.0000
  H   H40       1.0  0.72584  0.18841  0.44225000000000003  1.0000
  H   H41       1.0  0.72355  0.18578  0.053869999999999994  1.0000
  H   H42       1.0  0.71511  0.84296  0.53667  1.0000
  H   H43       1.0  0.7267  0.80335  0.93775  1.0000
  H   H44       1.0  0.73688  0.05275  0.45711000000000007  1.0000
  H   H45       1.0  0.70274  0.32323  0.50341  1.0000
  H   H46       1.0  0.74048  0.05526  0.03799  1.0000
  H   H47       1.0  0.74219  0.96833  0.55687  1.0000
  H   H48       1.0  0.74411  0.97105  0.93802  1.0000
  H   H49       1.0  0.23686  0.55273  0.4571  1.0000
  H   H50       1.0  0.23882  0.55307  0.03835  1.0000
  H   H51       1.0  0.24216000000000004  0.46828  0.55684  1.0000
  H   H52       1.0  0.24243000000000003  0.47175999999999996  0.93738  1.0000
  H   H53       1.0  0.55428  0.08324  0.40624  1.0000
  H   H54       1.0  0.55709  0.08465  0.09327  1.0000
  H   H55       1.0  0.5589000000000001  0.91634  0.59496  1.0000
  H   H56       1.0  0.70252  0.32315  0.99452  1.0000
  H   H57       1.0  0.56091  0.91938  0.9028399999999999  1.0000
  H   H58       1.0  0.05424  0.58326  0.40627  1.0000
  H   H59       1.0  0.053950000000000005  0.58548  0.09198  1.0000
  H   H60       1.0  0.05886  0.41629  0.59493  1.0000
  H   H61       1.0  0.059200000000000016  0.41875999999999997  0.9029300000000001  1.0000
  H   H62       1.0  0.09054  0.09073  0.4176  1.0000
  H   H63       1.0  0.09482000000000003  0.09622  0.08438000000000001  1.0000
  H   H64       1.0  0.09551000000000001  0.89707  0.58186  1.0000
  H   H65       1.0  0.09495000000000002  0.9028399999999999  0.91992  1.0000
  H   H66       1.0  0.59053  0.59072  0.4176  1.0000
  H   H67       1.0  0.77213  0.72497  0.45541000000000004  1.0000
  H   H68       1.0  0.58958  0.59455  0.08367  1.0000
  H   H69       1.0  0.59548  0.39706  0.58187  1.0000
  H   H70       1.0  0.5946300000000001  0.39947  0.92048  1.0000
  H   H71       1.0  0.9496800000000001  0.58508  0.60697  1.0000
  H   H72       1.0  0.01576  0.64399  0.66906  1.0000
  H   H73       1.0  0.07365  0.5592  0.6631200000000002  1.0000
  H   H74       1.0  0.9192000000000001  0.6754  0.85118  1.0000
  H   H75       1.0  0.84328  0.62639  0.9218900000000001  1.0000
  H   H76       1.0  0.91885  0.58437  0.8486100000000002  1.0000
  H   H77       1.0  0.8325200000000001  0.36867  0.42137  1.0000
  H   H78       1.0  0.69572  0.67114  0.00536  1.0000
  H   H79       1.0  0.91231  0.31893  0.35295  1.0000
  H   H80       1.0  0.90821  0.40989999999999993  0.3478  1.0000
  H   H81       1.0  0.9094900000000001  0.32115  0.14905  1.0000
  H   H82       1.0  0.8252100000000001  0.36687  0.08002  1.0000
  H   H83       1.0  0.8990700000000001  0.41206  0.15086  1.0000
  H   H84       1.0  0.44963000000000003  0.08506  0.60717  1.0000
  H   H85       1.0  0.51573  0.14404  0.66917  1.0000
  H   H86       1.0  0.5736600000000001  0.05927  0.66334  1.0000
  H   H87       1.0  0.50787  0.14921  0.8282500000000002  1.0000
  H   H88       1.0  0.43639000000000006  0.0913  0.8901  1.0000
  H   H89       1.0  0.91116  0.92622  0.52134  1.0000
  H   H90       1.0  0.55786  0.06293  0.8323100000000001  1.0000
  H   H91       1.0  0.33279  0.86887  0.42124000000000006  1.0000
  H   H92       1.0  0.41258000000000006  0.819  0.35295  1.0000
  H   H93       1.0  0.40882000000000007  0.9099599999999999  0.3477  1.0000
  H   H94       1.0  0.53537  0.8615699999999998  0.16715  1.0000
  H   H95       1.0  0.46556  0.91625  0.10403  1.0000
  H   H96       1.0  0.59525  0.9451700000000001  0.15427  1.0000
  O   O1        1.0  0.57545  0.8288199999999999  0.66795  1.0000
  O   O2        1.0  0.41686000000000006  0.94289  0.82532  1.0000
  O   O3        1.0  0.41686000000000006  0.057109999999999994  0.32532000000000005  1.0000
  O   O4        1.0  0.41686000000000006  0.057109999999999994  0.17468  1.0000
  O   O5        1.0  0.9168600000000001  0.44289000000000006  0.67468  1.0000
  O   O6        1.0  0.9168600000000001  0.44289000000000006  0.82532  1.0000
  O   O7        1.0  0.9168600000000001  0.55711  0.32532000000000005  1.0000
  O   O8        1.0  0.9168600000000001  0.55711  0.17468  1.0000
  O   O9        1.0  0.21379  0.95368  0.6683300000000001  1.0000
  O   O10       1.0  0.21379  0.95368  0.83167  1.0000
  O   O11       1.0  0.21379  0.04632  0.33167  1.0000
  O   O12       1.0  0.57545  0.8288199999999999  0.83205  1.0000
  O   O13       1.0  0.21379  0.04632  0.16833  1.0000
  O   O14       1.0  0.71379  0.4536800000000001  0.6683300000000001  1.0000
  O   O15       1.0  0.71379  0.4536800000000001  0.83167  1.0000
  O   O16       1.0  0.71379  0.54632  0.33167  1.0000
  O   O17       1.0  0.71379  0.54632  0.16833  1.0000
  O   O18       1.0  0.12136000000000001  0.81789  0.67266  1.0000
  O   O19       1.0  0.12136000000000001  0.81789  0.82734  1.0000
  O   O20       1.0  0.12136000000000001  0.18211  0.32734  1.0000
  O   O21       1.0  0.12136000000000001  0.18211  0.17266  1.0000
  O   O22       1.0  0.62136  0.31789  0.67266  1.0000
  O   O23       1.0  0.57545  0.17118  0.33205  1.0000
  O   O24       1.0  0.62136  0.31789  0.82734  1.0000
  O   O25       1.0  0.62136  0.68211  0.32734  1.0000
  O   O26       1.0  0.62136  0.68211  0.17266  1.0000
  O   O27       1.0  0.20685000000000003  0.71137  0.6658200000000001  1.0000
  O   O28       1.0  0.20685000000000003  0.71137  0.83418  1.0000
  O   O29       1.0  0.20685000000000003  0.28863  0.33418  1.0000
  O   O30       1.0  0.20685000000000003  0.28863  0.16582  1.0000
  O   O31       1.0  0.70685  0.21137  0.6658200000000001  1.0000
  O   O32       1.0  0.70685  0.21137  0.83418  1.0000
  O   O33       1.0  0.70685  0.78863  0.33418  1.0000
  O   O34       1.0  0.57545  0.17118  0.16795  1.0000
  O   O35       1.0  0.70685  0.78863  0.16582  1.0000
  O   O36       1.0  0.45771  0.73319  0.67263  1.0000
  O   O37       1.0  0.45771  0.73319  0.82737  1.0000
  O   O38       1.0  0.45771  0.26681  0.32737  1.0000
  O   O39       1.0  0.45771  0.26681  0.17263  1.0000
  O   O40       1.0  0.95771  0.23319  0.67263  1.0000
  O   O41       1.0  0.95771  0.23319  0.82737  1.0000
  O   O42       1.0  0.95771  0.76681  0.32737  1.0000
  O   O43       1.0  0.95771  0.76681  0.17263  1.0000
  O   O44       1.0  0.33169  0.83168  0.75  1.0000
  O   O45       1.0  0.07545  0.32882  0.66795  1.0000
  O   O46       1.0  0.33169  0.16832  0.25  1.0000
  O   O47       1.0  0.83169  0.33168  0.75  1.0000
  O   O48       1.0  0.83169  0.66832  0.25  1.0000
  O   O49       1.0  0.12423  0.62025  0.57762  1.0000
  O   O50       1.0  0.0334  0.6249  0.9244100000000001  1.0000
  O   O51       1.0  0.021730000000000006  0.37326  0.42612  1.0000
  O   O52       1.0  0.01389  0.37522  0.07232  1.0000
  O   O53       1.0  0.62413  0.12021999999999998  0.57771  1.0000
  O   O54       1.0  0.61419  0.12115999999999999  0.91822  1.0000
  O   O55       1.0  0.5219900000000001  0.87328  0.42615  1.0000
  O   O56       1.0  0.07545  0.32882  0.83205  1.0000
  O   O57       1.0  0.63718  0.8792800000000001  0.07107  1.0000
  O   O58       1.0  0.07545  0.67118  0.33205  1.0000
  O   O59       1.0  0.07545  0.67118  0.16795  1.0000
  O   O60       1.0  0.41686000000000006  0.94289  0.67468  1.0000
