data_image0
_chemical_formula_structural       C42Cu2F8H20N12O12
_chemical_formula_sum              "C42 Cu2 F8 H20 N12 O12"
_cell_length_a       27.85575
_cell_length_b       8.7597
_cell_length_c       7.43304
_cell_angle_alpha    102.85135
_cell_angle_beta     94.26661
_cell_angle_gamma    93.24477999999999

_symmetry_space_group_name_H-M    'P 1'
_symmetry_Int_Tables_number       1

loop_
  _symmetry_equiv_pos_as_xyz
  'x,y,z'

loop_
  _atom_site_type_symbol
  _atom_site_label
  _atom_site_symmetry_multiplicity
  _atom_site_fract_x
  _atom_site_fract_y
  _atom_site_fract_z
  _atom_site_occupancy
  C   C1        1.0  0.49902  0.20064000000000004  0.4544300000000001  1.0000
  C   C2        1.0  0.86999  0.35602  0.46589  1.0000
  C   C3        1.0  0.35477  0.50176  0.50816  1.0000
  C   C4        1.0  0.64588  0.49921  0.49373  1.0000
  C   C5        1.0  0.97188  0.35201000000000005  0.47026  1.0000
  C   C6        1.0  0.031190000000000002  0.63222  0.6232300000000001  1.0000
  C   C7        1.0  0.9800799999999997  0.63586  0.60968  1.0000
  C   C8        1.0  0.022820000000000003  0.3522700000000001  0.46494000000000013  1.0000
  C   C9        1.0  0.95063  0.49515999999999993  0.53621  1.0000
  C   C10       1.0  0.05233  0.49172000000000005  0.54442  1.0000
  C   C11       1.0  0.94125  0.21271999999999996  0.41154  1.0000
  C   C12       1.0  0.50093  0.79936  0.54556  1.0000
  C   C13       1.0  0.062069999999999986  0.76493  0.71374  1.0000
  C   C14       1.0  0.89148  0.21448  0.40841  1.0000
  C   C15       1.0  0.11182999999999998  0.7637  0.7161  1.0000
  C   C16       1.0  0.40757  0.5012  0.5023  1.0000
  C   C17       1.0  0.5926399999999997  0.49928000000000006  0.49744  1.0000
  C   C18       1.0  0.045229999999999985  0.21761000000000003  0.3796  1.0000
  C   C19       1.0  0.95736  0.77656  0.66612  1.0000
  C   C20       1.0  0.50488  0.03714000000000003  0.4315500000000001  1.0000
  C   C21       1.0  0.4949999999999999  0.96283  0.56836  1.0000
  C   C22       1.0  0.17568  0.35951  0.45750000000000013  1.0000
  C   C23       1.0  0.10343999999999998  0.49113000000000007  0.54446  1.0000
  C   C24       1.0  0.82684  0.63886  0.56448  1.0000
  C   C25       1.0  0.18335  0.62708  0.6243700000000001  1.0000
  C   C26       1.0  0.81963  0.35977  0.46476  1.0000
  C   C27       1.0  0.27552  0.56649  0.39592000000000005  1.0000
  C   C28       1.0  0.71887  0.44508  0.33306  1.0000
  C   C29       1.0  0.32572  0.56879  0.3850900000000001  1.0000
  C   C30       1.0  0.6682099999999997  0.44155  0.32821  1.0000
  C   C31       1.0  0.33277  0.43492  0.64003  1.0000
  C   C32       1.0  0.67543  0.55659  0.66071  1.0000
  C   C33       1.0  0.28307999999999994  0.43370999999999993  0.64966  1.0000
  C   C34       1.0  0.89945  0.4974  0.52847  1.0000
  C   C35       1.0  0.7253699999999997  0.55576  0.66419  1.0000
  C   C36       1.0  0.25446  0.4986999999999999  0.52806  1.0000
  C   C37       1.0  0.74738  0.5007  0.5016  1.0000
  C   C38       1.0  0.12496  0.35377  0.45928  1.0000
  C   C39       1.0  0.87769  0.64053  0.58371  1.0000
  C   C40       1.0  0.09518999999999998  0.21671000000000007  0.3766100000000001  1.0000
  C   C41       1.0  0.9072799999999999  0.78003  0.65562  1.0000
  C   C42       1.0  0.13307  0.6285999999999999  0.62907  1.0000
  Cu  Cu1       1.0  0.50538  0.51738  0.68438  1.0000
  Cu  Cu2       1.0  0.49462  0.48262  0.31562000000000007  1.0000
  F   F1        1.0  0.35917999999999994  0.3666  0.75695  1.0000
  F   F2        1.0  0.6562599999999997  0.61548  0.82232  1.0000
  F   F3        1.0  0.4497799999999999  0.37165  0.9296800000000002  1.0000
  F   F4        1.0  0.5501  0.629  0.07061  1.0000
  F   F5        1.0  0.26248  0.36819  0.77717  1.0000
  F   F6        1.0  0.75273  0.60952  0.82741  1.0000
  F   F7        1.0  0.86462  0.07577  0.34591  1.0000
  F   F8        1.0  0.13887  0.89694  0.80423  1.0000
  H   H1        1.0  0.95456  0.09826  0.37053  1.0000
  H   H2        1.0  0.62259  0.4633399999999999  0.11047  1.0000
  H   H3        1.0  0.36008  0.55835  0.15138000000000004  1.0000
  H   H4        1.0  0.37384  0.72656  0.31918  1.0000
  H   H5        1.0  0.7300099999999998  0.2758  0.10928  1.0000
  H   H6        1.0  0.73061  0.4595099999999999  0.07227000000000001  1.0000
  H   H7        1.0  0.25674  0.7504800000000001  0.2898400000000001  1.0000
  H   H8        1.0  0.25007  0.57438  0.13628  1.0000
  H   H9        1.0  0.4992899999999999  0.88572  0.17625000000000005  1.0000
  H   H10       1.0  0.55582  0.90735  0.2966  1.0000
  H   H11       1.0  0.50053  0.11421000000000005  0.8236800000000002  1.0000
  H   H12       1.0  0.04906  0.87224  0.78819  1.0000
  H   H13       1.0  0.44404  0.09272000000000004  0.7031000000000002  1.0000
  H   H14       1.0  0.024949999999999993  0.11033  0.30793  1.0000
  H   H15       1.0  0.97738  0.88865  0.71635  1.0000
  H   H16       1.0  0.10034999999999998  0.04306  0.14982  1.0000
  H   H17       1.0  0.10432999999999998  0.98579  0.3530300000000001  1.0000
  H   H18       1.0  0.8988699999999997  0.9647999999999999  0.8656400000000002  1.0000
  H   H19       1.0  0.90081  0.008980000000000035  0.6565500000000002  1.0000
  H   H20       1.0  0.6163899999999998  0.28541  0.17023  1.0000
  N   N1        1.0  0.20324  0.49473  0.53789  1.0000
  N   N2        1.0  0.24531  0.63191  0.2722  1.0000
  N   N3        1.0  0.52528  0.96352  0.26424  1.0000
  N   N4        1.0  0.47455  0.03644999999999998  0.73557  1.0000
  N   N5        1.0  0.7991499999999998  0.49985000000000007  0.50904  1.0000
  N   N6        1.0  0.4865099999999999  0.45643  0.03851  1.0000
  N   N7        1.0  0.51349  0.54357  0.96149  1.0000
  N   N8        1.0  0.11505999999999997  0.07464  0.28773  1.0000
  N   N9        1.0  0.8870699999999998  0.92637  0.72502  1.0000
  N   N10       1.0  0.64085  0.37543  0.15429  1.0000
  N   N11       1.0  0.34615  0.64334  0.25189  1.0000
  N   N12       1.0  0.74186  0.39323  0.16617  1.0000
  O   O1        1.0  0.5035  0.28612  0.6197800000000001  1.0000
  O   O2        1.0  0.8049499999999998  0.7745700000000001  0.5988400000000001  1.0000
  O   O3        1.0  0.79114  0.22458999999999998  0.42124  1.0000
  O   O4        1.0  0.21239  0.7566900000000001  0.7044300000000002  1.0000
  O   O5        1.0  0.4965  0.71388  0.38022  1.0000
  O   O6        1.0  0.49440999999999996  0.25678  0.30836  1.0000
  O   O7        1.0  0.50559  0.74322  0.6916400000000001  1.0000
  O   O8        1.0  0.43480999999999986  0.5147  0.65569  1.0000
  O   O9        1.0  0.56519  0.4853  0.34431  1.0000
  O   O10       1.0  0.42572  0.48534999999999995  0.34428  1.0000
  O   O11       1.0  0.57428  0.51465  0.65572  1.0000
  O   O12       1.0  0.19762  0.23225  0.37511000000000005  1.0000
