data_image0
_chemical_formula_structural       C42Cr6H16O26CNBr
_chemical_formula_sum              "C43 Cr6 H16 O26 N1 Br1"
_cell_length_a       10.63812
_cell_length_b       10.75791
_cell_length_c       17.03764
_cell_angle_alpha    80.65932
_cell_angle_beta     99.21190999999999
_cell_angle_gamma    118.81702000000001

_symmetry_space_group_name_H-M    'P 1'
_symmetry_Int_Tables_number       1

loop_
  _symmetry_equiv_pos_as_xyz
  'x,y,z'

loop_
  _atom_site_type_symbol
  _atom_site_label
  _atom_site_symmetry_multiplicity
  _atom_site_fract_x
  _atom_site_fract_y
  _atom_site_fract_z
  _atom_site_occupancy
  C   C1        1.0  0.38418  0.28333  0.63208  1.0000
  C   C2        1.0  0.38750000000000007  0.8285300000000001  0.67297  1.0000
  C   C3        1.0  0.37158999999999986  0.85057  0.74883  1.0000
  C   C4        1.0  0.15113000000000001  0.45536  0.79822  1.0000
  C   C5        1.0  0.16429999999999997  0.43176000000000003  0.7149399999999999  1.0000
  C   C6        1.0  0.31333  0.69042  0.6472  1.0000
  C   C7        1.0  0.8234299999999997  0.65677  0.7059399999999999  1.0000
  C   C8        1.0  0.85132  0.6847200000000001  0.77369  1.0000
  C   C9        1.0  0.3641999999999999  0.23097999999999996  0.71408  1.0000
  C   C10       1.0  0.33311999999999997  0.18405  0.7811899999999998  1.0000
  C   C11       1.0  0.33562  0.66344  0.27772  1.0000
  C   C12       1.0  0.3689899999999998  0.6544799999999998  0.58593  1.0000
  C   C13       1.0  0.3231699999999999  0.6728999999999999  0.20696  1.0000
  C   C14       1.0  0.8697199999999999  0.68585  0.16796  1.0000
  C   C15       1.0  0.9143  0.60197  0.22432999999999995  1.0000
  C   C16       1.0  0.90475  0.59553  0.30397  1.0000
  C   C17       1.0  0.8342399999999998  0.78199  0.27619  1.0000
  C   C18       1.0  0.84341  0.78693  0.19487  1.0000
  C   C19       1.0  0.8774  0.4490199999999999  0.2277  1.0000
  C   C20       1.0  0.86626  0.44014999999999993  0.31611  1.0000
  C   C21       1.0  0.84931  0.67429  0.32995  1.0000
  C   C22       1.0  0.33835999999999994  0.18322  0.15509999999999993  1.0000
  C   C23       1.0  0.7769599999999998  0.61886  0.62678  1.0000
  C   C24       1.0  0.26452  0.24625  0.17893  1.0000
  C   C25       1.0  0.26938999999999996  0.25766  0.25816  1.0000
  C   C26       1.0  0.44336999999999993  0.1708  0.29169  1.0000
  C   C27       1.0  0.4403999999999999  0.16017000000000003  0.21082999999999993  1.0000
  C   C28       1.0  0.11075000000000002  0.21909999999999996  0.16414  1.0000
  C   C29       1.0  0.11779999999999997  0.23241999999999996  0.2521  1.0000
  C   C30       1.0  0.34617  0.20652  0.31626  1.0000
  C   C31       1.0  0.89228  0.70213  0.85584  1.0000
  C   C32       1.0  0.2819599999999999  0.7505599999999998  0.88281  1.0000
  C   C33       1.0  0.28613  0.11704000000000002  0.85802  1.0000
  C   C34       1.0  0.3539399999999999  0.23207999999999998  0.39747  1.0000
  C   C35       1.0  0.8933699999999999  0.69389  0.08617999999999998  1.0000
  C   C36       1.0  0.31306999999999996  0.70075  0.12382  1.0000
  C   C37       1.0  0.28801999999999994  0.11143999999999998  0.08346  1.0000
  C   C38       1.0  0.3651299999999999  0.65387  0.36077  1.0000
  C   C39       1.0  0.77535  0.6241699999999999  0.40129  1.0000
  C   C40       1.0  0.28144999999999987  0.73495  0.7992499999999998  1.0000
  C   C41       1.0  0.18825  0.60618  0.76639  1.0000
  C   C42       1.0  0.20261999999999994  0.5848099999999999  0.69106  1.0000
  Cr  Cr1       1.0  0.60844  0.38908  0.51968  1.0000
  Cr  Cr2       1.0  0.28863999999999995  0.40009  0.4907599999999999  1.0000
  Cr  Cr3       1.0  0.60294  0.7108  0.48951  1.0000
  Cr  Cr4       1.0  0.05253000000000001  0.94756  0.9642099999999999  1.0000
  Cr  Cr5       1.0  0.05996999999999992  0.6267999999999999  0.99292  1.0000
  Cr  Cr6       1.0  0.37332  0.93844  0.9953699999999999  1.0000
  H   H1        1.0  0.46855  0.91594  0.63853  1.0000
  H   H2        1.0  0.77249  0.38529  0.19359  1.0000
  H   H3        1.0  0.75466  0.36826  0.3321  1.0000
  H   H4        1.0  0.9512499999999998  0.4206199999999999  0.3543599999999999  1.0000
  H   H5        1.0  0.51555  0.14434  0.33486  1.0000
  H   H6        1.0  0.50564  0.11833999999999997  0.19397  1.0000
  H   H7        1.0  0.03284999999999999  0.10998  0.14818  1.0000
  H   H8        1.0  0.09935999999999999  0.30679  0.1246  1.0000
  H   H9        1.0  0.11266000000000001  0.32828  0.26379  1.0000
  H   H10       1.0  0.04655  0.13108  0.28609  1.0000
  H   H11       1.0  0.43793  0.95467  0.77023  1.0000
  H   H12       1.0  0.25553  0.41084  0.71207  1.0000
  H   H13       1.0  0.06121000000000002  0.35913  0.68254  1.0000
  H   H14       1.0  0.79904  0.8509  0.29485  1.0000
  H   H15       1.0  0.82268  0.86386  0.15319  1.0000
  H   H16       1.0  0.96913  0.43638999999999994  0.21445  1.0000
  O   O1        1.0  0.7540199999999999  0.49759  0.60993  1.0000
  O   O2        1.0  0.29508  0.53362  0.39789  1.0000
  O   O3        1.0  0.48528  0.74662  0.38844  1.0000
  O   O4        1.0  0.72055  0.69622  0.42001  1.0000
  O   O5        1.0  0.5000099999999998  0.49999  0.4999799999999999  1.0000
  O   O6        1.0  0.16331999999999994  0.09290000000000001  0.87445  1.0000
  O   O7        1.0  0.9346499999999998  0.82208  0.88284  1.0000
  O   O8        1.0  0.9155199999999998  0.60414  0.89367  1.0000
  O   O9        1.0  0.19176  0.63811  0.92323  1.0000
  O   O10       1.0  0.40618000000000004  0.8269300000000002  0.9206599999999998  1.0000
  O   O11       1.0  0.35862  0.06287  0.90195  1.0000
  O   O12       1.0  0.48142  0.27139  0.60063  1.0000
  O   O13       1.0  0.16391  0.08546  0.05021  1.0000
  O   O14       1.0  0.9352  0.81517  0.04577  1.0000
  O   O15       1.0  0.91612  0.59669  0.06943  1.0000
  O   O16       1.0  0.19230999999999998  0.6312  0.08617  1.0000
  O   O17       1.0  0.40677  0.81948  0.09642  1.0000
  O   O18       1.0  0.3591699999999999  0.055959999999999996  0.06488  1.0000
  O   O19       1.0  0.16194  0.8376  0.98416  1.0000
  O   O20       1.0  0.26380999999999993  0.25455  0.58959  1.0000
  O   O21       1.0  0.3008199999999999  0.5312000000000001  0.5608899999999999  1.0000
  O   O22       1.0  0.4914799999999999  0.74402  0.56427  1.0000
  O   O23       1.0  0.7262900000000001  0.6938000000000001  0.5830099999999998  1.0000
  O   O24       1.0  0.7478299999999997  0.5001899999999999  0.43409  1.0000
  O   O25       1.0  0.47567999999999994  0.2738  0.43762999999999996  1.0000
  O   O26       1.0  0.25762  0.25716  0.41375  1.0000
  C   C43       1.0  0.003629999999999997  0.37399  0.8223499999999998  1.0000
  N   N1        1.0  0.8875499999999998  0.30991  0.84132  1.0000
  Br  Br1       1.0  0.2952399999999999  0.43654999999999994  0.8785699999999999  1.0000
