data_image0
_chemical_formula_structural       C140Cr12H112N4O52
_chemical_formula_sum              "C140 Cr12 H112 N4 O52"
_cell_length_a       19.08941
_cell_length_b       11.16834
_cell_length_c       18.78538
_cell_angle_alpha    90.10067
_cell_angle_beta     90.63313
_cell_angle_gamma    89.93436

_space_group_name_H-M_alt    "P 1"
_space_group_IT_number       1

loop_
  _space_group_symop_operation_xyz
  'x, y, z'

loop_
  _atom_site_type_symbol
  _atom_site_label
  _atom_site_symmetry_multiplicity
  _atom_site_fract_x
  _atom_site_fract_y
  _atom_site_fract_z
  _atom_site_occupancy
  C   C1        1.0  0.72993  0.37382999999999994  0.1465  1.0000
  C   C2        1.0  0.09309  0.9263200000000001  0.003  1.0000
  C   C3        1.0  0.01864  0.7581600000000001  0.0315  1.0000
  C   C4        1.0  0.44327  0.08165  0.05723000000000001  1.0000
  C   C5        1.0  0.42854  0.07256  0.9843000000000001  1.0000
  C   C6        1.0  0.94436  0.58672  0.05651  1.0000
  C   C7        1.0  0.92828  0.57834  0.9841700000000001  1.0000
  C   C8        1.0  0.629  0.8584100000000001  0.57799  1.0000
  C   C9        1.0  0.56948  0.93572  0.55022  1.0000
  C   C10       1.0  0.35259  0.76691  0.43568  1.0000
  C   C11       1.0  0.42340999999999995  0.74622  0.47288  1.0000
  C   C12       1.0  0.12898  0.35805  0.57798  1.0000
  C   C13       1.0  0.59911  0.37871999999999995  0.9403799999999999  1.0000
  C   C14       1.0  0.06931  0.43498  0.55017  1.0000
  C   C15       1.0  0.8523400000000001  0.26623  0.43611  1.0000
  C   C16       1.0  0.9229600000000001  0.24533  0.47364999999999996  1.0000
  C   C17       1.0  0.64116  0.78861  0.41648  1.0000
  C   C18       1.0  0.61828  0.67172  0.45019000000000003  1.0000
  C   C19       1.0  0.33033  0.7357  0.60152  1.0000
  C   C20       1.0  0.28761  0.68341  0.66267  1.0000
  C   C21       1.0  0.14127  0.28843  0.41649  1.0000
  C   C22       1.0  0.11858000000000002  0.17137  0.45015  1.0000
  C   C23       1.0  0.82933  0.23475  0.60201  1.0000
  C   C24       1.0  0.58841  0.42451  0.00842  1.0000
  C   C25       1.0  0.78609  0.18286  0.66298  1.0000
  C   C26       1.0  0.61073  0.99724  0.03506  1.0000
  C   C27       1.0  0.57286  0.88142  0.05523999999999999  1.0000
  C   C28       1.0  0.27826  0.7511700000000001  0.89864  1.0000
  C   C29       1.0  0.21755000000000002  0.72694  0.8475  1.0000
  C   C30       1.0  0.10923  0.49673  0.03333  1.0000
  C   C31       1.0  0.0737  0.3804  0.05613  1.0000
  C   C32       1.0  0.79807  0.2518  0.9063900000000001  1.0000
  C   C33       1.0  0.7372399999999999  0.21645000000000003  0.85724  1.0000
  C   C34       1.0  0.8903199999999999  0.96901  0.9441999999999999  1.0000
  C   C35       1.0  0.68395  0.97307  0.01565  1.0000
  C   C36       1.0  0.25509  0.11684  0.11722  1.0000
  C   C37       1.0  0.39206  0.46068  0.94226  1.0000
  C   C38       1.0  0.73616  0.62054  0.11446999999999999  1.0000
  C   C39       1.0  0.87104  0.91756  0.09073  1.0000
  C   C40       1.0  0.91849  0.02661  0.10528  1.0000
  C   C41       1.0  0.23939  0.18468  0.96996  1.0000
  C   C42       1.0  0.16085  0.19084  0.9520499999999998  1.0000
  C   C43       1.0  0.36822  0.59481  0.06917  1.0000
  C   C44       1.0  0.41911  0.66929  0.02411  1.0000
  C   C45       1.0  0.72126  0.67924  0.96593  1.0000
  C   C46       1.0  0.26551  0.85039  0.95236  1.0000
  C   C47       1.0  0.64428  0.68313  0.94079  1.0000
  C   C48       1.0  0.18328  0.48012  0.014249999999999999  1.0000
  C   C49       1.0  0.7786  0.35201  0.9570499999999998  1.0000
  C   C50       1.0  0.6954  0.95628  0.94408  1.0000
  C   C51       1.0  0.25433  0.8204600000000001  0.02323  1.0000
  C   C52       1.0  0.19552  0.46219  0.9429300000000002  1.0000
  C   C53       1.0  0.27109  0.38164  0.85184  1.0000
  C   C54       1.0  0.77183  0.32404  0.028789999999999996  1.0000
  C   C55       1.0  0.76138  0.93215  0.92137  1.0000
  C   C56       1.0  0.25053  0.90819  0.07627  1.0000
  C   C57       1.0  0.26174  0.43521000000000004  0.9217  1.0000
  C   C58       1.0  0.75357  0.412  0.07839  1.0000
  C   C59       1.0  0.8199  0.9435600000000001  0.9688699999999999  1.0000
  C   C60       1.0  0.25639  0.02809  0.06042  1.0000
  C   C61       1.0  0.32056  0.46542  0.9668099999999998  1.0000
  C   C62       1.0  0.74641  0.53035  0.05943  1.0000
  C   C63       1.0  0.80914  0.94618  0.04151  1.0000
  C   C64       1.0  0.22897999999999996  0.8722600000000001  0.14559  1.0000
  C   C65       1.0  0.25709  0.06024  0.9888900000000002  1.0000
  C   C66       1.0  0.30897  0.51845  0.03262  1.0000
  C   C67       1.0  0.7442  0.55768  0.98718  1.0000
  C   C68       1.0  0.74032  0.96652  0.06596  1.0000
  C   C69       1.0  0.26432  0.9724300000000001  0.9344399999999999  1.0000
  C   C70       1.0  0.24015000000000003  0.50076  0.06236  1.0000
  C   C71       1.0  0.76325  0.4705500000000001  0.9352499999999999  1.0000
  C   C72       1.0  0.45239  0.07098  0.4454600000000001  1.0000
  C   C73       1.0  0.42988  0.07105  0.51607  1.0000
  C   C74       1.0  0.9524599999999999  0.57085  0.44548  1.0000
  C   C75       1.0  0.77052  0.88264  0.85101  1.0000
  C   C76       1.0  0.92996  0.57092  0.51609  1.0000
  C   C77       1.0  0.44869000000000003  0.16476  0.56193  1.0000
  C   C78       1.0  0.48968  0.16895  0.41866  1.0000
  C   C79       1.0  0.9487100000000002  0.6647  0.56193  1.0000
  C   C80       1.0  0.9896699999999999  0.6689  0.41865  1.0000
  C   C81       1.0  0.52644  0.15691  0.15084  1.0000
  C   C82       1.0  0.43862999999999996  0.14946  0.8607499999999999  1.0000
  C   C83       1.0  0.027409999999999997  0.65711  0.15025  1.0000
  C   C84       1.0  0.9384499999999999  0.64987  0.86057  1.0000
  C   C85       1.0  0.47763999999999995  0.26912  0.53263  1.0000
  C   C86       1.0  0.55839  0.28519  0.9156700000000001  1.0000
  C   C87       1.0  0.4954799999999999  0.27232  0.46075  1.0000
  C   C88       1.0  0.97762  0.7690900000000002  0.5326  1.0000
  C   C89       1.0  0.9954199999999999  0.7723000000000001  0.46071999999999996  1.0000
  C   C90       1.0  0.81579  0.9360500000000002  0.45761  1.0000
  C   C91       1.0  0.17707  0.92357  0.54746  1.0000
  C   C92       1.0  0.31572  0.43646  0.4577  1.0000
  C   C93       1.0  0.67698  0.42395  0.54742  1.0000
  C   C94       1.0  0.8192  0.92729  0.53015  1.0000
  C   C95       1.0  0.16977  0.89367  0.47673999999999994  1.0000
  C   C96       1.0  0.31911  0.42778  0.53023  1.0000
  C   C97       1.0  0.54319  0.36803  0.05428000000000001  1.0000
  C   C98       1.0  0.66969  0.39395  0.47672000000000003  1.0000
  C   C99       1.0  0.75955  0.8986300000000002  0.56984  1.0000
  C   C100      1.0  0.22588000000000003  0.8471  0.4387  1.0000
  C   C101      1.0  0.25949  0.39882  0.56989  1.0000
  C   C102      1.0  0.72575  0.34694  0.43877  1.0000
  C   C103      1.0  0.69573  0.87004  0.53467  1.0000
  C   C104      1.0  0.28758  0.8068300000000002  0.47711  1.0000
  C   C105      1.0  0.19571  0.37  0.53469  1.0000
  C   C106      1.0  0.78727  0.30627  0.47735  1.0000
  C   C107      1.0  0.69648  0.85851  0.45913  1.0000
  C   C108      1.0  0.05532  0.7941500000000001  0.9103399999999999  1.0000
  C   C109      1.0  0.28751  0.81752  0.55285  1.0000
  C   C110      1.0  0.19651  0.35848  0.45915000000000006  1.0000
  C   C111      1.0  0.78706  0.317  0.5531  1.0000
  C   C112      1.0  0.75351  0.91047  0.42202  1.0000
  C   C113      1.0  0.23928999999999997  0.89778  0.58349  1.0000
  C   C114      1.0  0.2535  0.4106  0.42206  1.0000
  C   C115      1.0  0.7391  0.3977800000000001  0.58356  1.0000
  C   C116      1.0  0.73095  0.00691  0.13946  1.0000
  C   C117      1.0  0.27074  0.01141  0.86039  1.0000
  C   C118      1.0  0.22873  0.52016  0.13978  1.0000
  C   C119      1.0  0.05432  0.8634900000000001  0.0516  1.0000
  C   C120      1.0  0.76992  0.50865  0.8606200000000002  1.0000
  C   C121      1.0  0.71355  0.33469  0.36055  1.0000
  C   C122      1.0  0.27181  0.37388  0.64551  1.0000
  C   C123      1.0  0.21357999999999996  0.83474  0.36054  1.0000
  C   C124      1.0  0.77184  0.87381  0.64548  1.0000
  C   C125      1.0  0.53053  0.15742  0.35245  1.0000
  C   C126      1.0  0.43596000000000007  0.15359  0.63911  1.0000
  C   C127      1.0  0.03052  0.65741  0.35244  1.0000
  C   C128      1.0  0.9359699999999999  0.65358  0.63911  1.0000
  C   C129      1.0  0.74236  0.96797  0.35288  1.0000
  C   C130      1.0  0.09616  0.88832  0.93294  1.0000
  C   C131      1.0  0.25688  0.9675100000000001  0.64753  1.0000
  C   C132      1.0  0.24235  0.468  0.35289  1.0000
  C   C133      1.0  0.75684  0.46748  0.64757  1.0000
  C   C134      1.0  0.4600600000000001  0.15071  0.9358300000000002  1.0000
  C   C135      1.0  0.48707000000000006  0.17322  0.08283  1.0000
  C   C136      1.0  0.9607599999999998  0.65353  0.93497  1.0000
  C   C137      1.0  0.99153  0.67378  0.08092  1.0000
  C   C138      1.0  0.50916  0.23271  0.9608699999999999  1.0000
  C   C139      1.0  0.5111  0.26009  0.03384  1.0000
  C   C140      1.0  0.01099  0.73564  0.95825  1.0000
  Cr  Cr1       1.0  0.772  0.16964  0.25011  1.0000
  Cr  Cr2       1.0  0.38333  0.01062  0.74916  1.0000
  Cr  Cr3       1.0  0.11667  0.51062  0.25084  1.0000
  Cr  Cr4       1.0  0.88333  0.51062  0.74916  1.0000
  Cr  Cr5       1.0  0.228  0.16964  0.74989  1.0000
  Cr  Cr6       1.0  0.272  0.66964  0.25011  1.0000
  Cr  Cr7       1.0  0.728  0.66964  0.74989  1.0000
  Cr  Cr8       1.0  0.61496  0.32335  0.24926  1.0000
  Cr  Cr9       1.0  0.38504  0.32335  0.75074  1.0000
  Cr  Cr10      1.0  0.11496  0.82335  0.24926  1.0000
  Cr  Cr11      1.0  0.88504  0.82335  0.75074  1.0000
  Cr  Cr12      1.0  0.61667  0.01062  0.25084  1.0000
  H   H1        1.0  0.42335  0.01412  0.09301  1.0000
  H   H2        1.0  0.12199000000000002  0.91849  0.44993000000000005  1.0000
  H   H3        1.0  0.14462  0.26759  0.92021  1.0000
  H   H4        1.0  0.25167  0.24946  0.01294  1.0000
  H   H5        1.0  0.2754  0.20636  0.92747  1.0000
  H   H6        1.0  0.46896  0.62014  0.01623  1.0000
  H   H7        1.0  0.39639  0.69591  0.9723  1.0000
  H   H8        1.0  0.43347  0.753  0.05279  1.0000
  H   H9        1.0  0.34374  0.66665  0.10068  1.0000
  H   H10       1.0  0.39959  0.5365  0.10536  1.0000
  H   H11       1.0  0.62833  0.6096  0.90578  1.0000
  H   H12       1.0  0.61006  0.67912  0.9873899999999999  1.0000
  H   H13       1.0  0.3693  0.44611000000000006  0.55524  1.0000
  H   H14       1.0  0.63167  0.76485  0.91085  1.0000
  H   H15       1.0  0.72748  0.74456  0.0093  1.0000
  H   H16       1.0  0.76027  0.70522  0.9277  1.0000
  H   H17       1.0  0.62201  0.41907  0.44982999999999995  1.0000
  H   H18       1.0  0.56571  0.25455  0.8615599999999999  1.0000
  H   H19       1.0  0.53391  0.4102  0.1051  1.0000
  H   H20       1.0  0.06001  0.76702  0.85535  1.0000
  H   H21       1.0  0.05004  0.90457  0.10312  1.0000
  H   H22       1.0  0.12817  0.9317400000000001  0.89467  1.0000
  H   H23       1.0  0.12168999999999999  0.00204  0.02179  1.0000
  H   H24       1.0  0.63583  0.41728  0.9046700000000001  1.0000
  H   H25       1.0  0.39605  0.0002700000000000003  0.9652600000000001  1.0000
  H   H26       1.0  0.61554  0.50145  0.02778  1.0000
  H   H27       1.0  0.65249  0.95918  0.90572  1.0000
  H   H28       1.0  0.24484  0.7288  0.03697  1.0000
  H   H29       1.0  0.15255  0.45857  0.90461  1.0000
  H   H30       1.0  0.77722  0.23172000000000004  0.0458  1.0000
  H   H31       1.0  0.44402  0.99229  0.41297  1.0000
  H   H32       1.0  0.40141  0.99538  0.53648  1.0000
  H   H33       1.0  0.9441400000000001  0.4920900000000001  0.41303  1.0000
  H   H34       1.0  0.90155  0.49519  0.53651  1.0000
  H   H35       1.0  0.48856000000000005  0.34692  0.56537  1.0000
  H   H36       1.0  0.9225  0.52196  0.09291  1.0000
  H   H37       1.0  0.51712  0.35331  0.43915999999999994  1.0000
  H   H38       1.0  0.9884999999999999  0.8469100000000002  0.56533  1.0000
  H   H39       1.0  0.01698  0.85333  0.4391  1.0000
  H   H40       1.0  0.58671  0.030210000000000004  0.54455  1.0000
  H   H41       1.0  0.54829  0.90268  0.49929999999999997  1.0000
  H   H42       1.0  0.52625  0.93093  0.58876  1.0000
  H   H43       1.0  0.61301  0.7637400000000001  0.58351  1.0000
  H   H44       1.0  0.63697  0.8926400000000001  0.63284  1.0000
  H   H45       1.0  0.43339  0.80998  0.51655  1.0000
  H   H46       1.0  0.42861999999999995  0.65272  0.49205  1.0000
  H   H47       1.0  0.8932399999999999  0.50913  0.9660599999999999  1.0000
  H   H48       1.0  0.46556  0.7584000000000001  0.43329  1.0000
  H   H49       1.0  0.34022  0.68364  0.40719  1.0000
  H   H50       1.0  0.36315  0.83806  0.3961  1.0000
  H   H51       1.0  0.08643  0.52946  0.54417  1.0000
  H   H52       1.0  0.04798  0.40142000000000005  0.49943  1.0000
  H   H53       1.0  0.026189999999999995  0.43043  0.58886  1.0000
  H   H54       1.0  0.11317999999999999  0.2633  0.58355  1.0000
  H   H55       1.0  0.13689  0.39241999999999994  0.63282  1.0000
  H   H56       1.0  0.9328  0.30912  0.51734  1.0000
  H   H57       1.0  0.92795  0.15185  0.49291  1.0000
  H   H58       1.0  0.8614199999999999  0.96801  0.42960999999999994  1.0000
  H   H59       1.0  0.96531  0.25729  0.43426  1.0000
  H   H60       1.0  0.83999  0.18306  0.40753  1.0000
  H   H61       1.0  0.8631099999999999  0.33739  0.39659  1.0000
  H   H62       1.0  0.6629  0.63254  0.48013000000000006  1.0000
  H   H63       1.0  0.57293  0.68481  0.4854299999999999  1.0000
  H   H64       1.0  0.6009  0.60885  0.40771  1.0000
  H   H65       1.0  0.59524  0.84481  0.40252  1.0000
  H   H66       1.0  0.66461  0.7604200000000001  0.36516  1.0000
  H   H67       1.0  0.26637  0.75326  0.69809  1.0000
  H   H68       1.0  0.24333  0.62933  0.64136  1.0000
  H   H69       1.0  0.13556  0.9744000000000002  0.57231  1.0000
  H   H70       1.0  0.32209999999999994  0.62662  0.69634  1.0000
  H   H71       1.0  0.34836  0.65694  0.57169  1.0000
  H   H72       1.0  0.37679  0.78329  0.62343  1.0000
  H   H73       1.0  0.16327  0.13233  0.48007  1.0000
  H   H74       1.0  0.07321  0.18419  0.48540999999999995  1.0000
  H   H75       1.0  0.1013  0.10847  0.40765  1.0000
  H   H76       1.0  0.09526  0.34449  0.4026  1.0000
  H   H77       1.0  0.16472  0.26042  0.36513  1.0000
  H   H78       1.0  0.76471  0.25273  0.69835  1.0000
  H   H79       1.0  0.74185  0.12895  0.64139  1.0000
  H   H80       1.0  0.36133  0.46858000000000005  0.42972  1.0000
  H   H81       1.0  0.82027  0.12591  0.69686  1.0000
  H   H82       1.0  0.84732  0.1559  0.57225  1.0000
  H   H83       1.0  0.87584  0.28188  0.62418  1.0000
  H   H84       1.0  0.6081  0.81806  0.08383  1.0000
  H   H85       1.0  0.5269  0.89696  0.08877  1.0000
  H   H86       1.0  0.5513  0.84036  0.00604  1.0000
  H   H87       1.0  0.61464  0.06679  0.07524  1.0000
  H   H88       1.0  0.58175  0.03846  0.99003  1.0000
  H   H89       1.0  0.17305  0.69024  0.87751  1.0000
  H   H90       1.0  0.2015  0.8080500000000002  0.81772  1.0000
  H   H91       1.0  0.63557  0.47513000000000005  0.57219  1.0000
  H   H92       1.0  0.23341  0.65719  0.80874  1.0000
  H   H93       1.0  0.32762  0.7649900000000001  0.8693799999999999  1.0000
  H   H94       1.0  0.28669  0.66812  0.9273799999999999  1.0000
  H   H95       1.0  0.10894  0.32473  0.08987  1.0000
  H   H96       1.0  0.02526  0.39695  0.08597  1.0000
  H   H97       1.0  0.05591  0.33133  0.00797  1.0000
  H   H98       1.0  0.11155999999999999  0.5671  0.07274  1.0000
  H   H99       1.0  0.07902  0.53407  0.9878900000000002  1.0000
  H   H100      1.0  0.69219  0.18655000000000002  0.8893300000000001  1.0000
  H   H101      1.0  0.72019  0.29169  0.82287  1.0000
  H   H102      1.0  0.86942  0.9454499999999999  0.55515  1.0000
  H   H103      1.0  0.75363  0.14149  0.82236  1.0000
  H   H104      1.0  0.84549  0.27387  0.87565  1.0000
  H   H105      1.0  0.81317  0.17171  0.9371399999999999  1.0000
  H   H106      1.0  0.95674  0.03922  0.06219  1.0000
  H   H107      1.0  0.88839  0.11133  0.10902  1.0000
  H   H108      1.0  0.94805  0.012949999999999998  0.15584  1.0000
  H   H109      1.0  0.85386  0.87567  0.14118  1.0000
  H   H110      1.0  0.90159  0.84601  0.06586  1.0000
  H   H111      1.0  0.142  0.11578  0.92013  1.0000
  H   H112      1.0  0.13205  0.18935  0.00231  1.0000
  N   N1        1.0  0.94546  0.99267  0.92363  1.0000
  N   N2        1.0  0.25409  0.18739  0.1624  1.0000
  N   N3        1.0  0.44807  0.46259  0.91979  1.0000
  N   N4        1.0  0.72814  0.69183  0.15842  1.0000
  O   O1        1.0  0.78754  0.04269  0.17047  1.0000
  O   O2        1.0  0.45413  0.0511  0.66916  1.0000
  O   O3        1.0  0.04587  0.5511  0.33084  1.0000
  O   O4        1.0  0.95413  0.5511  0.66916  1.0000
  O   O5        1.0  0.6813399999999998  0.9593000000000002  0.32551  1.0000
  O   O6        1.0  0.31866  0.9593000000000002  0.67449  1.0000
  O   O7        1.0  0.18134  0.4593  0.32551  1.0000
  O   O8        1.0  0.81866  0.4593  0.67449  1.0000
  O   O9        1.0  0.66788  0.16787  0.25007  1.0000
  O   O10       1.0  0.33212  0.16787  0.74993  1.0000
  O   O11       1.0  0.16788  0.66787  0.25007  1.0000
  O   O12       1.0  0.21245999999999998  0.04269  0.82953  1.0000
  O   O13       1.0  0.83212  0.66787  0.74993  1.0000
  O   O14       1.0  0.76566  0.29216  0.17505  1.0000
  O   O15       1.0  0.23434  0.29216  0.82495  1.0000
  O   O16       1.0  0.26566  0.79216  0.17505  1.0000
  O   O17       1.0  0.73434  0.79216  0.82495  1.0000
  O   O18       1.0  0.67019  0.40898000000000007  0.16855  1.0000
  O   O19       1.0  0.32981  0.40898000000000007  0.83145  1.0000
  O   O20       1.0  0.17019  0.90898  0.16855  1.0000
  O   O21       1.0  0.82981  0.90898  0.83145  1.0000
  O   O22       1.0  0.55658  0.25145  0.17516  1.0000
  O   O23       1.0  0.28754  0.54269  0.17047  1.0000
  O   O24       1.0  0.44342  0.25145  0.82484  1.0000
  O   O25       1.0  0.05658  0.75145  0.17516  1.0000
  O   O26       1.0  0.9434199999999999  0.75145  0.82484  1.0000
  O   O27       1.0  0.54592  0.04951  0.17032  1.0000
  O   O28       1.0  0.45408  0.04951  0.82968  1.0000
  O   O29       1.0  0.04592  0.54951  0.17032  1.0000
  O   O30       1.0  0.9540799999999999  0.54951  0.82968  1.0000
  O   O31       1.0  0.68139  0.9578400000000001  0.17671  1.0000
  O   O32       1.0  0.31861  0.9578400000000001  0.82329  1.0000
  O   O33       1.0  0.18139  0.45784  0.17671  1.0000
  O   O34       1.0  0.71246  0.54269  0.82953  1.0000
  O   O35       1.0  0.81861  0.45784  0.82329  1.0000
  O   O36       1.0  0.7875  0.04428  0.33099  1.0000
  O   O37       1.0  0.21249999999999997  0.04428  0.66901  1.0000
  O   O38       1.0  0.2875  0.54428  0.33099  1.0000
  O   O39       1.0  0.7125  0.54428  0.66901  1.0000
  O   O40       1.0  0.76561  0.29363  0.32386  1.0000
  O   O41       1.0  0.23439  0.29363  0.67614  1.0000
  O   O42       1.0  0.26561  0.79363  0.32386  1.0000
  O   O43       1.0  0.73439  0.79363  0.67614  1.0000
  O   O44       1.0  0.67014  0.41057  0.32908  1.0000
  O   O45       1.0  0.55654  0.25292  0.32397  1.0000
  O   O46       1.0  0.32986  0.41057  0.67092  1.0000
  O   O47       1.0  0.17014  0.91057  0.32908  1.0000
  O   O48       1.0  0.82986  0.91057  0.67092  1.0000
  O   O49       1.0  0.44346  0.25292  0.67603  1.0000
  O   O50       1.0  0.05654  0.75292  0.32397  1.0000
  O   O51       1.0  0.94346  0.75292  0.67603  1.0000
  O   O52       1.0  0.54587  0.0511  0.33084  1.0000
