data_image0
_chemical_formula_structural       PO6HCH2P2O5CH2CHCHCH2BaCHCHCH2CH2PO4PO4BaPCHOCHCH2PO2CH2CHPCHO2H2CHCH2C13H4C18H9NO2SO3HNO2SO3HSO3HSO3HSO3HNO2NO2SO3HSO3HSO3HSO3HNO2SO3H
_chemical_formula_sum              "P8 O64 H51 C48 Ba2 N5 S10"
_cell_length_a       8.60609
_cell_length_b       15.44209
_cell_length_c       18.89848
_cell_angle_alpha    97.11492
_cell_angle_beta     94.5662
_cell_angle_gamma    99.15532

_space_group_name_H-M_alt    "P 1"
_space_group_IT_number       1

loop_
  _space_group_symop_operation_xyz
  'x, y, z'

loop_
  _atom_site_type_symbol
  _atom_site_label
  _atom_site_symmetry_multiplicity
  _atom_site_fract_x
  _atom_site_fract_y
  _atom_site_fract_z
  _atom_site_occupancy
  P   P1        1.0  0.9906700000000002  0.70747  0.56186  1.0000
  O   O1        1.0  0.16498999999999997  0.72187  0.54149  1.0000
  O   O2        1.0  0.89301  0.60848  0.53915  1.0000
  O   O3        1.0  0.38910000000000006  0.6674900000000001  0.41386  1.0000
  O   O4        1.0  0.3292800000000001  0.82527  0.46631000000000006  1.0000
  O   O5        1.0  0.9922700000000001  0.74257  0.65533  1.0000
  O   O6        1.0  0.3913  0.80849  0.33304  1.0000
  H   H1        1.0  0.5548200000000001  0.72444  0.30403  1.0000
  C   C1        1.0  0.32912  0.68175  0.24142  1.0000
  H   H2        1.0  0.26854  0.64172  0.27911  1.0000
  H   H3        1.0  0.24510000000000004  0.71049  0.20823  1.0000
  P   P2        1.0  0.34014  0.4301  0.33889  1.0000
  P   P3        1.0  0.9047800000000001  0.60107  0.28477  1.0000
  O   O7        1.0  0.17207  0.4576  0.32905  1.0000
  O   O8        1.0  0.96437  0.6220500000000001  0.37734  1.0000
  O   O9        1.0  0.9884500000000002  0.52564  0.25427  1.0000
  O   O10       1.0  0.2994500000000001  0.31451  0.31938  1.0000
  O   O11       1.0  0.99393  0.68755  0.24373000000000003  1.0000
  C   C2        1.0  0.95717  0.76706  0.27599  1.0000
  H   H4        1.0  0.012070000000000011  0.78179  0.33249000000000006  1.0000
  H   H5        1.0  0.82724  0.76341  0.27502000000000004  1.0000
  C   C3        1.0  0.025250000000000078  0.8416900000000003  0.23458000000000004  1.0000
  H   H6        1.0  0.15577000000000005  0.84817  0.24028  1.0000
  C   C4        1.0  0.7005  0.24162  0.29769  1.0000
  H   H7        1.0  0.5985400000000001  0.21126  0.32296  1.0000
  C   C5        1.0  0.73185  0.18040000000000006  0.23150000000000004  1.0000
  H   H8        1.0  0.65706  0.18863  0.1827  1.0000
  H   H9        1.0  0.85644  0.19687  0.21999000000000002  1.0000
  Ba  Ba1       1.0  0.16175000000000003  0.54467  0.46776000000000006  1.0000
  C   C6        1.0  0.12366000000000008  0.72654  0.69714  1.0000
  H   H10       1.0  0.2187300000000001  0.7132100000000002  0.66356  1.0000
  C   C7        1.0  0.20131  0.80603  0.7559900000000002  1.0000
  H   H11       1.0  0.32048  0.79258  0.76974  1.0000
  C   C8        1.0  0.20175000000000004  0.27922  0.36792  1.0000
  H   H12       1.0  0.10466  0.31657  0.37509  1.0000
  H   H13       1.0  0.26923  0.28501  0.4213  1.0000
  C   C9        1.0  0.13322000000000006  0.18228  0.33809  1.0000
  H   H14       1.0  0.029700000000000008  0.15836  0.36525  1.0000
  H   H15       1.0  0.09422  0.17654  0.28015  1.0000
  P   P4        1.0  0.81962  0.29252  0.43808  1.0000
  O   O12       1.0  0.6453  0.27807  0.45848  1.0000
  O   O13       1.0  0.91728  0.39152  0.46079  1.0000
  O   O14       1.0  0.4212  0.33251  0.58609  1.0000
  O   O15       1.0  0.83764  0.26673  0.34505  1.0000
  P   P5        1.0  0.8821200000000003  0.3775300000000001  0.71436  1.0000
  O   O16       1.0  0.38362  0.54548  0.58456  1.0000
  O   O17       1.0  0.8459200000000001  0.37794000000000005  0.62261  1.0000
  O   O18       1.0  0.77164  0.43566999999999995  0.7504  1.0000
  O   O19       1.0  0.81199  0.27021  0.73012  1.0000
  Ba  Ba2       1.0  0.6484300000000001  0.45532000000000006  0.53218  1.0000
  P   P6        1.0  0.4436500000000001  0.78308  0.41885000000000006  1.0000
  C   C10       1.0  0.45613000000000004  0.7544000000000002  0.28124  1.0000
  H   H16       1.0  0.38276  0.63901  0.20318  1.0000
  O   O20       1.0  0.4266800000000001  0.45450999999999997  0.41538  1.0000
  C   C11       1.0  0.59501  0.71444  0.74329  1.0000
  H   H17       1.0  0.6952599999999999  0.68002  0.73721  1.0000
  C   C12       1.0  0.58008  0.73528  0.82523  1.0000
  H   H18       1.0  0.64782  0.69186  0.85347  1.0000
  H   H19       1.0  0.4564600000000001  0.7154  0.83696  1.0000
  P   P7        1.0  0.46099  0.55652  0.67459  1.0000
  O   O21       1.0  0.63822  0.54234  0.67093  1.0000
  O   O22       1.0  0.45203000000000004  0.66562  0.70936  1.0000
  C   C13       1.0  0.9427899999999999  0.22838  0.74351  1.0000
  H   H20       1.0  0.014980000000000066  0.22596000000000008  0.6971100000000001  1.0000
  H   H21       1.0  0.01793  0.2638  0.79193  1.0000
  C   C14       1.0  0.8865300000000002  0.13518  0.75941  1.0000
  H   H22       1.0  0.8113099999999999  0.13675  0.80398  1.0000
  P   P8        1.0  0.36614  0.21769  0.58236  1.0000
  C   C15       1.0  0.44389  0.24869  0.72249  1.0000
  H   H23       1.0  0.3371400000000001  0.27780000000000005  0.73423  1.0000
  O   O23       1.0  0.48129  0.17606  0.53549  1.0000
  O   O24       1.0  0.40585  0.17972  0.66461  1.0000
  H   H24       1.0  0.53797  0.30099  0.71064  1.0000
  H   H25       1.0  0.39901  0.165  0.80522  1.0000
  C   C16       1.0  0.50065  0.20642  0.78742  1.0000
  H   H26       1.0  0.57886  0.16039  0.76998  1.0000
  C   C17       1.0  0.65588  0.82822  0.45377  1.0000
  H   H27       1.0  0.6894  0.69782  0.47359  1.0000
  H   H28       1.0  0.52391  0.96221  0.40663  1.0000
  C   C18       1.0  0.89819  0.7918799999999999  0.5119  1.0000
  C   C19       1.0  0.06584999999999999  0.23327999999999996  0.52035  1.0000
  C   C20       1.0  0.1607000000000001  0.17388000000000006  0.5426  1.0000
  C   C21       1.0  0.10263  0.08223  0.5341  1.0000
  C   C22       1.0  0.94904  0.04599000000000002  0.50065  1.0000
  C   C23       1.0  0.85657  0.10821000000000001  0.47415000000000007  1.0000
  C   C24       1.0  0.88443  0.9503  0.49254  1.0000
  C   C25       1.0  0.72594  0.92023  0.46015  1.0000
  C   C26       1.0  0.6418100000000001  0.9826100000000002  0.43376000000000003  1.0000
  C   C27       1.0  0.7072500000000003  0.07263  0.43935  1.0000
  C   C28       1.0  0.96833  0.88365  0.51733  1.0000
  C   C29       1.0  0.74494  0.76646  0.4774300000000001  1.0000
  C   C30       1.0  0.91547  0.20414  0.4836  1.0000
  H   H29       1.0  0.08827999999999994  0.90178  0.54135  1.0000
  H   H30       1.0  0.11440000000000003  0.30323  0.52774  1.0000
  H   H31       1.0  0.18074  0.04047  0.55371  1.0000
  H   H32       1.0  0.64174  0.11486  0.41384  1.0000
  C   C31       1.0  0.58074  0.54901  0.29723  1.0000
  C   C32       1.0  0.4400300000000001  0.4902700000000001  0.27165  1.0000
  C   C33       1.0  0.39475  0.46967  0.19601  1.0000
  C   C34       1.0  0.50173  0.50645  0.14919  1.0000
  C   C35       1.0  0.65207  0.55257  0.17709  1.0000
  C   C36       1.0  0.6940500000000002  0.56964  0.25085  1.0000
  C   C37       1.0  0.43495  0.57377  0.03913  1.0000
  C   C38       1.0  0.38113  0.56478  0.96625  1.0000
  C   C39       1.0  0.34017  0.48012  0.9264999999999999  1.0000
  C   C40       1.0  0.35848  0.40589  0.9592500000000002  1.0000
  C   C41       1.0  0.43241000000000007  0.41593  0.02864  1.0000
  C   C42       1.0  0.4589700000000001  0.49876  0.07103  1.0000
  C   C43       1.0  0.13543000000000002  0.4306000000000001  0.82293  1.0000
  C   C44       1.0  0.09136000000000001  0.41591000000000006  0.74894  1.0000
  C   C45       1.0  0.35569  0.48026  0.72801  1.0000
  C   C46       1.0  0.4012000000000001  0.49307000000000006  0.80172  1.0000
  C   C47       1.0  0.29141999999999996  0.46752999999999995  0.84934  1.0000
  C   C48       1.0  0.20498000000000005  0.43465  0.70132  1.0000
  H   H33       1.0  0.51758  0.52931  0.82238  1.0000
  H   H34       1.0  0.3679300000000001  0.62307  0.94141  1.0000
  H   H35       1.0  0.45684000000000013  0.63873  0.07052  1.0000
  H   H36       1.0  0.32151  0.34051  0.92939  1.0000
  H   H37       1.0  0.46362  0.35864  0.05013  1.0000
  H   H38       1.0  0.04811000000000004  0.4149700000000001  0.85972  1.0000
  H   H39       1.0  0.73844  0.57295  0.14105  1.0000
  H   H40       1.0  0.16934  0.426  0.64429  1.0000
  H   H41       1.0  0.6144300000000003  0.56529  0.35436  1.0000
  N   N1        1.0  0.69872  0.08853  0.24167  1.0000
  O   O25       1.0  0.61366  0.03118  0.19163  1.0000
  O   O26       1.0  0.77344  0.062030000000000016  0.29492  1.0000
  S   S1        1.0  0.06284000000000002  0.62874  0.73397  1.0000
  O   O27       1.0  0.016289999999999995  0.55677  0.67168  1.0000
  O   O28       1.0  0.20071000000000003  0.61338  0.7807100000000001  1.0000
  O   O29       1.0  0.91135  0.63154  0.78411  1.0000
  H   H42       1.0  0.92599  0.59081  0.81972  1.0000
  N   N2        1.0  0.22243  0.89221  0.72996  1.0000
  O   O30       1.0  0.32458  0.9572200000000001  0.76564  1.0000
  O   O31       1.0  0.16023000000000007  0.90212  0.66728  1.0000
  S   S2        1.0  0.12197000000000001  0.81527  0.8416  1.0000
  O   O32       1.0  0.18723000000000004  0.9043  0.8840300000000001  1.0000
  O   O33       1.0  0.94595  0.80467  0.83051  1.0000
  O   O34       1.0  0.17272000000000004  0.73769  0.8897199999999998  1.0000
  H   H43       1.0  0.11324  0.74272  0.9323900000000002  1.0000
  S   S3        1.0  0.27402999999999994  0.11141  0.35018  1.0000
  O   O35       1.0  0.40851000000000004  0.16236  0.39992  1.0000
  O   O36       1.0  0.2054  0.03271000000000002  0.38365  1.0000
  O   O37       1.0  0.33877  0.07811  0.27145  1.0000
  H   H44       1.0  0.3778900000000001  0.022450000000000005  0.27826000000000006  1.0000
  S   S4        1.0  0.5355100000000002  0.8194100000000002  0.21749  1.0000
  O   O38       1.0  0.6553800000000003  0.8929700000000003  0.25759  1.0000
  O   O39       1.0  0.61473  0.76388  0.16531  1.0000
  O   O40       1.0  0.3953700000000001  0.86204  0.17284  1.0000
  H   H45       1.0  0.35844000000000004  0.8187800000000001  0.12923  1.0000
  S   S5        1.0  0.6377800000000002  0.80453  0.69404  1.0000
  O   O41       1.0  0.68185  0.76767  0.62288  1.0000
  O   O42       1.0  0.49518  0.84642  0.68017  1.0000
  O   O43       1.0  0.7870300000000001  0.88  0.7366700000000002  1.0000
  H   H46       1.0  0.87971  0.87087  0.7108300000000001  1.0000
  N   N3        1.0  0.6345300000000001  0.8273900000000001  0.85759  1.0000
  O   O44       1.0  0.72818  0.84371  0.91696  1.0000
  O   O45       1.0  0.55954  0.88931  0.8396400000000002  1.0000
  N   N4        1.0  0.9870800000000001  0.92654  0.26486  1.0000
  O   O46       1.0  0.93875  0.93649  0.32844  1.0000
  O   O47       1.0  0.02204000000000001  0.9956800000000001  0.23254999999999998  1.0000
  S   S6        1.0  0.7745300000000002  0.06745000000000001  0.6824200000000001  1.0000
  O   O48       1.0  0.63131  0.015509999999999996  0.70687  1.0000
  O   O49       1.0  0.87053  0.005069999999999993  0.64671  1.0000
  O   O50       1.0  0.71139  0.12901000000000004  0.6225700000000001  1.0000
  H   H47       1.0  0.80824  0.16372  0.60905  1.0000
  S   S7        1.0  0.05223  0.09059  0.7912  1.0000
  O   O51       1.0  0.9972100000000002  0.0025099999999999975  0.81435  1.0000
  O   O52       1.0  0.15745  0.08113  0.73213  1.0000
  O   O53       1.0  0.14995000000000003  0.15956000000000006  0.8624200000000001  1.0000
  H   H48       1.0  0.20764000000000005  0.12208000000000001  0.8901500000000001  1.0000
  S   S8        1.0  0.60033  0.2804  0.8641099999999999  1.0000
  O   O54       1.0  0.5287300000000001  0.25275000000000003  0.9295100000000001  1.0000
  O   O55       1.0  0.5822  0.37384  0.85745  1.0000
  O   O56       1.0  0.7947700000000001  0.27739  0.8757400000000001  1.0000
  H   H49       1.0  0.8081800000000002  0.24030000000000004  0.91423  1.0000
  S   S9        1.0  0.21421000000000007  0.39722  0.15721  1.0000
  O   O57       1.0  0.12927  0.44381  0.10487  1.0000
  O   O58       1.0  0.25394  0.31468  0.11707  1.0000
  O   O59       1.0  0.08596000000000005  0.36314000000000013  0.2141  1.0000
  H   H50       1.0  0.07707  0.29799  0.20885  1.0000
  N   N5        1.0  0.9681600000000001  0.8205899999999999  0.15791  1.0000
  O   O60       1.0  0.8802900000000002  0.86914  0.12696  1.0000
  O   O61       1.0  0.01652  0.7569  0.11851  1.0000
  S   S10       1.0  0.66313  0.33767  0.26639  1.0000
  O   O62       1.0  0.77935  0.36887  0.21603  1.0000
  O   O63       1.0  0.50128  0.31710999999999995  0.22684  1.0000
  O   O64       1.0  0.68088  0.41092000000000006  0.34076000000000006  1.0000
  H   H51       1.0  0.7935400000000001  0.43922  0.3474  1.0000
