data_image0
_chemical_formula_structural       C120Cr12H136O52H8
_chemical_formula_sum              "C120 Cr12 H144 O52"
_cell_length_a       19.61754
_cell_length_b       11.29618
_cell_length_c       18.71403
_cell_angle_alpha    89.90564
_cell_angle_beta     90.17571999999998
_cell_angle_gamma    90.0027

_symmetry_space_group_name_H-M    'P 1'
_symmetry_Int_Tables_number       1

loop_
  _symmetry_equiv_pos_as_xyz
  'x,y,z'

loop_
  _atom_site_type_symbol
  _atom_site_label
  _atom_site_symmetry_multiplicity
  _atom_site_fract_x
  _atom_site_fract_y
  _atom_site_fract_z
  _atom_site_occupancy
  C   C1        1.0  0.76128  0.52376  0.6391699999999998  1.0000
  C   C2        1.0  0.2387  0.52358  0.36087  1.0000
  C   C3        1.0  0.26127999999999996  0.023750000000000004  0.6391699999999998  1.0000
  C   C4        1.0  0.7387000000000001  0.023570000000000004  0.36087  1.0000
  C   C5        1.0  0.81093  0.13067  0.4491299999999999  1.0000
  C   C6        1.0  0.18907000000000002  0.13081  0.5507  1.0000
  C   C7        1.0  0.31093000000000004  0.63067  0.44913999999999993  1.0000
  C   C8        1.0  0.6890700000000001  0.63081  0.5507  1.0000
  C   C9        1.0  0.74706  0.05661  0.43679999999999997  1.0000
  C   C10       1.0  0.25295  0.0568  0.56322  1.0000
  C   C11       1.0  0.24706000000000003  0.55661  0.43679999999999997  1.0000
  C   C12       1.0  0.7529500000000001  0.5568  0.56322  1.0000
  C   C13       1.0  0.76007  0.0905  0.57421  1.0000
  C   C14       1.0  0.23996  0.09046  0.4257799999999999  1.0000
  C   C15       1.0  0.26007  0.59049  0.57422  1.0000
  C   C16       1.0  0.73996  0.59046  0.4257799999999999  1.0000
  C   C17       1.0  0.75352  0.95781  0.5620599999999998  1.0000
  C   C18       1.0  0.24657000000000004  0.9578200000000001  0.43823  1.0000
  C   C19       1.0  0.25351  0.45781000000000005  0.5620599999999998  1.0000
  C   C20       1.0  0.74657  0.45782  0.43823  1.0000
  C   C21       1.0  0.8232  0.13346  0.53011  1.0000
  C   C22       1.0  0.17681  0.13345  0.46973  1.0000
  C   C23       1.0  0.3232  0.63346  0.53011  1.0000
  C   C24       1.0  0.67681  0.63346  0.46973  1.0000
  C   C25       1.0  0.00376  0.20455  0.45916  1.0000
  C   C26       1.0  0.99621  0.20463  0.54115  1.0000
  C   C27       1.0  0.50376  0.7045500000000001  0.45916  1.0000
  C   C28       1.0  0.49621  0.7046300000000001  0.54114  1.0000
  C   C29       1.0  0.06465  0.40609000000000006  0.47442999999999996  1.0000
  C   C30       1.0  0.93534  0.40620000000000006  0.52543  1.0000
  C   C31       1.0  0.56465  0.90609  0.47442999999999996  1.0000
  C   C32       1.0  0.43534000000000006  0.9062  0.52543  1.0000
  C   C33       1.0  0.94148  0.39044000000000006  0.4444  1.0000
  C   C34       1.0  0.05849000000000001  0.39054  0.55551  1.0000
  C   C35       1.0  0.44148000000000004  0.8904400000000001  0.4444  1.0000
  C   C36       1.0  0.5584900000000002  0.89054  0.5555  1.0000
  C   C37       1.0  0.010500000000000004  0.33304  0.43097  1.0000
  C   C38       1.0  0.98947  0.3332  0.5690499999999998  1.0000
  C   C39       1.0  0.5105  0.8330400000000002  0.43097  1.0000
  C   C40       1.0  0.48947  0.8332000000000002  0.5690499999999998  1.0000
  C   C41       1.0  0.82027  0.030970000000000004  0.04817  1.0000
  C   C42       1.0  0.18672  0.01038  0.95603  1.0000
  C   C43       1.0  0.32027000000000005  0.53098  0.04817999999999999  1.0000
  C   C44       1.0  0.68672  0.51037  0.95603  1.0000
  C   C45       1.0  0.77407  0.12096  0.6494699999999999  1.0000
  C   C46       1.0  0.22596000000000002  0.12084000000000002  0.3505  1.0000
  C   C47       1.0  0.27406  0.6209500000000001  0.64948  1.0000
  C   C48       1.0  0.72596  0.62084  0.3505  1.0000
  C   C49       1.0  0.8224000000000001  0.03611  0.96793  1.0000
  C   C50       1.0  0.18441000000000002  0.0164  0.03617  1.0000
  C   C51       1.0  0.32241  0.53612  0.96793  1.0000
  C   C52       1.0  0.68441  0.51641  0.03617  1.0000
  C   C53       1.0  0.6928300000000001  0.01303  0.03195  1.0000
  C   C54       1.0  0.3181  0.03396  0.9692099999999999  1.0000
  C   C55       1.0  0.19283  0.51303  0.03195  1.0000
  C   C56       1.0  0.81811  0.53396  0.9691999999999998  1.0000
  C   C57       1.0  0.7447  0.20507  0.06121  1.0000
  C   C58       1.0  0.24469  0.20027  0.9375999999999999  1.0000
  C   C59       1.0  0.24469  0.70507  0.06121  1.0000
  C   C60       1.0  0.74469  0.70026  0.9375999999999999  1.0000
  C   C61       1.0  0.7496500000000001  0.07325  0.07580999999999999  1.0000
  C   C62       1.0  0.25290000000000007  0.06823  0.9257499999999999  1.0000
  C   C63       1.0  0.24965000000000004  0.5732600000000001  0.07580999999999999  1.0000
  C   C64       1.0  0.7529000000000001  0.5682300000000001  0.9257499999999999  1.0000
  C   C65       1.0  0.7606800000000001  0.10605000000000002  0.93657  1.0000
  C   C66       1.0  0.24010000000000004  0.10226000000000002  0.06447  1.0000
  C   C67       1.0  0.26068  0.60606  0.93657  1.0000
  C   C68       1.0  0.7401  0.60225  0.06447  1.0000
  C   C69       1.0  0.69913  0.027220000000000005  0.9497099999999999  1.0000
  C   C70       1.0  0.30870000000000003  0.04431000000000001  0.051119999999999985  1.0000
  C   C71       1.0  0.19913  0.52723  0.9497099999999999  1.0000
  C   C72       1.0  0.8087  0.5443  0.051119999999999985  1.0000
  C   C73       1.0  0.74528  0.22248  0.9789699999999999  1.0000
  C   C74       1.0  0.23866000000000004  0.21769  0.01949  1.0000
  C   C75       1.0  0.24528000000000003  0.7224800000000001  0.97898  1.0000
  C   C76       1.0  0.7386700000000002  0.71768  0.01949  1.0000
  C   C77       1.0  0.9947200000000002  0.47957000000000005  0.042279999999999984  1.0000
  C   C78       1.0  0.99189  0.47963  0.9614  1.0000
  C   C79       1.0  0.49473  0.97958  0.042279999999999984  1.0000
  C   C80       1.0  0.4919  0.97964  0.96139  1.0000
  C   C81       1.0  0.0672  0.29634  0.0271  1.0000
  C   C82       1.0  0.9372800000000001  0.27022  0.9734  1.0000
  C   C83       1.0  0.56719  0.79632  0.027109999999999995  1.0000
  C   C84       1.0  0.43728000000000006  0.77024  0.9733899999999998  1.0000
  C   C85       1.0  0.9453200000000002  0.27884  0.0553  1.0000
  C   C86       1.0  0.05778  0.29773  0.9450699999999999  1.0000
  C   C87       1.0  0.44531000000000004  0.77887  0.0553  1.0000
  C   C88       1.0  0.5577900000000001  0.79773  0.9450699999999999  1.0000
  C   C89       1.0  0.96911  0.34219  0.64497  1.0000
  C   C90       1.0  0.030870000000000005  0.34209  0.35503  1.0000
  C   C91       1.0  0.46911  0.8421800000000002  0.64497  1.0000
  C   C92       1.0  0.53087  0.84209  0.35503  1.0000
  C   C93       1.0  0.00842  0.35217  0.0702  1.0000
  C   C94       1.0  0.98801  0.35115  0.9313099999999999  1.0000
  C   C95       1.0  0.50842  0.85217  0.0702  1.0000
  C   C96       1.0  0.48801000000000005  0.8511600000000001  0.9313099999999999  1.0000
  C   C97       1.0  0.7609100000000001  0.53268  0.8493099999999999  1.0000
  C   C98       1.0  0.24041  0.53656  0.15224999999999997  1.0000
  C   C99       1.0  0.26091  0.03268  0.8493099999999999  1.0000
  C   C100      1.0  0.74041  0.03656  0.15224999999999997  1.0000
  C   C101      1.0  0.77444  0.13337  0.85923  1.0000
  C   C102      1.0  0.226  0.1319  0.14139  1.0000
  C   C103      1.0  0.27444  0.63337  0.85923  1.0000
  C   C104      1.0  0.726  0.6319  0.14139  1.0000
  C   C105      1.0  0.9676800000000001  0.3532600000000001  0.85454  1.0000
  C   C106      1.0  0.03032  0.35331000000000007  0.14669  1.0000
  C   C107      1.0  0.46769  0.85326  0.8545299999999998  1.0000
  C   C108      1.0  0.53032  0.8533200000000001  0.14669  1.0000
  C   C109      1.0  0.68726  0.13238  0.46515999999999996  1.0000
  C   C110      1.0  0.31277000000000005  0.13254  0.5347399999999998  1.0000
  C   C111      1.0  0.18726  0.63238  0.46515999999999996  1.0000
  C   C112      1.0  0.8127700000000001  0.6325400000000001  0.5347399999999998  1.0000
  C   C113      1.0  0.69238  0.1451  0.54635  1.0000
  C   C114      1.0  0.30763  0.14523  0.45353  1.0000
  C   C115      1.0  0.19238  0.64509  0.54635  1.0000
  C   C116      1.0  0.80763  0.64523  0.45353  1.0000
  C   C117      1.0  0.7565900000000001  0.93888  0.48077999999999993  1.0000
  C   C118      1.0  0.24344  0.939  0.5195299999999999  1.0000
  C   C119      1.0  0.25659  0.43887  0.4807699999999999  1.0000
  C   C120      1.0  0.74343  0.439  0.51954  1.0000
  Cr  Cr1       1.0  0.88569  0.49286  0.74531  1.0000
  Cr  Cr2       1.0  0.11431  0.49286  0.2546899999999999  1.0000
  Cr  Cr3       1.0  0.38569000000000003  0.99286  0.74531  1.0000
  Cr  Cr4       1.0  0.6143100000000001  0.99286  0.2546899999999999  1.0000
  Cr  Cr5       1.0  0.72988  0.33227  0.7481899999999999  1.0000
  Cr  Cr6       1.0  0.27012  0.33227  0.25181  1.0000
  Cr  Cr7       1.0  0.22988  0.83227  0.7481899999999999  1.0000
  Cr  Cr8       1.0  0.77012  0.83227  0.25181  1.0000
  Cr  Cr9       1.0  0.8881200000000002  0.17859  0.75301  1.0000
  Cr  Cr10      1.0  0.11188  0.17859  0.24698999999999996  1.0000
  Cr  Cr11      1.0  0.3881200000000001  0.67859  0.75301  1.0000
  Cr  Cr12      1.0  0.61188  0.67859  0.24698999999999996  1.0000
  H   H1        1.0  0.63814  0.09638  0.44984  1.0000
  H   H2        1.0  0.36189  0.09653  0.55014  1.0000
  H   H3        1.0  0.13814  0.59638  0.44984  1.0000
  H   H4        1.0  0.86189  0.59653  0.55014  1.0000
  H   H5        1.0  0.86378  0.06751  0.5405299999999998  1.0000
  H   H6        1.0  0.13626  0.06742  0.45944  1.0000
  H   H7        1.0  0.36378  0.5675  0.5405299999999998  1.0000
  H   H8        1.0  0.63626  0.5674300000000001  0.45944  1.0000
  H   H9        1.0  0.8092300000000001  0.9087800000000001  0.4700599999999999  1.0000
  H   H10       1.0  0.19077  0.9089900000000001  0.53029  1.0000
  H   H11       1.0  0.30924000000000007  0.40879  0.4700599999999999  1.0000
  H   H12       1.0  0.69077  0.409  0.53029  1.0000
  H   H13       1.0  0.79583  0.9099400000000001  0.5891199999999999  1.0000
  H   H14       1.0  0.20432  0.9098600000000001  0.41123  1.0000
  H   H15       1.0  0.29582  0.40993  0.58913  1.0000
  H   H16       1.0  0.7043200000000001  0.40987  0.41123  1.0000
  H   H17       1.0  0.046130000000000004  0.14986  0.4423099999999999  1.0000
  H   H18       1.0  0.9538300000000001  0.14994  0.55814  1.0000
  H   H19       1.0  0.54613  0.64987  0.4423  1.0000
  H   H20       1.0  0.45383000000000007  0.64994  0.55814  1.0000
  H   H21       1.0  0.95901  0.16101  0.4345899999999999  1.0000
  H   H22       1.0  0.04095  0.16113  0.56583  1.0000
  H   H23       1.0  0.45901  0.6610100000000001  0.4345899999999999  1.0000
  H   H24       1.0  0.54095  0.66113  0.56583  1.0000
  H   H25       1.0  0.61663  0.89146  0.45595  1.0000
  H   H26       1.0  0.38336  0.89159  0.54396  1.0000
  H   H27       1.0  0.11663  0.39146  0.45595  1.0000
  H   H28       1.0  0.88336  0.39159000000000005  0.54396  1.0000
  H   H29       1.0  0.60032  0.8351200000000001  0.57693  1.0000
  H   H30       1.0  0.39964  0.8349600000000001  0.4231499999999999  1.0000
  H   H31       1.0  0.10032000000000002  0.33513000000000004  0.57693  1.0000
  H   H32       1.0  0.89964  0.33496  0.4231499999999999  1.0000
  H   H33       1.0  0.9383000000000001  0.47769  0.4172299999999999  1.0000
  H   H34       1.0  0.06162  0.47786  0.5824299999999999  1.0000
  H   H35       1.0  0.4383  0.97769  0.4172299999999999  1.0000
  H   H36       1.0  0.5616200000000001  0.9778600000000001  0.5824299999999999  1.0000
  H   H37       1.0  0.8336000000000001  0.9391600000000002  0.06357  1.0000
  H   H38       1.0  0.17949  0.9189700000000001  0.93961  1.0000
  H   H39       1.0  0.33360000000000006  0.43917  0.06357  1.0000
  H   H40       1.0  0.67951  0.41895000000000004  0.93962  1.0000
  H   H41       1.0  0.68788  0.22103  0.43998  1.0000
  H   H42       1.0  0.31214  0.2212  0.55974  1.0000
  H   H43       1.0  0.18788  0.72103  0.43998  1.0000
  H   H44       1.0  0.81214  0.7212  0.55974  1.0000
  H   H45       1.0  0.8605600000000001  0.08669  0.07173  1.0000
  H   H46       1.0  0.14132000000000003  0.05638  0.9335199999999999  1.0000
  H   H47       1.0  0.36056  0.5867  0.07173  1.0000
  H   H48       1.0  0.64133  0.55635  0.9335099999999998  1.0000
  H   H49       1.0  0.8715200000000001  0.07034  0.9517  1.0000
  H   H50       1.0  0.13187000000000001  0.04169  0.050899999999999994  1.0000
  H   H51       1.0  0.37152  0.57034  0.9517  1.0000
  H   H52       1.0  0.63187  0.54174  0.050889999999999984  1.0000
  H   H53       1.0  0.82234  0.94442  0.9462899999999999  1.0000
  H   H54       1.0  0.19224  0.92786  0.059649999999999995  1.0000
  H   H55       1.0  0.32234000000000007  0.44442000000000004  0.9462899999999999  1.0000
  H   H56       1.0  0.69222  0.4278800000000001  0.05965999999999999  1.0000
  H   H57       1.0  0.7003900000000001  0.9226500000000001  0.04611  1.0000
  H   H58       1.0  0.33863  0.94837  0.9535399999999999  1.0000
  H   H59       1.0  0.20040000000000002  0.42265  0.04611  1.0000
  H   H60       1.0  0.8386400000000002  0.44838  0.95352  1.0000
  H   H61       1.0  0.7058  0.94022  0.92339  1.0000
  H   H62       1.0  0.31127  0.9561500000000003  0.077  1.0000
  H   H63       1.0  0.20579  0.44022  0.92339  1.0000
  H   H64       1.0  0.81125  0.45614  0.07699  1.0000
  H   H65       1.0  0.69642  0.23881  0.08446  1.0000
  H   H66       1.0  0.28898  0.25018  0.91614  1.0000
  H   H67       1.0  0.1964  0.7388  0.08446  1.0000
  H   H68       1.0  0.78898  0.7501800000000001  0.9161199999999999  1.0000
  H   H69       1.0  0.7876  0.2529  0.08679  1.0000
  H   H70       1.0  0.19873  0.23354  0.90916  1.0000
  H   H71       1.0  0.28758  0.75292  0.08680999999999997  1.0000
  H   H72       1.0  0.69873  0.73353  0.90917  1.0000
  H   H73       1.0  0.77803  0.29574  0.9633499999999999  1.0000
  H   H74       1.0  0.18884  0.24962000000000004  0.028369999999999996  1.0000
  H   H75       1.0  0.27806  0.7957100000000003  0.96338  1.0000
  H   H76       1.0  0.68886  0.74963  0.028379999999999996  1.0000
  H   H77       1.0  0.6926  0.24699  0.9643199999999998  1.0000
  H   H78       1.0  0.27835  0.27938  0.03840999999999999  1.0000
  H   H79       1.0  0.19263  0.74703  0.96431  1.0000
  H   H80       1.0  0.77837  0.77936  0.0384  1.0000
  H   H81       1.0  0.64251  0.04517  0.04957999999999999  1.0000
  H   H82       1.0  0.35655  0.10104  0.95474  1.0000
  H   H83       1.0  0.14252  0.54517  0.04959  1.0000
  H   H84       1.0  0.8565400000000001  0.60106  0.95474  1.0000
  H   H85       1.0  0.68686  0.23724  0.56207  1.0000
  H   H86       1.0  0.31307000000000007  0.23743  0.43764  1.0000
  H   H87       1.0  0.18686  0.73724  0.56208  1.0000
  H   H88       1.0  0.8130700000000001  0.73742  0.43764  1.0000
  H   H89       1.0  0.65225  0.06775  0.9269799999999999  1.0000
  H   H90       1.0  0.34906  0.10122  0.07468  1.0000
  H   H91       1.0  0.15225  0.56776  0.9269799999999999  1.0000
  H   H92       1.0  0.84905  0.6011800000000002  0.07469  1.0000
  H   H93       1.0  0.03374  0.54462  0.05889  1.0000
  H   H94       1.0  0.9507800000000001  0.53624  0.94315  1.0000
  H   H95       1.0  0.53376  0.04462  0.05889  1.0000
  H   H96       1.0  0.45079  0.03625  0.94315  1.0000
  H   H97       1.0  0.94643  0.51238  0.06471  1.0000
  H   H98       1.0  0.03808  0.52451  0.9403099999999999  1.0000
  H   H99       1.0  0.44645  0.012410000000000001  0.06471  1.0000
  H   H100      1.0  0.53809  0.024520000000000004  0.9403099999999999  1.0000
  H   H101      1.0  0.60805  0.8534600000000001  0.04017  1.0000
  H   H102      1.0  0.38454  0.7815600000000001  0.95635  1.0000
  H   H103      1.0  0.10805  0.35351  0.040149999999999984  1.0000
  H   H104      1.0  0.8845400000000001  0.28156  0.9563799999999999  1.0000
  H   H105      1.0  0.95276  0.18950000000000003  0.07887  1.0000
  H   H106      1.0  0.06108000000000001  0.20658  0.9231399999999998  1.0000
  H   H107      1.0  0.45273  0.68953  0.07888  1.0000
  H   H108      1.0  0.56109  0.70658  0.92313  1.0000
  H   H109      1.0  0.9519200000000001  0.17888  0.9592  1.0000
  H   H110      1.0  0.07687  0.20496000000000006  0.04541  1.0000
  H   H111      1.0  0.45193  0.67888  0.9592099999999999  1.0000
  H   H112      1.0  0.5768400000000001  0.70494  0.04541  1.0000
  H   H113      1.0  0.6484100000000002  0.10089000000000001  0.57193  1.0000
  H   H114      1.0  0.35165  0.10113000000000003  0.42804999999999993  1.0000
  H   H115      1.0  0.1484  0.60089  0.57193  1.0000
  H   H116      1.0  0.85165  0.60111  0.42804999999999993  1.0000
  H   H117      1.0  0.72234  0.86832  0.46379999999999993  1.0000
  H   H118      1.0  0.27762  0.86843  0.53676  1.0000
  H   H119      1.0  0.22235000000000002  0.36831  0.46377999999999997  1.0000
  H   H120      1.0  0.77762  0.36843  0.53676  1.0000
  H   H121      1.0  0.70519  0.9237100000000001  0.5845699999999998  1.0000
  H   H122      1.0  0.29494  0.92381  0.4158799999999999  1.0000
  H   H123      1.0  0.20518  0.42371000000000003  0.58456  1.0000
  H   H124      1.0  0.7949300000000001  0.4238100000000001  0.4158799999999999  1.0000
  H   H125      1.0  0.85523  0.09016  0.4216999999999999  1.0000
  H   H126      1.0  0.14477  0.09030000000000002  0.57823  1.0000
  H   H127      1.0  0.35523  0.59017  0.4216999999999999  1.0000
  H   H128      1.0  0.64477  0.59031  0.57823  1.0000
  H   H129      1.0  0.80441  0.22112  0.4274  1.0000
  H   H130      1.0  0.19557  0.22129000000000001  0.5722  1.0000
  H   H131      1.0  0.30441  0.72112  0.42741  1.0000
  H   H132      1.0  0.69557  0.7213  0.5722  1.0000
  H   H133      1.0  0.84219  0.21943000000000001  0.54787  1.0000
  H   H134      1.0  0.15782  0.21938  0.4516899999999999  1.0000
  H   H135      1.0  0.34219  0.7194200000000001  0.54788  1.0000
  H   H136      1.0  0.65782  0.71939  0.4516899999999999  1.0000
  O   O1        1.0  0.9572100000000001  0.44941000000000003  0.66548  1.0000
  O   O2        1.0  0.04279  0.44941000000000003  0.3345199999999999  1.0000
  O   O3        1.0  0.45721  0.9494100000000002  0.66548  1.0000
  O   O4        1.0  0.5427900000000001  0.9494100000000002  0.3345199999999999  1.0000
  O   O5        1.0  0.73626  0.21201  0.82656  1.0000
  O   O6        1.0  0.26374000000000003  0.21201  0.17344  1.0000
  O   O7        1.0  0.23626000000000003  0.7120100000000001  0.82656  1.0000
  O   O8        1.0  0.76374  0.7120100000000001  0.17344  1.0000
  O   O9        1.0  0.8325200000000001  0.0953  0.8359999999999997  1.0000
  O   O10       1.0  0.16748000000000002  0.0953  0.164  1.0000
  O   O11       1.0  0.33252  0.5953  0.8359999999999997  1.0000
  O   O12       1.0  0.66748  0.5953  0.164  1.0000
  O   O13       1.0  0.94638  0.25394  0.8269399999999998  1.0000
  O   O14       1.0  0.05362  0.25394  0.17306  1.0000
  O   O15       1.0  0.44638  0.7539400000000002  0.8269399999999998  1.0000
  O   O16       1.0  0.55362  0.7539400000000002  0.17306  1.0000
  O   O17       1.0  0.83456  0.33457  0.74884  1.0000
  O   O18       1.0  0.16544  0.33457  0.25116  1.0000
  O   O19       1.0  0.33456  0.83457  0.74884  1.0000
  O   O20       1.0  0.66544  0.83457  0.25116  1.0000
  O   O21       1.0  0.82073  0.54124  0.66825  1.0000
  O   O22       1.0  0.17927  0.54124  0.33175  1.0000
  O   O23       1.0  0.32073  0.04124  0.66825  1.0000
  O   O24       1.0  0.67927  0.04124  0.33175  1.0000
  O   O25       1.0  0.71424  0.45506  0.6637099999999998  1.0000
  O   O26       1.0  0.28576  0.45506  0.3362899999999999  1.0000
  O   O27       1.0  0.21424000000000004  0.9550600000000001  0.6637099999999998  1.0000
  O   O28       1.0  0.78576  0.9550600000000001  0.3362899999999999  1.0000
  O   O29       1.0  0.73678  0.20487000000000002  0.67591  1.0000
  O   O30       1.0  0.26322  0.20487000000000002  0.32409  1.0000
  O   O31       1.0  0.23678  0.70487  0.67591  1.0000
  O   O32       1.0  0.76322  0.70487  0.32409  1.0000
  O   O33       1.0  0.8330700000000001  0.08759  0.67349  1.0000
  O   O34       1.0  0.16693  0.08759  0.32651  1.0000
  O   O35       1.0  0.33307000000000003  0.58759  0.67349  1.0000
  O   O36       1.0  0.6669300000000001  0.58759  0.32651  1.0000
  O   O37       1.0  0.9468900000000001  0.24680000000000005  0.6762999999999999  1.0000
  O   O38       1.0  0.05311  0.24680000000000005  0.32369999999999993  1.0000
  O   O39       1.0  0.44689  0.7468000000000001  0.6762999999999999  1.0000
  O   O40       1.0  0.55311  0.7468000000000001  0.32369999999999993  1.0000
  O   O41       1.0  0.95665  0.45712  0.82798  1.0000
  O   O42       1.0  0.04335  0.45712  0.17202  1.0000
  O   O43       1.0  0.45665000000000006  0.9571200000000002  0.82798  1.0000
  O   O44       1.0  0.54335  0.9571200000000002  0.17202  1.0000
  O   O45       1.0  0.8202200000000001  0.5483900000000002  0.81889  1.0000
  O   O46       1.0  0.17978000000000002  0.5483900000000002  0.18110999999999997  1.0000
  O   O47       1.0  0.32022000000000006  0.04839  0.81889  1.0000
  O   O48       1.0  0.67978  0.04839  0.18110999999999997  1.0000
  O   O49       1.0  0.71368  0.46277  0.82621  1.0000
  O   O50       1.0  0.28632  0.46277  0.17378999999999994  1.0000
  O   O51       1.0  0.21368000000000004  0.9627700000000001  0.82621  1.0000
  O   O52       1.0  0.78632  0.9627700000000001  0.17378999999999994  1.0000
  H   H137      1.0  0.9477  0.50031  0.5355699999999999  1.0000
  H   H138      1.0  0.05228  0.5001800000000001  0.46404  1.0000
  H   H139      1.0  0.44770000000000004  0.0003100000000000004  0.5355699999999999  1.0000
  H   H140      1.0  0.55228  0.00018000000000000007  0.46404  1.0000
  H   H141      1.0  0.59813  0.85067  0.9186399999999999  1.0000
  H   H142      1.0  0.39975  0.8195700000000002  0.07995  1.0000
  H   H143      1.0  0.09812  0.3506600000000001  0.9186299999999998  1.0000
  H   H144      1.0  0.8997600000000001  0.31952  0.07997  1.0000
