data_image0
_chemical_formula_structural       C120Cr12H148N4O52
_chemical_formula_sum              "C120 Cr12 H148 N4 O52"
_cell_length_a       19.63622
_cell_length_b       11.409429999999999
_cell_length_c       18.70318
_cell_angle_alpha    89.84956999999999
_cell_angle_beta     90.31057
_cell_angle_gamma    89.98698999999999

_space_group_name_H-M_alt    "P 1"
_space_group_IT_number       1

loop_
  _space_group_symop_operation_xyz
  'x, y, z'

loop_
  _atom_site_type_symbol
  _atom_site_label
  _atom_site_symmetry_multiplicity
  _atom_site_fract_x
  _atom_site_fract_y
  _atom_site_fract_z
  _atom_site_occupancy
  C   C1        1.0  0.7613300000000001  0.52327  0.63901  1.0000
  C   C2        1.0  0.25333  0.05592  0.56271  1.0000
  C   C3        1.0  0.73937  0.03407  0.1515  1.0000
  C   C4        1.0  0.7743800000000001  0.13348  0.85913  1.0000
  C   C5        1.0  0.22562000000000001  0.13368  0.14089  1.0000
  C   C6        1.0  0.27461  0.6345  0.8595200000000001  1.0000
  C   C7        1.0  0.72532  0.63454  0.14053  1.0000
  C   C8        1.0  0.9686200000000003  0.35368  0.8537  1.0000
  C   C9        1.0  0.03146  0.35379  0.14618  1.0000
  C   C10       1.0  0.46793000000000007  0.8536499999999998  0.8542800000000003  1.0000
  C   C11       1.0  0.53063  0.85377  0.14681  1.0000
  C   C12       1.0  0.69184  0.14582  0.46247000000000005  1.0000
  C   C13       1.0  0.24742000000000003  0.55989  0.43590000000000007  1.0000
  C   C14       1.0  0.31482  0.12696  0.53328  1.0000
  C   C15       1.0  0.19184000000000004  0.64582  0.46247000000000005  1.0000
  C   C16       1.0  0.8148200000000001  0.6269599999999999  0.53328  1.0000
  C   C17       1.0  0.69385  0.15023  0.54442  1.0000
  C   C18       1.0  0.31302  0.12989  0.45121  1.0000
  C   C19       1.0  0.19385  0.65023  0.54442  1.0000
  C   C20       1.0  0.81302  0.62989  0.45121  1.0000
  C   C21       1.0  0.7448600000000001  0.94508  0.48081000000000007  1.0000
  C   C22       1.0  0.24010000000000004  0.9400099999999999  0.52001  1.0000
  C   C23       1.0  0.24486000000000002  0.44507999999999986  0.48081000000000007  1.0000
  C   C24       1.0  0.75333  0.55592  0.56271  1.0000
  C   C25       1.0  0.7401  0.44001  0.52001  1.0000
  C   C26       1.0  0.7605100000000001  0.09266  0.5736  1.0000
  C   C27       1.0  0.24197  0.08808999999999999  0.4246  1.0000
  C   C28       1.0  0.26051  0.59266  0.5736  1.0000
  C   C29       1.0  0.7419600000000001  0.5880899999999999  0.4246  1.0000
  C   C30       1.0  0.75303  0.96191  0.5618300000000002  1.0000
  C   C31       1.0  0.23728000000000002  0.95761  0.43883000000000005  1.0000
  C   C32       1.0  0.25303000000000003  0.46191999999999994  0.5618300000000002  1.0000
  C   C33       1.0  0.23918000000000003  0.52537  0.36007  1.0000
  C   C34       1.0  0.73728  0.4576099999999999  0.43883000000000005  1.0000
  C   C35       1.0  0.82455  0.13043  0.53026  1.0000
  C   C36       1.0  0.18624000000000004  0.15046  0.4684400000000001  1.0000
  C   C37       1.0  0.32455  0.63042  0.53026  1.0000
  C   C38       1.0  0.68624  0.65046  0.4684400000000001  1.0000
  C   C39       1.0  0.9938800000000001  0.20576999999999998  0.45697  1.0000
  C   C40       1.0  0.9927900000000001  0.20577999999999996  0.53965  1.0000
  C   C41       1.0  0.49388000000000004  0.70576  0.45697  1.0000
  C   C42       1.0  0.49279000000000006  0.70578  0.53965  1.0000
  C   C43       1.0  0.068  0.3845799999999999  0.47395  1.0000
  C   C44       1.0  0.26133  0.023279999999999995  0.63901  1.0000
  C   C45       1.0  0.9362800000000001  0.41013999999999995  0.52535  1.0000
  C   C46       1.0  0.568  0.88458  0.47395  1.0000
  C   C47       1.0  0.43628  0.91013  0.52535  1.0000
  C   C48       1.0  0.9452400000000001  0.40419999999999995  0.44442  1.0000
  C   C49       1.0  0.05747000000000001  0.38764  0.55507  1.0000
  C   C50       1.0  0.44524  0.9041999999999998  0.44441  1.0000
  C   C51       1.0  0.55747  0.8876399999999999  0.55507  1.0000
  C   C52       1.0  0.00835  0.3320199999999999  0.42992  1.0000
  C   C53       1.0  0.9882900000000002  0.33346  0.5684900000000002  1.0000
  C   C54       1.0  0.50835  0.83202  0.42992  1.0000
  C   C55       1.0  0.73918  0.025369999999999993  0.36007  1.0000
  C   C56       1.0  0.48829000000000006  0.83346  0.5684900000000002  1.0000
  C   C57       1.0  0.81864  0.0328  0.04802  1.0000
  C   C58       1.0  0.18698  0.012539999999999997  0.95499  1.0000
  C   C59       1.0  0.3203  0.53663  0.04976  1.0000
  C   C60       1.0  0.68162  0.53121  0.9522  1.0000
  C   C61       1.0  0.7743400000000001  0.12219999999999998  0.6491  1.0000
  C   C62       1.0  0.22716  0.11873999999999998  0.34925  1.0000
  C   C63       1.0  0.27434  0.6221999999999999  0.6491  1.0000
  C   C64       1.0  0.72716  0.61874  0.34925  1.0000
  C   C65       1.0  0.8189300000000002  0.02972  0.96755  1.0000
  C   C66       1.0  0.81575  0.11761  0.44939000000000007  1.0000
  C   C67       1.0  0.18322  0.024829999999999994  0.03459  1.0000
  C   C68       1.0  0.32373  0.5467999999999998  0.96981  1.0000
  C   C69       1.0  0.68095  0.53049  0.03273  1.0000
  C   C70       1.0  0.69158  0.00932  0.030080000000000003  1.0000
  C   C71       1.0  0.31688  0.029789999999999994  0.96995  1.0000
  C   C72       1.0  0.19471  0.50911  0.03127  1.0000
  C   C73       1.0  0.8082400000000002  0.50938  0.97037  1.0000
  C   C74       1.0  0.73862  0.20242  0.06073  1.0000
  C   C75       1.0  0.24422  0.20038  0.93623  1.0000
  C   C76       1.0  0.24142000000000002  0.70524  0.06185  1.0000
  C   C77       1.0  0.19124  0.13222  0.54967  1.0000
  C   C78       1.0  0.76079  0.70196  0.9380000000000001  1.0000
  C   C79       1.0  0.7467  0.07126  0.07537  1.0000
  C   C80       1.0  0.2533  0.06866  0.92511  1.0000
  C   C81       1.0  0.24878000000000003  0.57395  0.07636  1.0000
  C   C82       1.0  0.75322  0.57053  0.92455  1.0000
  C   C83       1.0  0.75978  0.1054  0.93627  1.0000
  C   C84       1.0  0.24019000000000001  0.1055  0.06372  1.0000
  C   C85       1.0  0.26041  0.6084599999999999  0.9371200000000001  1.0000
  C   C86       1.0  0.73996  0.60664  0.06336  1.0000
  C   C87       1.0  0.69401  0.03891  0.94913  1.0000
  C   C88       1.0  0.31575  0.61761  0.44939000000000007  1.0000
  C   C89       1.0  0.30757  0.043629999999999995  0.05158000000000001  1.0000
  C   C90       1.0  0.20122  0.52547  0.94931  1.0000
  C   C91       1.0  0.8061600000000001  0.5410599999999999  0.05088  1.0000
  C   C92       1.0  0.7540000000000001  0.21963  0.9800500000000001  1.0000
  C   C93       1.0  0.24153  0.21930999999999998  0.01853  1.0000
  C   C94       1.0  0.24132000000000006  0.72248  0.97906  1.0000
  C   C95       1.0  0.74536  0.72048  0.01847  1.0000
  C   C96       1.0  0.9985700000000001  0.48111  0.04073  1.0000
  C   C97       1.0  0.9994800000000001  0.48142999999999997  0.9594300000000001  1.0000
  C   C98       1.0  0.49657000000000007  0.9806199999999998  0.04179  1.0000
  C   C99       1.0  0.69124  0.63221  0.54967  1.0000
  C   C100      1.0  0.4942800000000001  0.98056  0.96081  1.0000
  C   C101      1.0  0.06754  0.29466  0.02662  1.0000
  C   C102      1.0  0.93364  0.29001  0.97276  1.0000
  C   C103      1.0  0.5673  0.79474  0.027830000000000004  1.0000
  C   C104      1.0  0.4378000000000001  0.77482  0.97345  1.0000
  C   C105      1.0  0.94613  0.28403  0.054180000000000006  1.0000
  C   C106      1.0  0.055060000000000005  0.2875599999999999  0.94532  1.0000
  C   C107      1.0  0.44497000000000003  0.78446  0.055310000000000005  1.0000
  C   C108      1.0  0.55853  0.7994699999999999  0.94543  1.0000
  C   C109      1.0  0.9683000000000002  0.34238  0.64468  1.0000
  C   C110      1.0  0.74742  0.05988999999999999  0.43590000000000007  1.0000
  C   C111      1.0  0.0297  0.34187  0.35405  1.0000
  C   C112      1.0  0.46830000000000005  0.84238  0.64468  1.0000
  C   C113      1.0  0.5297  0.8418699999999998  0.35405  1.0000
  C   C114      1.0  0.01008  0.3538299999999999  0.06945  1.0000
  C   C115      1.0  0.98978  0.35364999999999996  0.93035  1.0000
  C   C116      1.0  0.50921  0.85398  0.07022  1.0000
  C   C117      1.0  0.4890000000000001  0.85327  0.9311400000000001  1.0000
  C   C118      1.0  0.76074  0.53334  0.8486300000000001  1.0000
  C   C119      1.0  0.24019000000000001  0.53596  0.1524  1.0000
  C   C120      1.0  0.26112  0.03178  0.84921  1.0000
  Cr  Cr1       1.0  0.88569  0.49286  0.74531  1.0000
  Cr  Cr2       1.0  0.11188000000000001  0.17858999999999994  0.24699  1.0000
  Cr  Cr3       1.0  0.38812  0.67859  0.75301  1.0000
  Cr  Cr4       1.0  0.6118800000000001  0.67859  0.24699  1.0000
  Cr  Cr5       1.0  0.11431  0.49286  0.25469  1.0000
  Cr  Cr6       1.0  0.38569000000000003  0.9928599999999997  0.74531  1.0000
  Cr  Cr7       1.0  0.6143100000000001  0.9928599999999997  0.25469  1.0000
  Cr  Cr8       1.0  0.7298800000000002  0.33227  0.74819  1.0000
  Cr  Cr9       1.0  0.27012  0.33227  0.25181  1.0000
  Cr  Cr10      1.0  0.22988000000000003  0.83227  0.74819  1.0000
  Cr  Cr11      1.0  0.77012  0.83227  0.25181  1.0000
  Cr  Cr12      1.0  0.8881200000000001  0.17858999999999994  0.75301  1.0000
  H   H1        1.0  0.64007  0.12357  0.44416  1.0000
  H   H2        1.0  0.18835000000000002  0.91068  0.53478  1.0000
  H   H3        1.0  0.54119  0.02278  0.9401700000000001  1.0000
  H   H4        1.0  0.61186  0.84021  0.04494  1.0000
  H   H5        1.0  0.3850100000000001  0.78478  0.95556  1.0000
  H   H6        1.0  0.10947  0.35152  0.03556000000000001  1.0000
  H   H7        1.0  0.8893  0.34076  0.9616100000000001  1.0000
  H   H8        1.0  0.59965  0.8505599999999999  0.91992  1.0000
  H   H9        1.0  0.39976  0.8273199999999998  0.07895  1.0000
  H   H10       1.0  0.0976  0.32848  0.9154300000000001  1.0000
  H   H11       1.0  0.9019  0.31967  0.08388000000000001  1.0000
  H   H12       1.0  0.95429  0.19171999999999997  0.0713  1.0000
  H   H13       1.0  0.28309  0.3816099999999999  0.46229000000000003  1.0000
  H   H14       1.0  0.05051  0.1946  0.92818  1.0000
  H   H15       1.0  0.45046  0.69617  0.07969  1.0000
  H   H16       1.0  0.56009  0.71058  0.92203  1.0000
  H   H17       1.0  0.92766  0.20079999999999998  0.95219  1.0000
  H   H18       1.0  0.07767000000000002  0.20668999999999998  0.04789  1.0000
  H   H19       1.0  0.45361  0.68446  0.96044  1.0000
  H   H20       1.0  0.5707  0.70257  0.04434  1.0000
  H   H21       1.0  0.6490600000000001  0.10291  0.5659  1.0000
  H   H22       1.0  0.35236  0.0721  0.4290900000000001  1.0000
  H   H23       1.0  0.14906  0.60292  0.5659  1.0000
  H   H24       1.0  0.68835  0.41067  0.53478  1.0000
  H   H25       1.0  0.8523600000000001  0.57209  0.4290900000000001  1.0000
  H   H26       1.0  0.69445  0.9143599999999998  0.47230000000000005  1.0000
  H   H27       1.0  0.2761  0.8703899999999999  0.53438  1.0000
  H   H28       1.0  0.19445  0.41435999999999995  0.47230000000000005  1.0000
  H   H29       1.0  0.77611  0.37039  0.53437  1.0000
  H   H30       1.0  0.70831  0.92716  0.59124  1.0000
  H   H31       1.0  0.27946000000000004  0.90991  0.4123200000000001  1.0000
  H   H32       1.0  0.20831  0.42716  0.59124  1.0000
  H   H33       1.0  0.77946  0.40991  0.4123200000000001  1.0000
  H   H34       1.0  0.85688  0.060969999999999996  0.42782  1.0000
  H   H35       1.0  0.7985300000000002  0.91371  0.58187  1.0000
  H   H36       1.0  0.14466  0.08839999999999999  0.56993  1.0000
  H   H37       1.0  0.35688000000000003  0.56097  0.42781  1.0000
  H   H38       1.0  0.64466  0.5883999999999999  0.56993  1.0000
  H   H39       1.0  0.8186600000000002  0.20433999999999997  0.42242000000000013  1.0000
  H   H40       1.0  0.19603000000000007  0.21732  0.5779300000000002  1.0000
  H   H41       1.0  0.31866  0.70434  0.42242000000000013  1.0000
  H   H42       1.0  0.69603  0.7173099999999999  0.5779300000000002  1.0000
  H   H43       1.0  0.84163  0.2189  0.54446  1.0000
  H   H44       1.0  0.19603000000000007  0.24069  0.45636000000000004  1.0000
  H   H45       1.0  0.34163000000000004  0.7188999999999999  0.54446  1.0000
  H   H46       1.0  0.18838  0.92318  0.41707  1.0000
  H   H47       1.0  0.69603  0.7406899999999998  0.45636000000000004  1.0000
  H   H48       1.0  0.65998  0.23836  0.13275  1.0000
  H   H49       1.0  0.6317800000000001  0.21325999999999998  0.04675000000000001  1.0000
  H   H50       1.0  0.29572000000000004  0.26051  0.8464200000000001  1.0000
  H   H51       1.0  0.3451  0.25944  0.92188  1.0000
  H   H52       1.0  0.18548000000000006  0.75818  0.15019  1.0000
  H   H53       1.0  0.13543  0.70861  0.08124  1.0000
  H   H54       1.0  0.83838  0.73995  0.86511  1.0000
  H   H55       1.0  0.86778  0.71254  0.95047  1.0000
  H   H56       1.0  0.29853  0.41370999999999997  0.58187  1.0000
  H   H57       1.0  0.68838  0.4231799999999999  0.41707  1.0000
  H   H58       1.0  0.030530000000000005  0.14058  0.43729  1.0000
  H   H59       1.0  0.9532900000000001  0.15009  0.56103  1.0000
  H   H60       1.0  0.53053  0.64058  0.43729  1.0000
  H   H61       1.0  0.36326  0.09552  0.55325  1.0000
  H   H62       1.0  0.4532900000000001  0.65009  0.56103  1.0000
  H   H63       1.0  0.94453  0.17665  0.43557000000000007  1.0000
  H   H64       1.0  0.04002000000000001  0.16384  0.55981  1.0000
  H   H65       1.0  0.44453000000000004  0.67665  0.43557000000000007  1.0000
  H   H66       1.0  0.54002  0.66384  0.5598  1.0000
  H   H67       1.0  0.6080000000000001  0.82458  0.46323000000000003  1.0000
  H   H68       1.0  0.38354  0.89229  0.5406200000000001  1.0000
  H   H69       1.0  0.10800000000000001  0.32458  0.46323000000000003  1.0000
  H   H70       1.0  0.8835400000000001  0.39228999999999997  0.5406200000000001  1.0000
  H   H71       1.0  0.59816  0.83844  0.58367  1.0000
  H   H72       1.0  0.14008  0.62357  0.44416  1.0000
  H   H73       1.0  0.39969000000000005  0.86515  0.41831  1.0000
  H   H74       1.0  0.09817  0.33843  0.58367  1.0000
  H   H75       1.0  0.8997000000000003  0.36515  0.41831  1.0000
  H   H76       1.0  0.95233  0.4940899999999999  0.4226  1.0000
  H   H77       1.0  0.05931000000000001  0.47941  0.5747  1.0000
  H   H78       1.0  0.4523300000000001  0.99409  0.4226  1.0000
  H   H79       1.0  0.5593  0.97941  0.5747  1.0000
  H   H80       1.0  0.9484000000000001  0.50189  0.53936  1.0000
  H   H81       1.0  0.08056  0.4734499999999999  0.45561000000000007  1.0000
  H   H82       1.0  0.4484  0.00189  0.53936  1.0000
  H   H83       1.0  0.8632600000000001  0.59552  0.55325  1.0000
  H   H84       1.0  0.58056  0.97345  0.45561000000000007  1.0000
  H   H85       1.0  0.8359300000000001  0.945  0.06586000000000002  1.0000
  H   H86       1.0  0.18191  0.9201799999999999  0.9415400000000002  1.0000
  H   H87       1.0  0.33368  0.4446899999999999  0.06317  1.0000
  H   H88       1.0  0.66505  0.4428499999999999  0.9352100000000001  1.0000
  H   H89       1.0  0.70149  0.23349999999999999  0.44002  1.0000
  H   H90       1.0  0.31269  0.21814  0.55365  1.0000
  H   H91       1.0  0.20149  0.7335  0.44001  1.0000
  H   H92       1.0  0.81269  0.71813  0.55365  1.0000
  H   H93       1.0  0.85731  0.09502  0.06811  1.0000
  H   H94       1.0  0.8648100000000001  0.06695  0.54508  1.0000
  H   H95       1.0  0.14137  0.05422  0.93007  1.0000
  H   H96       1.0  0.35958  0.5911699999999999  0.07571  1.0000
  H   H97       1.0  0.64263  0.59153  0.9310200000000001  1.0000
  H   H98       1.0  0.8705400000000001  0.05102  0.9494200000000002  1.0000
  H   H99       1.0  0.13099  0.05088  0.04841  1.0000
  H   H100      1.0  0.37048  0.58803  0.95497  1.0000
  H   H101      1.0  0.62935  0.5535899999999999  0.0502  1.0000
  H   H102      1.0  0.81075  0.93997  0.94971  1.0000
  H   H103      1.0  0.19016  0.94014  0.059390000000000005  1.0000
  H   H104      1.0  0.32925000000000004  0.45881  0.9468300000000001  1.0000
  H   H105      1.0  0.13532  0.12346999999999998  0.45038  1.0000
  H   H106      1.0  0.6889000000000001  0.44137999999999994  0.05215  1.0000
  H   H107      1.0  0.70424  0.9201299999999999  0.03713000000000001  1.0000
  H   H108      1.0  0.33411  0.9428599999999999  0.95568  1.0000
  H   H109      1.0  0.2046  0.42064  0.045180000000000005  1.0000
  H   H110      1.0  0.7956000000000001  0.42002999999999996  0.9649  1.0000
  H   H111      1.0  0.6933800000000001  0.9579199999999999  0.9165  1.0000
  H   H112      1.0  0.30823  0.95703  0.07862000000000001  1.0000
  H   H113      1.0  0.20935  0.44045999999999996  0.9223  1.0000
  H   H114      1.0  0.80904  0.46079  0.08453  1.0000
  H   H115      1.0  0.7766  0.25166  0.09332  1.0000
  H   H116      1.0  0.36481  0.56695  0.54508  1.0000
  H   H117      1.0  0.1949  0.22712999999999994  0.91199  1.0000
  H   H118      1.0  0.286  0.75207  0.08488  1.0000
  H   H119      1.0  0.72252  0.75001  0.9049000000000001  1.0000
  H   H120      1.0  0.80524  0.25014  0.9791900000000001  1.0000
  H   H121      1.0  0.19223  0.25262999999999997  0.028730000000000002  1.0000
  H   H122      1.0  0.27455000000000007  0.7945599999999998  0.96408  1.0000
  H   H123      1.0  0.69411  0.75106  0.01811  1.0000
  H   H124      1.0  0.71761  0.2806699999999999  0.95466  1.0000
  H   H125      1.0  0.28275  0.27801  0.03718  1.0000
  H   H126      1.0  0.18879  0.7451799999999997  0.96235  1.0000
  H   H127      1.0  0.63532  0.62347  0.45038  1.0000
  H   H128      1.0  0.78171  0.78219  0.04331  1.0000
  H   H129      1.0  0.6406  0.024039999999999995  0.051620000000000006  1.0000
  H   H130      1.0  0.35824  0.08797  0.9552800000000001  1.0000
  H   H131      1.0  0.14308  0.53139  0.04819  1.0000
  H   H132      1.0  0.8588100000000001  0.52308  0.94821  1.0000
  H   H133      1.0  0.68701  0.23936  0.56342  1.0000
  H   H134      1.0  0.32672000000000007  0.21862  0.43252000000000007  1.0000
  H   H135      1.0  0.18702  0.7393699999999999  0.56342  1.0000
  H   H136      1.0  0.82672  0.71862  0.43252000000000007  1.0000
  H   H137      1.0  0.64969  0.09381  0.93329  1.0000
  H   H138      1.0  0.78309  0.88161  0.46229000000000003  1.0000
  H   H139      1.0  0.34902000000000005  0.09799  0.07478  1.0000
  H   H140      1.0  0.15421  0.56383  0.9262  1.0000
  H   H141      1.0  0.84951  0.59887  0.06534  1.0000
  H   H142      1.0  0.03631  0.54592  0.05966  1.0000
  H   H143      1.0  0.96235  0.54664  0.9400100000000001  1.0000
  H   H144      1.0  0.53482  0.04563999999999999  0.05913  1.0000
  H   H145      1.0  0.4545  0.03905  0.9418700000000001  1.0000
  H   H146      1.0  0.9490700000000001  0.51372  0.06009  1.0000
  H   H147      1.0  0.04873  0.51611  0.9405900000000001  1.0000
  H   H148      1.0  0.44803000000000004  0.013789999999999998  0.0632  1.0000
  N   N1        1.0  0.6707  0.24784  0.07851  1.0000
  N   N2        1.0  0.29618  0.27316999999999997  0.9017100000000001  1.0000
  N   N3        1.0  0.17979  0.75377  0.09467  1.0000
  N   N4        1.0  0.82842  0.74797  0.9195800000000001  1.0000
  O   O1        1.0  0.95721  0.44941  0.66548  1.0000
  O   O2        1.0  0.16748  0.0953  0.164  1.0000
  O   O3        1.0  0.33252  0.5953  0.8360000000000001  1.0000
  O   O4        1.0  0.6674800000000001  0.5953  0.164  1.0000
  O   O5        1.0  0.94638  0.25394  0.82694  1.0000
  O   O6        1.0  0.05362  0.25394  0.17306  1.0000
  O   O7        1.0  0.44638  0.75394  0.82694  1.0000
  O   O8        1.0  0.5536200000000001  0.75394  0.17306  1.0000
  O   O9        1.0  0.8345600000000001  0.33457  0.7488400000000001  1.0000
  O   O10       1.0  0.16544  0.33457  0.25116  1.0000
  O   O11       1.0  0.33456  0.83457  0.7488400000000001  1.0000
  O   O12       1.0  0.04279000000000001  0.44941  0.33452  1.0000
  O   O13       1.0  0.66544  0.83457  0.25116  1.0000
  O   O14       1.0  0.8207300000000001  0.54124  0.66825  1.0000
  O   O15       1.0  0.17927  0.54124  0.33175  1.0000
  O   O16       1.0  0.32073000000000007  0.04124  0.66825  1.0000
  O   O17       1.0  0.67927  0.04124  0.33175  1.0000
  O   O18       1.0  0.71424  0.45505999999999996  0.66371  1.0000
  O   O19       1.0  0.28576  0.45505999999999996  0.33629  1.0000
  O   O20       1.0  0.21424  0.95506  0.66371  1.0000
  O   O21       1.0  0.78576  0.95506  0.33629  1.0000
  O   O22       1.0  0.73678  0.20487  0.67591  1.0000
  O   O23       1.0  0.45721000000000006  0.94941  0.66548  1.0000
  O   O24       1.0  0.26322  0.20487  0.3240900000000001  1.0000
  O   O25       1.0  0.23678  0.7048699999999999  0.67591  1.0000
  O   O26       1.0  0.76322  0.7048699999999999  0.3240900000000001  1.0000
  O   O27       1.0  0.8330700000000001  0.08759  0.67349  1.0000
  O   O28       1.0  0.16693  0.08759  0.3265100000000001  1.0000
  O   O29       1.0  0.33307  0.58759  0.67349  1.0000
  O   O30       1.0  0.6669300000000001  0.58759  0.3265100000000001  1.0000
  O   O31       1.0  0.9468900000000001  0.24679999999999996  0.6763000000000001  1.0000
  O   O32       1.0  0.053110000000000004  0.24679999999999996  0.3237  1.0000
  O   O33       1.0  0.44689000000000006  0.7468  0.6763000000000001  1.0000
  O   O34       1.0  0.54279  0.94941  0.33452  1.0000
  O   O35       1.0  0.55311  0.7468  0.3237  1.0000
  O   O36       1.0  0.95665  0.4571199999999999  0.8279800000000002  1.0000
  O   O37       1.0  0.04335  0.4571199999999999  0.17202  1.0000
  O   O38       1.0  0.45665  0.95712  0.8279800000000002  1.0000
  O   O39       1.0  0.54335  0.95712  0.17202  1.0000
  O   O40       1.0  0.82022  0.54839  0.8188900000000001  1.0000
  O   O41       1.0  0.17978000000000002  0.54839  0.18111  1.0000
  O   O42       1.0  0.32022  0.04838999999999999  0.8188900000000001  1.0000
  O   O43       1.0  0.6797800000000002  0.04838999999999999  0.18111  1.0000
  O   O44       1.0  0.71368  0.46277  0.8262100000000002  1.0000
  O   O45       1.0  0.7362600000000001  0.21201  0.8265600000000001  1.0000
  O   O46       1.0  0.28632  0.46277  0.17379  1.0000
  O   O47       1.0  0.21368  0.96277  0.8262100000000002  1.0000
  O   O48       1.0  0.7863200000000001  0.96277  0.17379  1.0000
  O   O49       1.0  0.26374000000000003  0.21201  0.17344  1.0000
  O   O50       1.0  0.23626000000000003  0.7120099999999999  0.8265600000000001  1.0000
  O   O51       1.0  0.76374  0.7120099999999999  0.17344  1.0000
  O   O52       1.0  0.83252  0.0953  0.8360000000000001  1.0000
