data_image0
_chemical_formula_structural       O12C6O12C6Cr6O2H6C30H12C30H12NO2NO2NO2NO2NO2NO2
_chemical_formula_sum              "O38 C72 Cr6 H30 N6"
_cell_length_a       11.2325
_cell_length_b       10.97841
_cell_length_c       18.82319
_cell_angle_alpha    90.69384
_cell_angle_beta     89.82349
_cell_angle_gamma    118.85943

_symmetry_space_group_name_H-M    'P 1'
_symmetry_Int_Tables_number       1

loop_
  _symmetry_equiv_pos_as_xyz
  'x,y,z'

loop_
  _atom_site_type_symbol
  _atom_site_label
  _atom_site_symmetry_multiplicity
  _atom_site_fract_x
  _atom_site_fract_y
  _atom_site_fract_z
  _atom_site_occupancy
  O   O1        1.0  0.91096  0.57241  0.17101  1.0000
  O   O2        1.0  0.4275900000000001  0.33855  0.17101  1.0000
  O   O3        1.0  0.66145  0.08904  0.17101  1.0000
  O   O4        1.0  0.57241  0.91096  0.82899  1.0000
  O   O5        1.0  0.33855  0.42759  0.82899  1.0000
  O   O6        1.0  0.08903999999999998  0.66145  0.82899  1.0000
  O   O7        1.0  0.63975  0.52853  0.1756  1.0000
  O   O8        1.0  0.47147  0.11121999999999999  0.1756  1.0000
  O   O9        1.0  0.8887800000000001  0.36024999999999996  0.1756  1.0000
  O   O10       1.0  0.52853  0.6397499999999998  0.8244  1.0000
  O   O11       1.0  0.11122  0.47147  0.8244  1.0000
  O   O12       1.0  0.36025  0.88878  0.8244  1.0000
  C   C1        1.0  0.52087  0.45870999999999995  0.14752  1.0000
  C   C2        1.0  0.54154  0.05997999999999999  0.14802  1.0000
  C   C3        1.0  0.9392700000000002  0.4791599999999999  0.14756  1.0000
  C   C4        1.0  0.4531700000000001  0.52065  0.8539  1.0000
  C   C5        1.0  0.0666  0.54608  0.85414  1.0000
  C   C6        1.0  0.4782299999999999  0.9330099999999999  0.85418  1.0000
  O   O13       1.0  0.90933  0.5723999999999999  0.33154  1.0000
  O   O14       1.0  0.4276  0.33693  0.33154  1.0000
  O   O15       1.0  0.66307  0.09067  0.33154  1.0000
  O   O16       1.0  0.5724  0.90933  0.66846  1.0000
  O   O17       1.0  0.33693  0.4276  0.66846  1.0000
  O   O18       1.0  0.09066999999999995  0.6630699999999999  0.66846  1.0000
  O   O19       1.0  0.63824  0.52852  0.32441  1.0000
  O   O20       1.0  0.47147999999999995  0.10971999999999998  0.32441  1.0000
  O   O21       1.0  0.8902800000000001  0.36176  0.32441  1.0000
  O   O22       1.0  0.52852  0.63824  0.67559  1.0000
  O   O23       1.0  0.10971999999999998  0.47147999999999995  0.67559  1.0000
  O   O24       1.0  0.36176  0.89028  0.67559  1.0000
  C   C7        1.0  0.5198599999999999  0.44892999999999994  0.3574  1.0000
  C   C8        1.0  0.57702  0.12012999999999999  0.36148  1.0000
  C   C9        1.0  0.89026  0.46435  0.3619  1.0000
  C   C10       1.0  0.45585  0.51259  0.64792  1.0000
  C   C11       1.0  0.06002000000000003  0.5427  0.64712  1.0000
  C   C12       1.0  0.4794399999999999  0.9383299999999999  0.64694  1.0000
  Cr  Cr1       1.0  0.7685500000000001  0.54132  0.25066  1.0000
  Cr  Cr2       1.0  0.45868  0.22723  0.25066  1.0000
  Cr  Cr3       1.0  0.77277  0.23145  0.25066  1.0000
  Cr  Cr4       1.0  0.5413200000000002  0.76855  0.74934  1.0000
  Cr  Cr5       1.0  0.22722999999999996  0.4586799999999999  0.74934  1.0000
  Cr  Cr6       1.0  0.23145  0.77277  0.74934  1.0000
  O   O25       1.0  0.66667  0.33333  0.25062999999999996  1.0000
  O   O26       1.0  0.33333  0.66667  0.74937  1.0000
  H   H1        1.0  0.6462700000000001  0.9257199999999999  0.07321  1.0000
  H   H2        1.0  0.07716999999999997  0.7174999999999999  0.07728  1.0000
  H   H3        1.0  0.28785  0.36016  0.07459  1.0000
  H   H4        1.0  0.11215999999999994  0.7414899999999999  0.95129  1.0000
  H   H5        1.0  0.63307  0.89227  0.94727  1.0000
  H   H6        1.0  0.26400999999999997  0.37203  0.94908  1.0000
  C   C13       1.0  0.49202999999999997  0.97275  0.9294100000000001  1.0000
  C   C14       1.0  0.026130000000000007  0.52  0.9287999999999998  1.0000
  C   C15       1.0  0.47986  0.5046699999999998  0.92837  1.0000
  C   C16       1.0  0.0029599999999999657  0.49563999999999997  0.0772  1.0000
  C   C17       1.0  0.49457  0.9927699999999999  0.07803  1.0000
  C   C18       1.0  0.50346  0.50497  0.07691  1.0000
  C   C19       1.0  0.40536  0.01516  0.96306  1.0000
  C   C20       1.0  0.97962  0.38795  0.9595200000000002  1.0000
  C   C21       1.0  0.60837  0.5863  0.96019  1.0000
  C   C22       1.0  0.98159  0.37836  0.03451  1.0000
  C   C23       1.0  0.39553  0.00974  0.03807  1.0000
  C   C24       1.0  0.61735  0.59852  0.03528  1.0000
  C   C25       1.0  0.5754699999999999  0.9466  0.04377  1.0000
  C   C26       1.0  0.053479999999999986  0.62541  0.04568  1.0000
  C   C27       1.0  0.37739  0.42723  0.04412  1.0000
  C   C28       1.0  0.06763999999999995  0.6377699999999998  0.97294  1.0000
  C   C29       1.0  0.5720399999999999  0.9338699999999999  0.9709299999999998  1.0000
  C   C30       1.0  0.36528999999999995  0.42955999999999994  0.97143  1.0000
  C   C31       1.0  0.3272  0.06127  0.92428  1.0000
  C   C32       1.0  0.93309  0.26554999999999995  0.91759  1.0000
  C   C33       1.0  0.7278100000000001  0.6575199999999999  0.91927  1.0000
  C   C34       1.0  0.9612  0.25163  0.06368  1.0000
  C   C35       1.0  0.2885  0.023729999999999994  0.07008  1.0000
  C   C36       1.0  0.74029  0.7029799999999999  0.06538  1.0000
  C   C37       1.0  0.22977000000000003  0.08498  0.9580399999999999  1.0000
  C   C38       1.0  0.90494  0.13997999999999997  0.94834  1.0000
  C   C39       1.0  0.84989  0.7519  0.95105  1.0000
  C   C40       1.0  0.92135  0.13396  0.02102  1.0000
  C   C41       1.0  0.20912999999999998  0.06399  0.03059  1.0000
  C   C42       1.0  0.85533  0.7758  0.02379  1.0000
  H   H7        1.0  0.34177  0.08158  0.86801  1.0000
  H   H8        1.0  0.91663  0.26505  0.8610099999999999  1.0000
  H   H9        1.0  0.72877  0.6398799999999999  0.8626999999999999  1.0000
  H   H10       1.0  0.98069  0.24216  0.11887  1.0000
  H   H11       1.0  0.26153  0.99985  0.12523  1.0000
  H   H12       1.0  0.74887  0.73459  0.12044  1.0000
  H   H13       1.0  0.16898999999999995  0.11800999999999999  0.9276599999999999  1.0000
  H   H14       1.0  0.8721600000000002  0.04757  0.91555  1.0000
  H   H15       1.0  0.9399699999999999  0.8081  0.919  1.0000
  H   H16       1.0  0.9017999999999999  0.0375  0.04497  1.0000
  H   H17       1.0  0.13234  0.08026999999999998  0.05687  1.0000
  H   H18       1.0  0.9492999999999999  0.85056  0.04852  1.0000
  C   C43       1.0  0.50016  0.01059  0.57898  1.0000
  C   C44       1.0  0.0026899999999999372  0.5110399999999999  0.57562  1.0000
  C   C45       1.0  0.49173999999999995  0.45981999999999995  0.58308  1.0000
  C   C46       1.0  0.9536  0.50592  0.43111999999999995  1.0000
  C   C47       1.0  0.55395  0.07259  0.43477  1.0000
  C   C48       1.0  0.49184999999999995  0.45631  0.43499000000000004  1.0000
  C   C49       1.0  0.63328  0.09718  0.55707  1.0000
  C   C50       1.0  0.94569  0.59278  0.54936  1.0000
  C   C51       1.0  0.39760999999999996  0.33509999999999995  0.54904  1.0000
  C   C52       1.0  0.9364  0.60366  0.47555  1.0000
  C   C53       1.0  0.66193  0.10625  0.48389999999999994  1.0000
  C   C54       1.0  0.38915000000000005  0.33497  0.47328999999999993  1.0000
  C   C55       1.0  0.4214  0.98519  0.45588999999999996  1.0000
  C   C56       1.0  0.02942999999999995  0.4464599999999999  0.45481999999999995  1.0000
  C   C57       1.0  0.5869  0.56601  0.4775400000000001  1.0000
  C   C58       1.0  0.05630999999999999  0.4515  0.52658  1.0000
  C   C59       1.0  0.39574  0.95257  0.52743  1.0000
  C   C60       1.0  0.60958  0.52653  0.54554  1.0000
  C   C61       1.0  0.7405  0.14663  0.60661  1.0000
  C   C62       1.0  0.90292  0.66953  0.5950799999999999  1.0000
  C   C63       1.0  0.31432  0.21516999999999997  0.58799  1.0000
  C   C64       1.0  0.90982  0.7106799999999999  0.45056  1.0000
  C   C65       1.0  0.7915600000000002  0.12688  0.46419000000000005  1.0000
  C   C66       1.0  0.27517  0.2187  0.44226  1.0000
  C   C67       1.0  0.85977  0.14917  0.58723  1.0000
  C   C68       1.0  0.8822299999999997  0.7755099999999998  0.56936  1.0000
  C   C69       1.0  0.20209  0.10764  0.55565  1.0000
  C   C70       1.0  0.88969  0.79815  0.49720999999999993  1.0000
  C   C71       1.0  0.88343  0.13523  0.51595  1.0000
  C   C72       1.0  0.18428  0.10865  0.48303  1.0000
  H   H19       1.0  0.72413  0.15831  0.66249  1.0000
  H   H20       1.0  0.8838  0.64741  0.6511  1.0000
  H   H21       1.0  0.32843  0.20972  0.64451  1.0000
  H   H22       1.0  0.9101899999999999  0.73777  0.39599  1.0000
  H   H23       1.0  0.8206  0.12138999999999998  0.41055  1.0000
  H   H24       1.0  0.24254  0.21121  0.38817  1.0000
  H   H25       1.0  0.9307199999999999  0.15761  0.62811  1.0000
  H   H26       1.0  0.85615  0.8369299999999998  0.60512  1.0000
  H   H27       1.0  0.12412  0.029  0.58801  1.0000
  H   H28       1.0  0.8712200000000001  0.8789699999999999  0.47655999999999993  1.0000
  H   H29       1.0  0.9752799999999999  0.13624  0.50017  1.0000
  H   H30       1.0  0.09591999999999999  0.02695  0.45755000000000007  1.0000
  N   N1        1.0  0.32043999999999995  0.9022099999999998  0.40328  1.0000
  O   O27       1.0  0.34621999999999997  0.8285499999999998  0.35728  1.0000
  O   O28       1.0  0.19928  0.88902  0.40515  1.0000
  N   N2        1.0  0.10561  0.41154  0.40491  1.0000
  O   O29       1.0  0.20369999999999996  0.5097899999999999  0.3693  1.0000
  O   O30       1.0  0.06428999999999994  0.28278999999999993  0.38687  1.0000
  N   N3        1.0  0.6004499999999999  0.7018099999999999  0.46757000000000004  1.0000
  O   O31       1.0  0.6141099999999998  0.7814999999999999  0.52215  1.0000
  O   O32       1.0  0.58551  0.74105  0.40479  1.0000
  N   N4        1.0  0.16597999999999993  0.43005999999999994  0.54601  1.0000
  O   O33       1.0  0.14244  0.3209  0.58133  1.0000
  O   O34       1.0  0.28884000000000004  0.519  0.52738  1.0000
  N   N5        1.0  0.27156999999999987  0.8351599999999998  0.54388  1.0000
  O   O35       1.0  0.23769  0.72167  0.50843  1.0000
  O   O36       1.0  0.18017999999999987  0.8522599999999999  0.57721  1.0000
  N   N6        1.0  0.6706699999999999  0.43692  0.54597  1.0000
  O   O37       1.0  0.67704  0.37532  0.48774  1.0000
  O   O38       1.0  0.68561  0.38850999999999997  0.6063  1.0000
