data_image0
_chemical_formula_structural       O3CO2CO2VOCOCVOCH2C13H5C3HCHC4H4C3HCHC4H4CH3C13H4O3CO2CO2VOCOCVONHCH3CO2H
_chemical_formula_sum              "O22 C54 V4 H31 N1"
_cell_length_a       6.97701
_cell_length_b       13.793940000000001
_cell_length_c       20.25548
_cell_angle_alpha    103.36029999999998
_cell_angle_beta     89.67934000000001
_cell_angle_gamma    89.87275999999999

_space_group_name_H-M_alt    "P 1"
_space_group_IT_number       1

loop_
  _space_group_symop_operation_xyz
  'x, y, z'

loop_
  _atom_site_type_symbol
  _atom_site_label
  _atom_site_symmetry_multiplicity
  _atom_site_fract_x
  _atom_site_fract_y
  _atom_site_fract_z
  _atom_site_occupancy
  O   O1        1.0  0.50677  0.5997  0.44955  1.0000
  O   O2        1.0  0.17998  0.5957400000000002  0.58796  1.0000
  O   O3        1.0  0.004580000000000001  0.4003  0.55045  1.0000
  C   C1        1.0  0.34745000000000004  0.6165500000000003  0.61547  1.0000
  O   O4        1.0  0.17738  0.6117  0.45238  1.0000
  O   O5        1.0  0.00197  0.41637  0.4139  1.0000
  C   C2        1.0  0.34561  0.6357400000000001  0.435  1.0000
  O   O6        1.0  0.50939  0.58363  0.5861  1.0000
  O   O7        1.0  0.33753  0.4358900000000001  0.4875300000000001  1.0000
  V   V1        1.0  0.06466  0.51189  0.50231  1.0000
  O   O8        1.0  0.67195  0.4042600000000001  0.41204  1.0000
  C   C3        1.0  0.84172  0.386  0.38395000000000007  1.0000
  O   O9        1.0  0.6745400000000001  0.3883  0.54762  1.0000
  C   C4        1.0  0.8433300000000001  0.36324  0.56509  1.0000
  V   V2        1.0  0.56403  0.48810999999999993  0.49768999999999997  1.0000
  O   O10       1.0  0.8410300000000003  0.56411  0.51247  1.0000
  C   C5        1.0  0.8934600000000003  0.11411000000000003  0.60782  1.0000
  H   H1        1.0  0.8902400000000003  0.16608000000000006  0.51596  1.0000
  H   H2        1.0  0.91651  0.038389999999999994  0.57945  1.0000
  C   C6        1.0  0.85314  0.28634  0.60413  1.0000
  C   C7        1.0  0.83703  0.3126500000000001  0.93074  1.0000
  C   C8        1.0  0.82217  0.38797  0.89589  1.0000
  C   C9        1.0  0.8285600000000001  0.36577000000000004  0.8252100000000001  1.0000
  C   C10       1.0  0.8509000000000001  0.26631  0.78702  1.0000
  C   C11       1.0  0.86776  0.18957  0.82326  1.0000
  C   C12       1.0  0.85751  0.24077000000000004  0.71436  1.0000
  C   C13       1.0  0.88157  0.13898  0.67939  1.0000
  C   C14       1.0  0.89714  0.06435000000000002  0.71658  1.0000
  C   C15       1.0  0.8913500000000002  0.09032000000000001  0.78721  1.0000
  C   C16       1.0  0.84217  0.3132  0.675  1.0000
  C   C17       1.0  0.87947  0.18708  0.57082  1.0000
  C   C18       1.0  0.85968  0.21365999999999996  0.89532  1.0000
  H   H3        1.0  0.8231400000000001  0.3913600000000001  0.69753  1.0000
  H   H4        1.0  0.83029  0.33158  0.9857  1.0000
  H   H5        1.0  0.8155800000000002  0.42851  0.80232  1.0000
  H   H6        1.0  0.8047800000000003  0.46448000000000006  0.92392  1.0000
  H   H7        1.0  0.90476  0.03105000000000001  0.8138100000000001  1.0000
  C   C19       1.0  0.69184  0.21081  0.21985000000000002  1.0000
  C   C20       1.0  0.85738  0.19987  0.17903  1.0000
  C   C21       1.0  0.01233  0.26229  0.204  1.0000
  H   H8        1.0  0.12834  0.26868  0.16998  1.0000
  C   C22       1.0  0.01177  0.32146  0.27111  1.0000
  H   H9        1.0  0.1291  0.3719  0.28773  1.0000
  C   C23       1.0  0.85341  0.32119  0.31454  1.0000
  C   C24       1.0  0.69231  0.26886  0.28671  1.0000
  C   C25       1.0  0.50799  0.31831  0.28011  1.0000
  C   C26       1.0  0.50975  0.26179  0.20767  1.0000
  H   H10       1.0  0.51915  0.40036  0.28607  1.0000
  H   H11       1.0  0.39683  0.2935  0.31202  1.0000
  H   H12       1.0  0.52624  0.3096800000000001  0.1707  1.0000
  H   H13       1.0  0.38775  0.212  0.19952  1.0000
  C   C27       1.0  0.50529  0.74979  0.70462  1.0000
  C   C28       1.0  0.3506000000000001  0.68617  0.68335  1.0000
  C   C29       1.0  0.1929  0.69328  0.7281000000000001  1.0000
  H   H14       1.0  0.07115  0.6448800000000002  0.71405  1.0000
  C   C30       1.0  0.19612  0.75795  0.7931400000000001  1.0000
  H   H15       1.0  0.07669  0.75796  0.8273100000000001  1.0000
  C   C31       1.0  0.35792  0.8167500000000002  0.8156400000000001  1.0000
  C   C32       1.0  0.50928  0.8130800000000002  0.76929  1.0000
  C   C33       1.0  0.71576  0.79163  0.77782  1.0000
  C   C34       1.0  0.71145  0.7235400000000001  0.70735  1.0000
  H   H16       1.0  0.7386800000000001  0.7510100000000001  0.8185899999999999  1.0000
  H   H17       1.0  0.80683  0.85835  0.78106  1.0000
  H   H18       1.0  0.7328  0.6435700000000001  0.70722  1.0000
  H   H19       1.0  0.7986300000000001  0.75123  0.66952  1.0000
  C   C35       1.0  0.37111999999999995  0.8834200000000002  0.39411  1.0000
  H   H20       1.0  0.37216  0.83155  0.4857099999999999  1.0000
  H   H21       1.0  0.40814  0.00714000000000001  0.31618  1.0000
  H   H22       1.0  0.3846  0.9606400000000002  0.42123000000000005  1.0000
  C   C36       1.0  0.35263  0.7111800000000001  0.3966  1.0000
  C   C37       1.0  0.32615  0.68737  0.07079  1.0000
  C   C38       1.0  0.30175  0.61242  0.10546  1.0000
  C   C39       1.0  0.30584  0.6339600000000002  0.17603  1.0000
  C   C40       1.0  0.33687  0.73218  0.21441999999999997  1.0000
  C   C41       1.0  0.36179  0.8097300000000002  0.17892  1.0000
  C   C42       1.0  0.3452500000000001  0.7558800000000002  0.28712  1.0000
  C   C43       1.0  0.36437  0.85674  0.32308  1.0000
  C   C44       1.0  0.38589000000000007  0.9306500000000001  0.28829  1.0000
  C   C45       1.0  0.39345  0.90758  0.21821000000000002  1.0000
  C   C46       1.0  0.34032  0.6832500000000001  0.32588  1.0000
  C   C47       1.0  0.36531  0.8106200000000001  0.4308  1.0000
  C   C48       1.0  0.3556  0.78592  0.10592  1.0000
  H   H23       1.0  0.33121  0.60464  0.30304  1.0000
  H   H24       1.0  0.31958  0.66846  0.01585  1.0000
  H   H25       1.0  0.28164999999999996  0.57196  0.199  1.0000
  H   H26       1.0  0.27742  0.53666  0.0773  1.0000
  O   O11       1.0  0.20345  0.9163200000000001  0.9139100000000001  1.0000
  O   O12       1.0  0.53552  0.8883000000000001  0.04762  1.0000
  O   O13       1.0  0.7108600000000002  0.08365000000000002  0.0861  1.0000
  C   C49       1.0  0.36645  0.86116  0.06415  1.0000
  O   O14       1.0  0.53286  0.90425  0.91204  1.0000
  O   O15       1.0  0.70819  0.09970999999999995  0.94955  1.0000
  C   C50       1.0  0.36507000000000006  0.88255  0.8848400000000001  1.0000
  O   O16       1.0  0.20612  0.90026  0.05046  1.0000
  O   O17       1.0  0.37528  0.06408  0.01247  1.0000
  V   V3        1.0  0.64818  0.9881100000000002  0.99769  1.0000
  O   O18       1.0  0.03822000000000001  0.11174000000000003  0.9523700000000002  1.0000
  C   C51       1.0  0.86943  0.1368  0.93487  1.0000
  O   O19       1.0  0.04088  0.09579000000000001  0.08794  1.0000
  C   C52       1.0  0.8702300000000001  0.12367  0.11285999999999999  1.0000
  V   V4        1.0  0.1488  0.011950000000000002  0.0023  1.0000
  O   O20       1.0  0.87182  0.9359200000000002  0.98753  1.0000
  N   N1        1.0  0.91587  0.9615500000000002  0.68422  1.0000
  H   H27       1.0  0.82751  0.93665  0.64324  1.0000
  C   C53       1.0  0.11153  0.92667  0.67307  1.0000
  H   H28       1.0  0.11238000000000001  0.84556  0.64973  1.0000
  H   H29       1.0  0.1891  0.9396500000000002  0.72206  1.0000
  H   H30       1.0  0.18674  0.9657400000000003  0.63829  1.0000
  C   C54       1.0  0.45681  0.98744  0.18926  1.0000
  O   O21       1.0  0.62799  0.003679999999999999  0.18686  1.0000
  O   O22       1.0  0.3215  0.04145  0.16292  1.0000
  H   H31       1.0  0.3818  0.07655  0.1298  1.0000
