data_image0
_chemical_formula_structural       C52Cu2H10N14O14
_chemical_formula_sum              "C52 Cu2 H10 N14 O14"
_cell_length_a       27.85349
_cell_length_b       8.70174
_cell_length_c       7.52364
_cell_angle_alpha    103.19234000000002
_cell_angle_beta     94.90397
_cell_angle_gamma    93.86440999999999

_space_group_name_H-M_alt    "P 1"
_space_group_IT_number       1

loop_
  _space_group_symop_operation_xyz
  'x, y, z'

loop_
  _atom_site_type_symbol
  _atom_site_label
  _atom_site_symmetry_multiplicity
  _atom_site_fract_x
  _atom_site_fract_y
  _atom_site_fract_z
  _atom_site_occupancy
  C   C1        1.0  0.49822  0.19978  0.4531  1.0000
  C   C2        1.0  0.86716  0.37541  0.38768000000000014  1.0000
  C   C3        1.0  0.35557  0.49981  0.50327  1.0000
  C   C4        1.0  0.6444299999999997  0.50018  0.49673  1.0000
  C   C5        1.0  0.9690699999999995  0.36808  0.39366  1.0000
  C   C6        1.0  0.030929999999999996  0.63186  0.60639  1.0000
  C   C7        1.0  0.9798099999999998  0.63369  0.6037300000000002  1.0000
  C   C8        1.0  0.020199999999999992  0.36626  0.39631  1.0000
  C   C9        1.0  0.9492199999999997  0.50072  0.4998200000000001  1.0000
  C   C10       1.0  0.05078  0.49923000000000006  0.50022  1.0000
  C   C11       1.0  0.93685  0.2409  0.28823  1.0000
  C   C12       1.0  0.5017799999999999  0.80022  0.5469000000000003  1.0000
  C   C13       1.0  0.06315  0.75905  0.7118100000000003  1.0000
  C   C14       1.0  0.8870299999999998  0.24078  0.28974  1.0000
  C   C15       1.0  0.11297000000000001  0.75917  0.7103  1.0000
  C   C16       1.0  0.4079999999999999  0.49829000000000007  0.50088  1.0000
  C   C17       1.0  0.592  0.50171  0.49912  1.0000
  C   C18       1.0  0.04203999999999999  0.23264  0.30429  1.0000
  C   C19       1.0  0.9579599999999998  0.76731  0.6957600000000003  1.0000
  C   C20       1.0  0.4971599999999999  0.03141000000000003  0.42737000000000014  1.0000
  C   C21       1.0  0.50284  0.9685899999999998  0.5726300000000001  1.0000
  C   C22       1.0  0.17238999999999996  0.38417  0.37618  1.0000
  C   C23       1.0  0.10183  0.49856  0.5001  1.0000
  C   C24       1.0  0.82761  0.61579  0.62385  1.0000
  C   C25       1.0  0.18282999999999994  0.60837  0.6282000000000002  1.0000
  C   C26       1.0  0.8171699999999997  0.39158  0.37183  1.0000
  C   C27       1.0  0.28373999999999994  0.64466  0.51231  1.0000
  C   C28       1.0  0.71626  0.35531  0.4877  1.0000
  C   C29       1.0  0.33444  0.64452  0.5314000000000002  1.0000
  C   C30       1.0  0.66556  0.35546  0.46861000000000014  1.0000
  C   C31       1.0  0.32618  0.35670000000000013  0.4701800000000001  1.0000
  C   C32       1.0  0.6738199999999998  0.64329  0.52982  1.0000
  C   C33       1.0  0.2765699999999999  0.35932000000000003  0.48115  1.0000
  C   C34       1.0  0.8981699999999999  0.50139  0.49994  1.0000
  C   C35       1.0  0.7234299999999999  0.64066  0.51886  1.0000
  C   C36       1.0  0.25435  0.50167  0.49763  1.0000
  C   C37       1.0  0.74565  0.49829999999999997  0.50239  1.0000
  C   C38       1.0  0.3459099999999999  0.20601  0.41487  1.0000
  C   C39       1.0  0.6541  0.79398  0.58513  1.0000
  C   C40       1.0  0.45096999999999987  0.34939  0.9282  1.0000
  C   C41       1.0  0.54903  0.65061  0.07179000000000002  1.0000
  C   C42       1.0  0.11111999999999997  0.08386  0.22984  1.0000
  C   C43       1.0  0.8888799999999999  0.91609  0.77019  1.0000
  C   C44       1.0  0.63504  0.20772  0.41415  1.0000
  C   C45       1.0  0.12217  0.3704  0.39057  1.0000
  C   C46       1.0  0.36495  0.79227  0.58586  1.0000
  C   C47       1.0  0.73764  0.21065  0.50188  1.0000
  C   C48       1.0  0.26235  0.78932  0.49813000000000013  1.0000
  C   C49       1.0  0.87783  0.6295500000000002  0.60946  1.0000
  C   C50       1.0  0.09195999999999997  0.23338000000000003  0.3017  1.0000
  C   C51       1.0  0.9080399999999997  0.76657  0.6983300000000002  1.0000
  C   C52       1.0  0.13284  0.6245500000000002  0.6123600000000002  1.0000
  Cu  Cu1       1.0  0.50538  0.51738  0.68438  1.0000
  Cu  Cu2       1.0  0.4946199999999999  0.48262  0.3156200000000001  1.0000
  H   H1        1.0  0.25488  0.24879000000000004  0.4700800000000001  1.0000
  H   H2        1.0  0.16764  0.91188  0.7238000000000001  1.0000
  H   H3        1.0  0.74513  0.7511800000000001  0.5299400000000001  1.0000
  H   H4        1.0  0.94881  0.1365  0.20337  1.0000
  H   H5        1.0  0.05119  0.86345  0.79668  1.0000
  H   H6        1.0  0.021439999999999994  0.12234  0.23772  1.0000
  H   H7        1.0  0.9785599999999998  0.87761  0.76233  1.0000
  H   H8        1.0  0.49192  0.9588900000000001  0.28771  1.0000
  H   H9        1.0  0.50808  0.04111  0.71229  1.0000
  H   H10       1.0  0.8323499999999998  0.08808  0.27625  1.0000
  N   N1        1.0  0.20223999999999995  0.49913  0.49919  1.0000
  N   N2        1.0  0.8736299999999998  0.036420000000000015  0.82465  1.0000
  N   N3        1.0  0.6103799999999998  0.09051  0.36743  1.0000
  N   N4        1.0  0.3896200000000001  0.9094900000000001  0.6325700000000002  1.0000
  N   N5        1.0  0.7546099999999999  0.09512000000000001  0.5137400000000001  1.0000
  N   N6        1.0  0.24538  0.90485  0.4862800000000001  1.0000
  N   N7        1.0  0.79776  0.50083  0.50084  1.0000
  N   N8        1.0  0.4865099999999999  0.45643  0.038510000000000016  1.0000
  N   N9        1.0  0.51349  0.54357  0.9614900000000002  1.0000
  N   N10       1.0  0.3617  0.08568  0.36694000000000004  1.0000
  N   N11       1.0  0.63831  0.91432  0.6330400000000003  1.0000
  N   N12       1.0  0.42106  0.25943  0.8381300000000003  1.0000
  N   N13       1.0  0.5789399999999998  0.74057  0.16187000000000007  1.0000
  N   N14       1.0  0.12637  0.96354  0.17538000000000006  1.0000
  O   O1        1.0  0.5035  0.28612000000000004  0.6197800000000001  1.0000
  O   O2        1.0  0.8091199999999997  0.7138  0.76206  1.0000
  O   O3        1.0  0.78848  0.30286  0.22577000000000005  1.0000
  O   O4        1.0  0.21152  0.6971  0.77426  1.0000
  O   O5        1.0  0.85935  0.10253  0.20233  1.0000
  O   O6        1.0  0.14064999999999994  0.89742  0.79771  1.0000
  O   O7        1.0  0.4965  0.71388  0.3802200000000001  1.0000
  O   O8        1.0  0.4944099999999999  0.25678  0.30836  1.0000
  O   O9        1.0  0.50559  0.74322  0.6916400000000003  1.0000
  O   O10       1.0  0.43481  0.5147  0.65569  1.0000
  O   O11       1.0  0.56519  0.48530000000000006  0.3443100000000001  1.0000
  O   O12       1.0  0.42571999999999993  0.48535  0.3442800000000001  1.0000
  O   O13       1.0  0.57428  0.51465  0.6557200000000001  1.0000
  O   O14       1.0  0.19087999999999994  0.28617  0.23797000000000004  1.0000
