data_image0
_chemical_formula_structural       C112Cr12H48O52I4H4I4H8
_chemical_formula_sum              "C112 Cr12 H60 O52 I8"
_cell_length_a       19.11872
_cell_length_b       10.97515
_cell_length_c       18.78502
_cell_angle_alpha    89.97877
_cell_angle_beta     90.25230999999998
_cell_angle_gamma    90.21659999999999

_space_group_name_H-M_alt    "P 1"
_space_group_IT_number       1

loop_
  _space_group_symop_operation_xyz
  'x, y, z'

loop_
  _atom_site_type_symbol
  _atom_site_label
  _atom_site_symmetry_multiplicity
  _atom_site_fract_x
  _atom_site_fract_y
  _atom_site_fract_z
  _atom_site_occupancy
  C   C1        1.0  0.7256  0.95827  0.8545199999999998  1.0000
  C   C2        1.0  0.27271  0.9563399999999999  0.14667  1.0000
  C   C3        1.0  0.22560000000000002  0.45827  0.8545199999999998  1.0000
  C   C4        1.0  0.7727200000000002  0.4563400000000001  0.14667  1.0000
  C   C5        1.0  0.6989100000000001  0.47385000000000005  0.03832  1.0000
  C   C6        1.0  0.30296  0.40405  0.9567799999999999  1.0000
  C   C7        1.0  0.19892  0.97388  0.03832  1.0000
  C   C8        1.0  0.80295  0.90404  0.9567799999999999  1.0000
  C   C9        1.0  0.69349  0.45549  0.96566  1.0000
  C   C10       1.0  0.3118600000000001  0.3955  0.02962  1.0000
  C   C11       1.0  0.1935  0.95551  0.96566  1.0000
  C   C12       1.0  0.81186  0.8955  0.02962  1.0000
  C   C13       1.0  0.77758  0.29357  0.9748699999999999  1.0000
  C   C14       1.0  0.18855000000000002  0.42756  0.04777  1.0000
  C   C15       1.0  0.27755  0.7935299999999998  0.97488  1.0000
  C   C16       1.0  0.68855  0.92756  0.04777  1.0000
  C   C17       1.0  0.78191  0.30981  0.04809999999999998  1.0000
  C   C18       1.0  0.17943  0.43560000000000004  0.97458  1.0000
  C   C19       1.0  0.28188  0.8097799999999999  0.04811  1.0000
  C   C20       1.0  0.67943  0.93559  0.97458  1.0000
  C   C21       1.0  0.68926  0.60833  0.03007  1.0000
  C   C22       1.0  0.37184  0.4646  0.94575  1.0000
  C   C23       1.0  0.1893  0.10836  0.03006  1.0000
  C   C24       1.0  0.87184  0.9645900000000001  0.94574  1.0000
  C   C25       1.0  0.68259  0.58743  0.95059  1.0000
  C   C26       1.0  0.381  0.45966  0.02611  1.0000
  C   C27       1.0  0.18264  0.08746  0.95058  1.0000
  C   C28       1.0  0.88099  0.95965  0.02611  1.0000
  C   C29       1.0  0.7383  0.37424999999999997  0.9321999999999999  1.0000
  C   C30       1.0  0.25548  0.41179  0.07626  1.0000
  C   C31       1.0  0.23830000000000004  0.8742299999999998  0.9321999999999999  1.0000
  C   C32       1.0  0.7554800000000003  0.91178  0.07626  1.0000
  C   C33       1.0  0.5096900000000001  0.16271  0.42004  1.0000
  C   C34       1.0  0.5149  0.17196  0.56845  1.0000
  C   C35       1.0  0.011750000000000002  0.66636  0.41917  1.0000
  C   C36       1.0  0.01712  0.67155  0.56759  1.0000
  C   C37       1.0  0.54008  0.26279  0.45383  1.0000
  C   C38       1.0  0.54086  0.26705  0.52657  1.0000
  C   C39       1.0  0.03518  0.7710400000000001  0.45446999999999993  1.0000
  C   C40       1.0  0.03712  0.7724499999999999  0.52727  1.0000
  C   C41       1.0  0.49686  0.06275  0.53469  1.0000
  C   C42       1.0  0.49802  0.05666  0.46041999999999994  1.0000
  C   C43       1.0  0.00619  0.56093  0.53224  1.0000
  C   C44       1.0  0.00824  0.55707  0.45783999999999997  1.0000
  C   C45       1.0  0.5285400000000001  0.1771  0.84994  1.0000
  C   C46       1.0  0.47019  0.17642  0.14902  1.0000
  C   C47       1.0  0.02854  0.6771  0.84994  1.0000
  C   C48       1.0  0.9702000000000001  0.67642  0.14902  1.0000
  C   C49       1.0  0.53002  0.39782  0.44826999999999995  1.0000
  C   C50       1.0  0.52705  0.40026  0.5288  1.0000
  C   C51       1.0  0.013020000000000004  0.9021  0.4520799999999999  1.0000
  C   C52       1.0  0.013810000000000001  0.90114  0.53243  1.0000
  C   C53       1.0  0.75368  0.41855  0.42395  1.0000
  C   C54       1.0  0.25104  0.38964999999999994  0.583  1.0000
  C   C55       1.0  0.24856000000000003  0.9087700000000001  0.42054999999999987  1.0000
  C   C56       1.0  0.74805  0.90514  0.5795  1.0000
  C   C57       1.0  0.7951  0.33177  0.45823  1.0000
  C   C58       1.0  0.2019  0.31837  0.5459  1.0000
  C   C59       1.0  0.28504  0.81501  0.45408  1.0000
  C   C60       1.0  0.69927  0.8342  0.54173  1.0000
  C   C61       1.0  0.7902500000000002  0.31497  0.53091  1.0000
  C   C62       1.0  0.21107  0.28881  0.47509  1.0000
  C   C63       1.0  0.28042000000000006  0.79782  0.52659  1.0000
  C   C64       1.0  0.70427  0.82151  0.46903  1.0000
  C   C65       1.0  0.70628  0.47829  0.53844  1.0000
  C   C66       1.0  0.32627  0.37533  0.47918999999999995  1.0000
  C   C67       1.0  0.19904  0.96414  0.53492  1.0000
  C   C68       1.0  0.8103300000000002  0.93989  0.46942  1.0000
  C   C69       1.0  0.70839  0.49107  0.4647  1.0000
  C   C70       1.0  0.31624  0.40925  0.5509  1.0000
  C   C71       1.0  0.20079  0.97678  0.46093  1.0000
  C   C72       1.0  0.80648  0.95129  0.5433899999999999  1.0000
  C   C73       1.0  0.87339  0.33255  0.46262999999999993  1.0000
  C   C74       1.0  0.12625000000000003  0.34453  0.53424  1.0000
  C   C75       1.0  0.36161  0.78987  0.45457999999999993  1.0000
  C   C76       1.0  0.6217600000000001  0.85276  0.53588  1.0000
  C   C77       1.0  0.86741  0.30273  0.54031  1.0000
  C   C78       1.0  0.13586  0.31045  0.45717999999999986  1.0000
  C   C79       1.0  0.35568  0.76311  0.53312  1.0000
  C   C80       1.0  0.62755  0.83192  0.4568999999999999  1.0000
  C   C81       1.0  0.74774  0.39088  0.57181  1.0000
  C   C82       1.0  0.2707  0.32656  0.43854  1.0000
  C   C83       1.0  0.24269000000000002  0.8795799999999999  0.5686199999999999  1.0000
  C   C84       1.0  0.75659  0.88157  0.43129999999999996  1.0000
  C   C85       1.0  0.73563  0.35412  0.8559799999999999  1.0000
  C   C86       1.0  0.26219000000000003  0.36497  0.14776999999999998  1.0000
  C   C87       1.0  0.23563000000000003  0.85411  0.8559899999999999  1.0000
  C   C88       1.0  0.7622000000000001  0.86496  0.14776999999999998  1.0000
  C   C89       1.0  0.7278  0.95433  0.648  1.0000
  C   C90       1.0  0.27195  0.95523  0.35224  1.0000
  C   C91       1.0  0.22825  0.45245  0.64816  1.0000
  C   C92       1.0  0.77292  0.45745  0.35310999999999987  1.0000
  C   C93       1.0  0.53135  0.17672  0.64338  1.0000
  C   C94       1.0  0.47226000000000007  0.17581  0.35365  1.0000
  C   C95       1.0  0.03211  0.67663  0.6429099999999999  1.0000
  C   C96       1.0  0.9724700000000001  0.67627  0.35355  1.0000
  C   C97       1.0  0.73906  0.35973  0.64577  1.0000
  C   C98       1.0  0.27455  0.30991  0.36082  1.0000
  C   C99       1.0  0.23785  0.8559499999999999  0.64421  1.0000
  C   C100      1.0  0.76227  0.8561999999999999  0.35585  1.0000
  C   C101      1.0  0.49645  0.16834  0.9205299999999998  1.0000
  C   C102      1.0  0.50017  0.16285  0.07737  1.0000
  C   C103      1.0  0.99645  0.66834  0.9205299999999998  1.0000
  C   C104      1.0  0.00018000000000000004  0.66285  0.07737  1.0000
  C   C105      1.0  0.4911  0.05996  0.03716  1.0000
  C   C106      1.0  0.49139  0.06263  0.95719  1.0000
  C   C107      1.0  0.9911000000000001  0.55996  0.03716  1.0000
  C   C108      1.0  0.9913900000000001  0.56262  0.95719  1.0000
  C   C109      1.0  0.74762  0.40832000000000007  0.07937999999999998  1.0000
  C   C110      1.0  0.23723000000000002  0.4287099999999999  0.9284099999999998  1.0000
  C   C111      1.0  0.24761000000000005  0.90832  0.07937999999999998  1.0000
  C   C112      1.0  0.73723  0.9287  0.9284099999999998  1.0000
  Cr  Cr1       1.0  0.7692600000000002  0.16375  0.75073  1.0000
  Cr  Cr2       1.0  0.23074000000000006  0.16375  0.24926999999999996  1.0000
  Cr  Cr3       1.0  0.26926  0.66375  0.75073  1.0000
  Cr  Cr4       1.0  0.73074  0.66375  0.24926999999999996  1.0000
  Cr  Cr5       1.0  0.6126400000000001  0.00991  0.74878  1.0000
  Cr  Cr6       1.0  0.38736000000000004  0.00991  0.25122  1.0000
  Cr  Cr7       1.0  0.11264  0.50991  0.74878  1.0000
  Cr  Cr8       1.0  0.88736  0.50991  0.25122  1.0000
  Cr  Cr9       1.0  0.6141900000000002  0.3224  0.74771  1.0000
  Cr  Cr10      1.0  0.38581  0.3224  0.25229  1.0000
  Cr  Cr11      1.0  0.11419  0.8223999999999999  0.74771  1.0000
  Cr  Cr12      1.0  0.8858100000000001  0.8223999999999999  0.25229  1.0000
  H   H1        1.0  0.95998  0.9167  0.4307599999999999  1.0000
  H   H2        1.0  0.05437  0.96042  0.55611  1.0000
  H   H3        1.0  0.4811000000000001  0.42765  0.42298  1.0000
  H   H4        1.0  0.57007  0.45112  0.5541999999999999  1.0000
  H   H5        1.0  0.67454  0.53895  0.5697399999999999  1.0000
  H   H6        1.0  0.37524  0.39498  0.45427999999999996  1.0000
  H   H7        1.0  0.16686  0.02447  0.56602  1.0000
  H   H8        1.0  0.85317  0.9810700000000001  0.4417  1.0000
  H   H9        1.0  0.6787700000000002  0.56392  0.44043  1.0000
  H   H10       1.0  0.35702  0.45771  0.57924  1.0000
  H   H11       1.0  0.1705  0.04834000000000001  0.43654999999999994  1.0000
  H   H12       1.0  0.84555  0.00491  0.57112  1.0000
  H   H13       1.0  0.89267  0.42635  0.45418  1.0000
  H   H14       1.0  0.11697000000000002  0.44285  0.54177  1.0000
  H   H15       1.0  0.39162000000000013  0.87358  0.44454  1.0000
  H   H16       1.0  0.60896  0.9481  0.54909  1.0000
  H   H17       1.0  0.88277  0.20813999999999996  0.55389  1.0000
  H   H18       1.0  0.10758  0.22615999999999997  0.44141  1.0000
  H   H19       1.0  0.36227  0.66551  0.54664  1.0000
  H   H20       1.0  0.60394  0.7448399999999998  0.43837  1.0000
  H   H21       1.0  0.89007  0.3737599999999999  0.5757699999999998  1.0000
  H   H22       1.0  0.12817000000000003  0.38888999999999996  0.42053  1.0000
  H   H23       1.0  0.38638  0.82713  0.56695  1.0000
  H   H24       1.0  0.61366  0.91292  0.42434  1.0000
  H   H25       1.0  0.51759  0.24741999999999997  0.05380999999999999  1.0000
  H   H26       1.0  0.49036  0.25498  0.9468799999999998  1.0000
  H   H27       1.0  0.01759  0.7474199999999999  0.05380999999999999  1.0000
  H   H28       1.0  0.99036  0.75498  0.9468799999999998  1.0000
  H   H29       1.0  0.81733  0.25323  0.07866  1.0000
  H   H30       1.0  0.12737  0.45285  0.95435  1.0000
  H   H31       1.0  0.31729  0.7531799999999998  0.07868  1.0000
  H   H32       1.0  0.62736  0.95285  0.95435  1.0000
  H   H33       1.0  0.2372  0.16027  0.044629999999999996  1.0000
  H   H34       1.0  0.8680900000000001  0.058019999999999995  0.92395  1.0000
  H   H35       1.0  0.73715  0.66027  0.04464  1.0000
  H   H36       1.0  0.36810000000000004  0.55802  0.92395  1.0000
  H   H37       1.0  0.62923  0.6061  0.9296399999999999  1.0000
  H   H38       1.0  0.42486000000000007  0.40032  0.04307999999999999  1.0000
  H   H39       1.0  0.12928  0.10616  0.92963  1.0000
  H   H40       1.0  0.92486  0.9003099999999999  0.04307999999999999  1.0000
  H   H41       1.0  0.7260000000000001  0.62876  0.91946  1.0000
  H   H42       1.0  0.38000000000000006  0.55088  0.051819999999999984  1.0000
  H   H43       1.0  0.22605  0.12876  0.91945  1.0000
  H   H44       1.0  0.8800000000000001  0.05087  0.051819999999999984  1.0000
  H   H45       1.0  0.48351  0.98254  0.5653599999999999  1.0000
  H   H46       1.0  0.48494000000000004  0.9723  0.43446  1.0000
  H   H47       1.0  0.9972300000000001  0.47816999999999993  0.56196  1.0000
  H   H48       1.0  0.00010999999999999965  0.4713  0.4308199999999999  1.0000
  O   O1        1.0  0.78429  0.29036  0.8305399999999997  1.0000
  O   O2        1.0  0.21571000000000004  0.29036  0.16946  1.0000
  O   O3        1.0  0.28429  0.79036  0.8305399999999997  1.0000
  O   O4        1.0  0.7157100000000001  0.79036  0.16946  1.0000
  O   O5        1.0  0.55469  0.08044  0.67348  1.0000
  O   O6        1.0  0.44531  0.08044  0.32652  1.0000
  O   O7        1.0  0.05469000000000001  0.58044  0.67348  1.0000
  O   O8        1.0  0.94531  0.58044  0.32652  1.0000
  O   O9        1.0  0.54398  0.28211  0.6667699999999998  1.0000
  O   O10       1.0  0.45602000000000004  0.28211  0.33323  1.0000
  O   O11       1.0  0.04398  0.7821100000000001  0.6667699999999998  1.0000
  O   O12       1.0  0.95602  0.7821100000000001  0.33323  1.0000
  O   O13       1.0  0.6790700000000001  0.37403  0.67443  1.0000
  O   O14       1.0  0.32093  0.37403  0.32557  1.0000
  O   O15       1.0  0.17907  0.8740300000000001  0.67443  1.0000
  O   O16       1.0  0.82093  0.8740300000000001  0.32557  1.0000
  O   O17       1.0  0.66536  0.16535  0.74907  1.0000
  O   O18       1.0  0.33464  0.16535  0.25093  1.0000
  O   O19       1.0  0.16536  0.66535  0.74907  1.0000
  O   O20       1.0  0.83464  0.66535  0.25093  1.0000
  O   O21       1.0  0.7626100000000001  0.04107  0.8252299999999999  1.0000
  O   O22       1.0  0.23739000000000002  0.04107  0.17477  1.0000
  O   O23       1.0  0.26261  0.54107  0.8252299999999999  1.0000
  O   O24       1.0  0.73739  0.54107  0.17477  1.0000
  O   O25       1.0  0.66739  0.9241600000000001  0.82997  1.0000
  O   O26       1.0  0.33261  0.9241600000000001  0.17002999999999993  1.0000
  O   O27       1.0  0.16739  0.42416  0.82997  1.0000
  O   O28       1.0  0.8326100000000002  0.42416  0.17002999999999993  1.0000
  O   O29       1.0  0.5539800000000001  0.08142  0.82178  1.0000
  O   O30       1.0  0.44602  0.08142  0.17822  1.0000
  O   O31       1.0  0.05398000000000001  0.58142  0.82178  1.0000
  O   O32       1.0  0.9460200000000001  0.58142  0.17822  1.0000
  O   O33       1.0  0.54321  0.28317  0.82674  1.0000
  O   O34       1.0  0.45679  0.28317  0.17325999999999997  1.0000
  O   O35       1.0  0.04321  0.7831700000000001  0.82674  1.0000
  O   O36       1.0  0.95679  0.7831700000000001  0.17325999999999997  1.0000
  O   O37       1.0  0.67835  0.37500000000000006  0.82272  1.0000
  O   O38       1.0  0.3216500000000001  0.37500000000000006  0.17728  1.0000
  O   O39       1.0  0.17835  0.875  0.82272  1.0000
  O   O40       1.0  0.8216500000000001  0.875  0.17728  1.0000
  O   O41       1.0  0.7850600000000002  0.2893  0.6705799999999998  1.0000
  O   O42       1.0  0.21494  0.2893  0.32942  1.0000
  O   O43       1.0  0.28506  0.7893  0.6705799999999998  1.0000
  O   O44       1.0  0.71494  0.7893  0.32942  1.0000
  O   O45       1.0  0.76333  0.04009  0.67694  1.0000
  O   O46       1.0  0.23667  0.04009  0.32305999999999996  1.0000
  O   O47       1.0  0.26333000000000006  0.54009  0.67694  1.0000
  O   O48       1.0  0.73667  0.54009  0.32305999999999996  1.0000
  O   O49       1.0  0.6681600000000001  0.92311  0.6699999999999999  1.0000
  O   O50       1.0  0.33184  0.92311  0.33  1.0000
  O   O51       1.0  0.16816  0.42310999999999993  0.6699999999999999  1.0000
  O   O52       1.0  0.83184  0.42310999999999993  0.33  1.0000
  I   I1        1.0  0.48527  0.88154  0.08572  1.0000
  I   I2        1.0  0.47131  0.89562  0.89968  1.0000
  I   I3        1.0  0.98528  0.38154  0.08572999999999999  1.0000
  I   I4        1.0  0.9713100000000001  0.39562  0.89968  1.0000
  H   H49       1.0  0.57669  0.44373  0.42609999999999987  1.0000
  H   H50       1.0  0.47441  0.4215400000000001  0.54988  1.0000
  H   H51       1.0  0.05364000000000001  0.96224  0.42866  1.0000
  H   H52       1.0  0.9610800000000002  0.90963  0.55648  1.0000
  I   I5        1.0  0.92544  0.19903999999999997  0.3994299999999999  1.0000
  I   I6        1.0  0.05867000000000001  0.22513999999999998  0.5925499999999999  1.0000
  I   I7        1.0  0.38926  0.64189  0.38739  1.0000
  I   I8        1.0  0.5593800000000001  0.72043  0.5903899999999997  1.0000
  H   H53       1.0  0.80763  0.22130999999999998  0.9514599999999999  1.0000
  H   H54       1.0  0.14345000000000002  0.43206999999999995  0.08221  1.0000
  H   H55       1.0  0.3075800000000001  0.72125  0.9514699999999999  1.0000
  H   H56       1.0  0.6434500000000001  0.93206  0.08221  1.0000
  H   H57       1.0  0.6400800000000001  0.64089  0.05489999999999999  1.0000
  H   H58       1.0  0.40863  0.40492999999999996  0.91659  1.0000
  H   H59       1.0  0.14013000000000003  0.14096  0.05489  1.0000
  H   H60       1.0  0.90863  0.90493  0.91659  1.0000
