data_image0
_chemical_formula_structural       C72Cr6H24O26F12
_chemical_formula_sum              "C72 Cr6 H24 O26 F12"
_cell_length_a       10.99573
_cell_length_b       11.1181
_cell_length_c       18.74952
_cell_angle_alpha    89.81162
_cell_angle_beta     90.20682
_cell_angle_gamma    119.49113000000001

_symmetry_space_group_name_H-M    'P 1'
_symmetry_Int_Tables_number       1

loop_
  _symmetry_equiv_pos_as_xyz
  'x,y,z'

loop_
  _atom_site_type_symbol
  _atom_site_label
  _atom_site_symmetry_multiplicity
  _atom_site_fract_x
  _atom_site_fract_y
  _atom_site_fract_z
  _atom_site_occupancy
  C   C1        1.0  0.52061  0.45931  0.14757  1.0000
  C   C2        1.0  0.53996  0.061119999999999994  0.14749  1.0000
  C   C3        1.0  0.93814  0.47845  0.1474  1.0000
  C   C4        1.0  0.45327000000000006  0.52124  0.8543300000000001  1.0000
  C   C5        1.0  0.06820000000000002  0.54739  0.8543200000000001  1.0000
  C   C6        1.0  0.47899  0.93222  0.8544200000000001  1.0000
  C   C7        1.0  0.4055  0.00517  0.46126000000000006  1.0000
  C   C8        1.0  0.09648999999999999  0.4541299999999999  0.44537000000000004  1.0000
  C   C9        1.0  0.61475  0.58408  0.46904000000000007  1.0000
  C   C10       1.0  0.12551000000000004  0.47237000000000007  0.51943  1.0000
  C   C11       1.0  0.37428999999999996  0.9374199999999999  0.5267800000000001  1.0000
  C   C12       1.0  0.61694  0.58931  0.54348  1.0000
  C   C13       1.0  0.7134700000000002  0.9419499999999998  0.5584300000000001  1.0000
  C   C14       1.0  0.9829200000000002  0.7123  0.54911  1.0000
  C   C15       1.0  0.3451600000000001  0.23544  0.58775  1.0000
  C   C16       1.0  0.07948000000000008  0.76827  0.40954  1.0000
  C   C17       1.0  0.7900900000000002  0.15863  0.46562  1.0000
  C   C18       1.0  0.27308  0.25761  0.44804  1.0000
  C   C19       1.0  0.8527900000000003  0.03806  0.55109  1.0000
  C   C20       1.0  0.9575100000000002  0.8  0.50618  1.0000
  C   C21       1.0  0.22529  0.12875  0.5580800000000001  1.0000
  C   C22       1.0  0.007280000000000067  0.8295900000000002  0.4367400000000001  1.0000
  C   C23       1.0  0.89065  0.14566  0.50433  1.0000
  C   C24       1.0  0.18668  0.14425  0.48966  1.0000
  C   C25       1.0  0.52014  0.45174999999999993  0.35662  1.0000
  C   C26       1.0  0.57519  0.11986999999999999  0.36224  1.0000
  C   C27       1.0  0.95186  0.4883199999999999  0.34889  1.0000
  C   C28       1.0  0.46156  0.51531  0.64906  1.0000
  C   C29       1.0  0.11881000000000001  0.57572  0.6375600000000001  1.0000
  C   C30       1.0  0.45471000000000006  0.8754900000000001  0.6378600000000001  1.0000
  C   C31       1.0  0.49269000000000013  0.96991  0.9294800000000001  1.0000
  C   C32       1.0  0.029479999999999985  0.52326  0.92925  1.0000
  C   C33       1.0  0.47729  0.5072  0.9294900000000001  1.0000
  C   C34       1.0  0.001200000000000002  0.49119  0.07704  1.0000
  C   C35       1.0  0.48927000000000004  0.99777  0.07732  1.0000
  C   C36       1.0  0.50686  0.50991  0.07741  1.0000
  C   C37       1.0  0.42374000000000006  0.03676  0.95803  1.0000
  C   C38       1.0  0.9609699999999999  0.38901  0.9578000000000001  1.0000
  C   C39       1.0  0.61243  0.57558  0.95884  1.0000
  C   C40       1.0  0.96073  0.37289  0.03256  1.0000
  C   C41       1.0  0.40883  0.03737  0.03282  1.0000
  C   C42       1.0  0.62662  0.59059  0.03364  1.0000
  C   C43       1.0  0.54607  0.9218699999999999  0.04845  1.0000
  C   C44       1.0  0.07759999999999999  0.62242  0.04806  1.0000
  C   C45       1.0  0.3745800000000001  0.45294  0.04775  1.0000
  C   C46       1.0  0.09454999999999998  0.6383  0.97524  1.0000
  C   C47       1.0  0.54544  0.90565  0.9755400000000001  1.0000
  C   C48       1.0  0.35970000000000013  0.45400999999999997  0.9748200000000001  1.0000
  C   C49       1.0  0.35984000000000005  0.09294  0.91371  1.0000
  C   C50       1.0  0.90371  0.27104  0.91346  1.0000
  C   C51       1.0  0.7327600000000001  0.63901  0.9153200000000001  1.0000
  C   C52       1.0  0.9266000000000002  0.2407  0.05926000000000001  1.0000
  C   C53       1.0  0.30961  0.07157  0.05966  1.0000
  C   C54       1.0  0.7582600000000002  0.68998  0.06114  1.0000
  C   C55       1.0  0.26463  0.12769  0.9416800000000001  1.0000
  C   C56       1.0  0.8695200000000001  0.1425  0.94125  1.0000
  C   C57       1.0  0.8610300000000002  0.73412  0.94393  1.0000
  C   C58       1.0  0.88213  0.12787  0.01395  1.0000
  C   C59       1.0  0.23893000000000003  0.11578999999999999  0.014460000000000002  1.0000
  C   C60       1.0  0.87324  0.76013  0.01667  1.0000
  C   C61       1.0  0.47593  0.91972  0.5629  1.0000
  C   C62       1.0  0.08915000000000001  0.55745  0.55942  1.0000
  C   C63       1.0  0.51285  0.48257000000000005  0.58328  1.0000
  C   C64       1.0  0.05311999999999999  0.53695  0.41018  1.0000
  C   C65       1.0  0.54276  0.06888  0.43538  1.0000
  C   C66       1.0  0.5042700000000001  0.47309  0.43334  1.0000
  C   C67       1.0  0.60963  0.96971  0.5313700000000001  1.0000
  C   C68       1.0  0.05088000000000001  0.64386  0.5203800000000001  1.0000
  C   C69       1.0  0.42431000000000013  0.35847  0.54885  1.0000
  C   C70       1.0  0.07366999999999999  0.65563  0.44641000000000003  1.0000
  C   C71       1.0  0.64772  0.06631  0.47669  1.0000
  C   C72       1.0  0.401  0.36262  0.47528  1.0000
  Cr  Cr1       1.0  0.76855  0.54132  0.25066  1.0000
  Cr  Cr2       1.0  0.4586799999999999  0.22722999999999996  0.25066  1.0000
  Cr  Cr3       1.0  0.7727700000000001  0.23145  0.25066  1.0000
  Cr  Cr4       1.0  0.5413200000000001  0.76855  0.7493400000000002  1.0000
  Cr  Cr5       1.0  0.22723000000000002  0.45868000000000003  0.7493400000000002  1.0000
  Cr  Cr6       1.0  0.23145  0.77277  0.7493400000000002  1.0000
  H   H1        1.0  0.37812  0.10503  0.8568500000000001  1.0000
  H   H2        1.0  0.8911099999999998  0.27794  0.85663  1.0000
  H   H3        1.0  0.72786  0.62042  0.85854  1.0000
  H   H4        1.0  0.9456  0.2236  0.11379000000000002  1.0000
  H   H5        1.0  0.27516  0.05366  0.11435  1.0000
  H   H6        1.0  0.77296  0.72459  0.11574  1.0000
  H   H7        1.0  0.32371999999999995  0.01019  0.43161  1.0000
  H   H8        1.0  0.10227999999999997  0.37394  0.41596  1.0000
  H   H9        1.0  0.69822  0.66704  0.43937  1.0000
  H   H10       1.0  0.16675  0.41359  0.54615  1.0000
  H   H11       1.0  0.27186000000000005  0.89992  0.5494900000000001  1.0000
  H   H12       1.0  0.69819  0.67591  0.5709  1.0000
  H   H13       1.0  0.68924  0.85539  0.59223  1.0000
  H   H14       1.0  0.9361300000000001  0.69  0.60134  1.0000
  H   H15       1.0  0.37051  0.22635  0.64271  1.0000
  H   H16       1.0  0.11487  0.78959  0.35468  1.0000
  H   H17       1.0  0.8225500000000002  0.24475  0.4306900000000001  1.0000
  H   H18       1.0  0.23274  0.26491  0.3966400000000001  1.0000
  H   H19       1.0  0.9313300000000001  0.029439999999999997  0.58196  1.0000
  H   H20       1.0  0.89618  0.84211  0.52611  1.0000
  H   H21       1.0  0.15859  0.03835  0.5895700000000001  1.0000
  H   H22       1.0  0.9836000000000001  0.89374  0.40237  1.0000
  H   H23       1.0  0.9983300000000002  0.21509999999999999  0.49746  1.0000
  H   H24       1.0  0.08632  0.07269  0.46936  1.0000
  O   O1        1.0  0.9109600000000002  0.57241  0.17101000000000002  1.0000
  O   O2        1.0  0.42759  0.33855  0.17101000000000002  1.0000
  O   O3        1.0  0.6614500000000001  0.08904  0.17101000000000002  1.0000
  O   O4        1.0  0.5724100000000001  0.91096  0.82899  1.0000
  O   O5        1.0  0.33854999999999996  0.42758999999999997  0.82899  1.0000
  O   O6        1.0  0.08904  0.66145  0.82899  1.0000
  O   O7        1.0  0.6397499999999999  0.52853  0.17560000000000006  1.0000
  O   O8        1.0  0.47147000000000006  0.11122000000000001  0.17560000000000006  1.0000
  O   O9        1.0  0.8887800000000002  0.36025  0.17560000000000006  1.0000
  O   O10       1.0  0.52853  0.63975  0.8244  1.0000
  O   O11       1.0  0.11122000000000004  0.47147  0.8244  1.0000
  O   O12       1.0  0.3602500000000002  0.8887800000000001  0.8244  1.0000
  O   O13       1.0  0.90933  0.5724  0.3315400000000001  1.0000
  O   O14       1.0  0.42760000000000004  0.33693  0.3315400000000001  1.0000
  O   O15       1.0  0.6630700000000002  0.09067  0.3315400000000001  1.0000
  O   O16       1.0  0.5724  0.90933  0.66846  1.0000
  O   O17       1.0  0.33693  0.4275999999999999  0.66846  1.0000
  O   O18       1.0  0.09066999999999999  0.66307  0.66846  1.0000
  O   O19       1.0  0.63824  0.52852  0.32441  1.0000
  O   O20       1.0  0.47148  0.10972  0.32441  1.0000
  O   O21       1.0  0.8902800000000001  0.36176  0.32441  1.0000
  O   O22       1.0  0.5285200000000001  0.63824  0.67559  1.0000
  O   O23       1.0  0.10971999999999996  0.47147999999999995  0.67559  1.0000
  O   O24       1.0  0.3617600000000002  0.8902800000000001  0.67559  1.0000
  O   O25       1.0  0.66667  0.33333  0.25063  1.0000
  O   O26       1.0  0.33333000000000007  0.66667  0.7493700000000001  1.0000
  F   F1        1.0  0.6019399999999999  0.86294  0.09138  1.0000
  F   F2        1.0  0.13695  0.73556  0.09079  1.0000
  F   F3        1.0  0.25945  0.39694  0.08994  1.0000
  F   F4        1.0  0.17736000000000007  0.76759  0.9498000000000001  1.0000
  F   F5        1.0  0.5956699999999999  0.8249199999999999  0.95004  1.0000
  F   F6        1.0  0.22877  0.40423  0.9486900000000001  1.0000
  F   F7        1.0  0.19081000000000004  0.1644  0.8973300000000001  1.0000
  F   F8        1.0  0.83347  0.03426  0.8967700000000001  1.0000
  F   F9        1.0  0.97128  0.80738  0.9002000000000001  1.0000
  F   F10       1.0  0.85662  0.0049  0.0409  1.0000
  F   F11       1.0  0.14166000000000004  0.1429  0.04177000000000001  1.0000
  F   F12       1.0  0.99607  0.85688  0.04458  1.0000
