data_image0
_chemical_formula_structural       O2CO2CO2CO2CO2CO2CCr3OCHCHC2HCHC8H2C7H4CHCHC2HCHC2HCHC2HC3HCHC2HCHC2HCHC2HC2O2CO2CO2CO2CO2CO2CCr3ONO2CO2HCO2HCO2H
_chemical_formula_sum              "O34 C59 Cr6 H27 N1"
_cell_length_a       10.85373
_cell_length_b       10.990100000000002
_cell_length_c       18.86427
_cell_angle_alpha    90.64654
_cell_angle_beta     90.16982999999999
_cell_angle_gamma    119.55654

_symmetry_space_group_name_H-M    'P 1'
_symmetry_Int_Tables_number       1

loop_
  _symmetry_equiv_pos_as_xyz
  'x,y,z'

loop_
  _atom_site_type_symbol
  _atom_site_label
  _atom_site_symmetry_multiplicity
  _atom_site_fract_x
  _atom_site_fract_y
  _atom_site_fract_z
  _atom_site_occupancy
  O   O1        1.0  0.7665  0.25004  0.57979  1.0000
  O   O2        1.0  0.79857  0.51678  0.57478  1.0000
  C   C1        1.0  0.86345  0.64149  0.6024300000000002  1.0000
  O   O3        1.0  0.9840000000000001  0.7329500000000002  0.58109  1.0000
  O   O4        1.0  0.2186  0.70089  0.5747600000000003  1.0000
  C   C2        1.0  0.20366  0.5922  0.61018  1.0000
  O   O5        1.0  0.24939  0.51535  0.57994  1.0000
  O   O6        1.0  0.98279  0.2809  0.5737  1.0000
  C   C3        1.0  0.85814  0.22115000000000004  0.6006500000000002  1.0000
  O   O7        1.0  0.7666  0.25113000000000013  0.4192600000000001  1.0000
  O   O8        1.0  0.79866  0.51779  0.42598  1.0000
  C   C4        1.0  0.8624  0.6386800000000002  0.39826  1.0000
  O   O9        1.0  0.9841  0.7340400000000002  0.42057000000000005  1.0000
  O   O10       1.0  0.21868999999999997  0.7019  0.42596  1.0000
  C   C5        1.0  0.2742899999999999  0.63617  0.39745  1.0000
  O   O11       1.0  0.24949  0.51644  0.4194200000000001  1.0000
  O   O12       1.0  0.98288  0.2819100000000001  0.42489000000000005  1.0000
  C   C6        1.0  0.86183  0.22662000000000002  0.39646000000000003  1.0000
  Cr  Cr1       1.0  0.79166  0.39025  0.49993000000000004  1.0000
  Cr  Cr2       1.0  0.09852000000000001  0.7082900000000001  0.50054  1.0000
  Cr  Cr3       1.0  0.10977000000000008  0.4014300000000001  0.49948  1.0000
  O   O13       1.0  0.99998  0.49999000000000005  0.4999800000000001  1.0000
  C   C7        1.0  0.18784000000000003  0.68719  0.7306900000000001  1.0000
  H   H1        1.0  0.13326000000000005  0.7371700000000001  0.70807  1.0000
  C   C8        1.0  0.22667999999999996  0.70852  0.80318  1.0000
  H   H2        1.0  0.1986100000000001  0.77143  0.8367600000000002  1.0000
  C   C9        1.0  0.31085  0.65593  0.82996  1.0000
  C   C10       1.0  0.32422000000000006  0.5556100000000002  0.78916  1.0000
  H   H3        1.0  0.37005999999999994  0.4966900000000001  0.8104000000000002  1.0000
  C   C11       1.0  0.28569  0.53312  0.7191600000000001  1.0000
  H   H4        1.0  0.3079700000000001  0.46107  0.6898200000000001  1.0000
  C   C12       1.0  0.22765000000000002  0.60756  0.68727  1.0000
  C   C13       1.0  0.79096  0.0812  0.81234  1.0000
  C   C14       1.0  0.054200000000000005  0.17456000000000002  0.8169200000000002  1.0000
  C   C15       1.0  0.17572000000000002  0.18970000000000006  0.7831500000000002  1.0000
  C   C16       1.0  0.17092000000000002  0.16698000000000002  0.7100200000000001  1.0000
  C   C17       1.0  0.05129  0.14142  0.67108  1.0000
  C   C18       1.0  0.93151  0.13358  0.70479  1.0000
  C   C19       1.0  0.92483  0.12847000000000003  0.77915  1.0000
  H   H5        1.0  0.26122000000000006  0.17376000000000005  0.68246  1.0000
  H   H6        1.0  0.06573  0.20596  0.8718400000000001  1.0000
  C   C20       1.0  0.68902  0.09781000000000002  0.69969  1.0000
  C   C21       1.0  0.66988  0.05799000000000002  0.7709200000000002  1.0000
  C   C22       1.0  0.57735  0.11324  0.66771  1.0000
  C   C23       1.0  0.43953999999999993  0.01966000000000001  0.6848900000000002  1.0000
  C   C24       1.0  0.41852  0.99176  0.7556000000000002  1.0000
  C   C25       1.0  0.53119  0.012010000000000002  0.79876  1.0000
  C   C26       1.0  0.82337  0.14118  0.66689  1.0000
  H   H7        1.0  0.052420000000000015  0.12462000000000001  0.61457  1.0000
  H   H8        1.0  0.50322  0.99977  0.85274  1.0000
  H   H9        1.0  0.35302  0.016440000000000007  0.6546100000000002  1.0000
  H   H10       1.0  0.3179699999999999  0.96856  0.77802  1.0000
  C   C27       1.0  0.6871900000000001  0.59315  0.70086  1.0000
  H   H11       1.0  0.60145  0.51078  0.6708900000000002  1.0000
  C   C28       1.0  0.67163  0.60603  0.77381  1.0000
  H   H12       1.0  0.57847  0.5286  0.7998100000000002  1.0000
  C   C29       1.0  0.78112  0.7137500000000001  0.8134600000000002  1.0000
  C   C30       1.0  0.90209  0.81264  0.7783400000000003  1.0000
  H   H13       1.0  0.9876900000000001  0.8995200000000001  0.8064800000000002  1.0000
  C   C31       1.0  0.9199999999999999  0.79597  0.7073600000000001  1.0000
  H   H14       1.0  0.02000000000000001  0.8700800000000001  0.68425  1.0000
  C   C32       1.0  0.81825  0.67856  0.6692300000000001  1.0000
  C   C33       1.0  0.37471  0.59305  0.29217  1.0000
  H   H15       1.0  0.3824100000000001  0.51069  0.31918000000000013  1.0000
  C   C34       1.0  0.38809  0.59861  0.22000000000000003  1.0000
  H   H16       1.0  0.41276  0.5241  0.19498  1.0000
  C   C35       1.0  0.37108000000000013  0.6976400000000001  0.18107  1.0000
  C   C36       1.0  0.34746  0.79625  0.21633000000000005  1.0000
  H   H17       1.0  0.34234  0.87734  0.18645  1.0000
  C   C37       1.0  0.33378000000000013  0.7923400000000003  0.29017  1.0000
  C   C38       1.0  0.3390200000000001  0.6828500000000002  0.32792  1.0000
  C   C39       1.0  0.71331  0.11134  0.29308  1.0000
  H   H18       1.0  0.61978  0.09005  0.3226  1.0000
  C   C40       1.0  0.70345  0.09659000000000001  0.22063  1.0000
  H   H19       1.0  0.60024  0.058969999999999995  0.19638  1.0000
  C   C41       1.0  0.8241999999999999  0.12978  0.18016  1.0000
  C   C42       1.0  0.95402  0.17042  0.21368000000000004  1.0000
  H   H20       1.0  0.04670000000000002  0.19091  0.18332  1.0000
  C   C43       1.0  0.9647600000000001  0.18921000000000002  0.28693  1.0000
  H   H21       1.0  0.06795000000000001  0.23043000000000002  0.31193  1.0000
  C   C44       1.0  0.84488  0.16527000000000003  0.32629  1.0000
  C   C45       1.0  0.8952000000000001  0.7872900000000002  0.29715  1.0000
  H   H22       1.0  0.9689200000000002  0.8786400000000002  0.3277  1.0000
  C   C46       1.0  0.89423  0.79773  0.22452000000000003  1.0000
  H   H23       1.0  0.9635000000000001  0.8985100000000001  0.20141000000000003  1.0000
  C   C47       1.0  0.8046699999999999  0.68087  0.18254000000000004  1.0000
  C   C48       1.0  0.70779  0.55632  0.21469000000000005  1.0000
  H   H24       1.0  0.6305600000000001  0.46992000000000006  0.18234  1.0000
  C   C49       1.0  0.70731  0.54428  0.28843  1.0000
  C   C50       1.0  0.81179  0.65833  0.32943  1.0000
  O   O14       1.0  0.89511  0.8068600000000002  0.9204300000000001  1.0000
  O   O15       1.0  0.87226  0.046970000000000005  0.9250000000000002  1.0000
  C   C51       1.0  0.7699  0.04478  0.8877000000000002  1.0000
  O   O16       1.0  0.69143  0.08506  0.91855  1.0000
  O   O17       1.0  0.45149  0.82246  0.92525  1.0000
  C   C52       1.0  0.38755  0.69607  0.89848  1.0000
  O   O18       1.0  0.41333000000000003  0.6033600000000001  0.9204400000000001  1.0000
  O   O19       1.0  0.67611  0.62625  0.92675  1.0000
  C   C53       1.0  0.7726899999999999  0.7308  0.89036  1.0000
  O   O20       1.0  0.8953499999999999  0.80987  0.08095  1.0000
  O   O21       1.0  0.8724900000000001  0.04976000000000001  0.0738  1.0000
  C   C54       1.0  0.80352  0.09986000000000002  0.10481000000000003  1.0000
  O   O22       1.0  0.69168  0.08807  0.07907  1.0000
  O   O23       1.0  0.45172  0.82525  0.07405000000000002  1.0000
  C   C55       1.0  0.4033500000000001  0.7077300000000001  0.10589  1.0000
  O   O24       1.0  0.4135800000000003  0.6063700000000003  0.08096000000000002  1.0000
  O   O25       1.0  0.67634  0.62904  0.07555  1.0000
  C   C56       1.0  0.7949899999999999  0.70143  0.10722  1.0000
  Cr  Cr4       1.0  0.87479  0.9258900000000001  7e-05  1.0000
  Cr  Cr5       1.0  0.5741200000000002  0.9486700000000001  0.9993000000000001  1.0000
  Cr  Cr6       1.0  0.55142  0.62532  0.0009200000000000002  1.0000
  O   O26       1.0  0.66678  0.83329  9e-05  1.0000
  N   N1        1.0  0.59921  0.25236  0.6629300000000002  1.0000
  O   O27       1.0  0.69965  0.35201  0.70057  1.0000
  O   O28       1.0  0.5202  0.27923000000000003  0.62113  1.0000
  C   C57       1.0  0.3139  0.9035700000000001  0.32442  1.0000
  O   O29       1.0  0.3705200000000001  0.9547000000000002  0.38154000000000005  1.0000
  O   O30       1.0  0.2350600000000001  0.9543800000000001  0.28951  1.0000
  H   H25       1.0  0.22718999999999998  0.02876  0.3182  1.0000
  C   C58       1.0  0.59509  0.4130700000000001  0.3194400000000001  1.0000
  O   O31       1.0  0.54245  0.41530000000000006  0.37634  1.0000
  O   O32       1.0  0.54417  0.28733  0.2814900000000001  1.0000
  H   H26       1.0  0.46768  0.20564000000000004  0.30795  1.0000
  C   C59       1.0  0.30626  0.22744  0.82472  1.0000
  O   O33       1.0  0.4170400000000001  0.25825  0.79436  1.0000
  O   O34       1.0  0.30349000000000004  0.22918  0.89888  1.0000
  H   H27       1.0  0.39931  0.25745  0.92101  1.0000
