data_image0
_chemical_formula_structural       O3CO2CO2VOCOCVOCH3C13H5C2HC2H2C2HC2H2CH2C13H5O3CO2CO2VOCOCVOCO2HNHCH3CO2H
_chemical_formula_sum              "O24 C47 V4 H27 N1"
_cell_length_a       6.94551
_cell_length_b       13.649380000000003
_cell_length_c       20.404620000000005
_cell_angle_alpha    102.05245
_cell_angle_beta     90.04888000000001
_cell_angle_gamma    91.01446

_symmetry_space_group_name_H-M    'P 1'
_symmetry_Int_Tables_number       1

loop_
  _symmetry_equiv_pos_as_xyz
  'x,y,z'

loop_
  _atom_site_type_symbol
  _atom_site_label
  _atom_site_symmetry_multiplicity
  _atom_site_fract_x
  _atom_site_fract_y
  _atom_site_fract_z
  _atom_site_occupancy
  O   O1        1.0  0.50686  0.59939  0.44924  1.0000
  O   O2        1.0  0.18022  0.5946  0.58678  1.0000
  O   O3        1.0  0.004500000000000002  0.4006100000000001  0.55076  1.0000
  C   C1        1.0  0.3497099999999999  0.6156300000000002  0.6136  1.0000
  O   O4        1.0  0.17749  0.6112900000000002  0.45197000000000004  1.0000
  O   O5        1.0  0.001750000000000003  0.41742000000000007  0.41499  1.0000
  C   C2        1.0  0.34739999999999993  0.63807  0.43534  1.0000
  O   O6        1.0  0.50961  0.58258  0.58501  1.0000
  O   O7        1.0  0.3374199999999999  0.4363700000000001  0.48802000000000006  1.0000
  V   V1        1.0  0.06467999999999997  0.5118000000000001  0.5022200000000001  1.0000
  O   O8        1.0  0.6717099999999998  0.40540000000000004  0.41322000000000003  1.0000
  C   C3        1.0  0.83881  0.38761  0.38534  1.0000
  O   O9        1.0  0.67444  0.3887100000000001  0.54803  1.0000
  C   C4        1.0  0.84182  0.36223  0.56493  1.0000
  V   V2        1.0  0.5640099999999999  0.4882  0.49778  1.0000
  O   O10       1.0  0.84114  0.56363  0.51198  1.0000
  C   C5        1.0  0.76253  0.11641  0.61543  1.0000
  H   H1        1.0  0.7590299999999999  0.16575  0.52239  1.0000
  H   H2        1.0  0.71268  0.9962600000000004  0.7004800000000001  1.0000
  H   H3        1.0  0.71883  0.04064000000000003  0.59173  1.0000
  C   C6        1.0  0.8428199999999998  0.2852  0.605  1.0000
  C   C7        1.0  0.9222099999999999  0.3142  0.92788  1.0000
  C   C8        1.0  0.9439  0.3890400000000001  0.89148  1.0000
  C   C9        1.0  0.9179899999999998  0.3674  0.8221800000000001  1.0000
  C   C10       1.0  0.86667  0.26939  0.78736  1.0000
  C   C11       1.0  0.83738  0.19393000000000002  0.8255000000000001  1.0000
  C   C12       1.0  0.84463  0.24347  0.71607  1.0000
  C   C13       1.0  0.7890299999999998  0.14369000000000007  0.68509  1.0000
  C   C14       1.0  0.7571499999999999  0.07203000000000004  0.7237800000000001  1.0000
  C   C15       1.0  0.7810999999999998  0.09666000000000004  0.7927700000000001  1.0000
  C   C16       1.0  0.87368  0.31309  0.67424  1.0000
  C   C17       1.0  0.7868599999999998  0.1870900000000001  0.5757900000000001  1.0000
  C   C18       1.0  0.8687799999999999  0.21680000000000016  0.8957400000000001  1.0000
  H   H4        1.0  0.9135299999999998  0.3903000000000001  0.6938700000000001  1.0000
  H   H5        1.0  0.94922  0.33203  0.98142  1.0000
  H   H6        1.0  0.9397799999999998  0.42914  0.79753  1.0000
  H   H7        1.0  0.98454  0.4642900000000001  0.91704  1.0000
  H   H8        1.0  0.7537  0.038820000000000014  0.82058  1.0000
  C   C19       1.0  0.9945699999999997  0.2812900000000001  0.28746  1.0000
  C   C20       1.0  0.8399899999999998  0.33523  0.31363  1.0000
  H   H9        1.0  0.11891  0.27898  0.31938  1.0000
  C   C21       1.0  0.01054  0.22288000000000002  0.21723000000000003  1.0000
  C   C22       1.0  0.8603299999999998  0.17301000000000005  0.18313  1.0000
  H   H10       1.0  0.153  0.216  0.19504  1.0000
  H   H11       1.0  0.72073  0.17389  0.20705  1.0000
  C   C23       1.0  0.20044999999999993  0.7938100000000001  0.77935  1.0000
  C   C24       1.0  0.35464  0.8102800000000002  0.82135  1.0000
  H   H12       1.0  0.48065  0.7644900000000002  0.8090000000000003  1.0000
  C   C25       1.0  0.20420999999999995  0.71358  0.71653  1.0000
  C   C26       1.0  0.36243000000000003  0.6866200000000002  0.67931  1.0000
  H   H13       1.0  0.06808  0.67882  0.69767  1.0000
  H   H14       1.0  0.502  0.71978  0.69548  1.0000
  C   C27       1.0  0.40862999999999994  0.8883  0.38871  1.0000
  H   H15       1.0  0.39406999999999986  0.83719  0.48112  1.0000
  H   H16       1.0  0.42449000000000003  0.9651200000000002  0.41550000000000004  1.0000
  C   C28       1.0  0.3607  0.7154600000000001  0.3956300000000001  1.0000
  C   C29       1.0  0.3189699999999999  0.6864700000000002  0.07261  1.0000
  C   C30       1.0  0.30379  0.61126  0.10884  1.0000
  C   C31       1.0  0.32148  0.6339200000000003  0.1784  1.0000
  C   C32       1.0  0.35534  0.73379  0.21399  1.0000
  C   C33       1.0  0.3726199999999999  0.8102600000000002  0.17636  1.0000
  C   C34       1.0  0.37036  0.7601300000000002  0.28542  1.0000
  C   C35       1.0  0.4046899999999999  0.86234  0.31794  1.0000
  C   C36       1.0  0.4289399999999999  0.93646  0.27922  1.0000
  C   C37       1.0  0.4088399999999999  0.9098300000000002  0.20967000000000002  1.0000
  C   C38       1.0  0.35087  0.6879600000000002  0.3259  1.0000
  C   C39       1.0  0.38820999999999994  0.8154700000000003  0.42694  1.0000
  C   C40       1.0  0.35379  0.78558  0.10555  1.0000
  H   H17       1.0  0.32858999999999994  0.6093300000000003  0.30517  1.0000
  H   H18       1.0  0.30373  0.6673700000000002  0.01855  1.0000
  H   H19       1.0  0.30739  0.5711  0.20242000000000002  1.0000
  H   H20       1.0  0.27738  0.53455  0.08281  1.0000
  H   H21       1.0  0.42637  0.9682400000000002  0.18133000000000002  1.0000
  O   O11       1.0  0.20323  0.9173100000000002  0.9150200000000001  1.0000
  O   O12       1.0  0.5355  0.8886900000000002  0.04804  1.0000
  O   O13       1.0  0.71108  0.08261  0.085  1.0000
  C   C41       1.0  0.36581  0.86226  0.06496  1.0000
  O   O14       1.0  0.5326299999999999  0.9053700000000005  0.9132300000000001  1.0000
  O   O15       1.0  0.7081899999999998  0.09941000000000005  0.94923  1.0000
  C   C42       1.0  0.3630299999999999  0.8838800000000001  0.88642  1.0000
  O   O16       1.0  0.20611999999999997  0.9005100000000003  0.05079000000000001  1.0000
  O   O17       1.0  0.37536  0.06357000000000002  0.01199  1.0000
  V   V3        1.0  0.6481699999999998  0.9882000000000002  0.9977800000000001  1.0000
  O   O18       1.0  0.038239999999999996  0.11139000000000006  0.95194  1.0000
  C   C43       1.0  0.87073  0.13825000000000007  0.93525  1.0000
  O   O19       1.0  0.04111999999999998  0.09471  0.08675  1.0000
  C   C44       1.0  0.87315  0.11332000000000003  0.11413  1.0000
  V   V4        1.0  0.14881  0.011930000000000001  0.0021800000000000005  1.0000
  O   O20       1.0  0.87175  0.9364300000000001  0.9880100000000003  1.0000
  C   C45       1.0  0.6781199999999997  0.3557500000000001  0.2706700000000001  1.0000
  O   O21       1.0  0.51206  0.35465000000000013  0.29042000000000007  1.0000
  O   O22       1.0  0.7165499999999999  0.3791900000000001  0.20837  1.0000
  H   H22       1.0  0.5952  0.3923900000000001  0.18418  1.0000
  N   N1        1.0  0.03241000000000001  0.8534800000000003  0.7953100000000002  1.0000
  H   H23       1.0  0.05878  0.9296400000000002  0.80281  1.0000
  C   C46       1.0  0.8542199999999998  0.82063  0.76014  1.0000
  H   H24       1.0  0.7364099999999998  0.87015  0.78227  1.0000
  H   H25       1.0  0.81539  0.74346  0.76557  1.0000
  H   H26       1.0  0.8671399999999999  0.8239700000000002  0.70638  1.0000
  C   C47       1.0  0.48086999999999996  0.04259  0.30895000000000006  1.0000
  O   O23       1.0  0.4005599999999999  0.11017000000000002  0.28923  1.0000
  O   O24       1.0  0.6277  0.06537  0.35696  1.0000
  H   H27       1.0  0.65177  0.14018  0.37221  1.0000
