data_image0
_chemical_formula_structural       C124Cr12F12H76N16O52
_chemical_formula_sum              "C124 Cr12 F12 H76 N16 O52"
_cell_length_a       19.4248
_cell_length_b       10.95333
_cell_length_c       18.77936
_cell_angle_alpha    89.76981
_cell_angle_beta     90.73897
_cell_angle_gamma    90.06763

_space_group_name_H-M_alt    "P 1"
_space_group_IT_number       1

loop_
  _space_group_symop_operation_xyz
  'x, y, z'

loop_
  _atom_site_type_symbol
  _atom_site_label
  _atom_site_symmetry_multiplicity
  _atom_site_fract_x
  _atom_site_fract_y
  _atom_site_fract_z
  _atom_site_occupancy
  C   C1        1.0  0.72785  0.37357999999999997  0.14451  1.0000
  C   C2        1.0  0.00055  0.01028  0.03816  1.0000
  C   C3        1.0  0.74189  0.4098899999999999  0.58071  1.0000
  C   C4        1.0  0.71491  0.34198  0.35999  1.0000
  C   C5        1.0  0.28936  0.32905  0.64087  1.0000
  C   C6        1.0  0.21490999999999996  0.84198  0.35999  1.0000
  C   C7        1.0  0.78936  0.8290499999999997  0.64087  1.0000
  C   C8        1.0  0.53397  0.15649  0.35399  1.0000
  C   C9        1.0  0.46654  0.15778  0.64616  1.0000
  C   C10       1.0  0.03397  0.65649  0.35399  1.0000
  C   C11       1.0  0.9665400000000001  0.65778  0.64616  1.0000
  C   C12       1.0  0.74441  0.9642999999999999  0.35114000000000006  1.0000
  C   C13       1.0  0.49174  0.5091999999999999  0.96539  1.0000
  C   C14       1.0  0.25743  0.9695299999999999  0.64734  1.0000
  C   C15       1.0  0.24441  0.4643  0.35114000000000006  1.0000
  C   C16       1.0  0.75743  0.46953  0.64734  1.0000
  C   C17       1.0  0.48312999999999995  0.16876  0.93085  1.0000
  C   C18       1.0  0.49625  0.17327  0.07903  1.0000
  C   C19       1.0  0.9831199999999999  0.66876  0.93085  1.0000
  C   C20       1.0  0.9962500000000001  0.67327  0.07903  1.0000
  C   C21       1.0  0.49143  0.28443  0.96564  1.0000
  C   C22       1.0  0.49787  0.28628999999999993  0.04096  1.0000
  C   C23       1.0  0.99143  0.7844299999999998  0.96564  1.0000
  C   C24       1.0  0.50054  0.51028  0.03816  1.0000
  C   C25       1.0  0.99787  0.7863  0.04096  1.0000
  C   C26       1.0  0.47593  0.06731  0.04467  1.0000
  C   C27       1.0  0.47279  0.06367  0.97196  1.0000
  C   C28       1.0  0.97592  0.56731  0.04468  1.0000
  C   C29       1.0  0.97278  0.56368  0.97197  1.0000
  C   C30       1.0  0.7611499999999999  0.89592  0.93084  1.0000
  C   C31       1.0  0.24197  0.90795  0.07126  1.0000
  C   C32       1.0  0.26116  0.39591  0.93085  1.0000
  C   C33       1.0  0.74197  0.40794  0.07125  1.0000
  C   C34       1.0  0.6954  0.9080599999999999  0.9587600000000001  1.0000
  C   C35       1.0  0.30256  0.8740599999999997  0.0372  1.0000
  C   C36       1.0  0.19539999999999996  0.4080599999999999  0.9587600000000001  1.0000
  C   C37       1.0  0.27262  0.37179  0.85596  1.0000
  C   C38       1.0  0.80255  0.37405  0.0372  1.0000
  C   C39       1.0  0.68735  0.9177999999999998  0.03266  1.0000
  C   C40       1.0  0.30808  0.88229  0.9631000000000001  1.0000
  C   C41       1.0  0.18736  0.41780999999999996  0.03266  1.0000
  C   C42       1.0  0.80807  0.38228  0.9631000000000001  1.0000
  C   C43       1.0  0.80856  0.8799699999999999  0.05139  1.0000
  C   C44       1.0  0.18768  0.9355499999999999  0.95574  1.0000
  C   C45       1.0  0.30856  0.37995999999999996  0.05139  1.0000
  C   C46       1.0  0.6876799999999998  0.43555  0.95574  1.0000
  C   C47       1.0  0.8165499999999999  0.8740599999999997  0.978  1.0000
  C   C48       1.0  0.22785  0.87358  0.14451  1.0000
  C   C49       1.0  0.18523  0.9419  0.02897  1.0000
  C   C50       1.0  0.31655  0.37405  0.978  1.0000
  C   C51       1.0  0.68523  0.4419  0.02897  1.0000
  C   C52       1.0  0.63959  0.81537  0.95095  1.0000
  C   C53       1.0  0.33669  0.75233  0.04118  1.0000
  C   C54       1.0  0.13959  0.3153599999999999  0.95096  1.0000
  C   C55       1.0  0.8366799999999999  0.25231  0.04118  1.0000
  C   C56       1.0  0.63217  0.82165  0.030630000000000004  1.0000
  C   C57       1.0  0.34423  0.76133  0.9613400000000001  1.0000
  C   C58       1.0  0.13217  0.32167  0.030640000000000004  1.0000
  C   C59       1.0  0.77262  0.8717899999999998  0.85596  1.0000
  C   C60       1.0  0.8442199999999999  0.2613  0.96133  1.0000
  C   C61       1.0  0.74522  0.91429  0.07821  1.0000
  C   C62       1.0  0.25013  0.91427  0.92182  1.0000
  C   C63       1.0  0.24522999999999998  0.41429  0.07821  1.0000
  C   C64       1.0  0.7501299999999999  0.41426999999999997  0.92182  1.0000
  C   C65       1.0  0.53034  0.1571  0.14804  1.0000
  C   C66       1.0  0.4651900000000001  0.15610999999999997  0.85528  1.0000
  C   C67       1.0  0.030339999999999995  0.6570999999999999  0.14804  1.0000
  C   C68       1.0  0.9651899999999999  0.65611  0.85528  1.0000
  C   C69       1.0  0.49574999999999997  0.17112  0.57581  1.0000
  C   C70       1.0  0.48948  0.3989099999999999  0.9291800000000001  1.0000
  C   C71       1.0  0.51653  0.16233  0.42822999999999994  1.0000
  C   C72       1.0  0.9957499999999999  0.6711199999999999  0.57581  1.0000
  C   C73       1.0  0.01654  0.6623299999999999  0.42822999999999994  1.0000
  C   C74       1.0  0.53564  0.07925999999999998  0.54629  1.0000
  C   C75       1.0  0.54746  0.07753  0.47422000000000003  1.0000
  C   C76       1.0  0.03564  0.57925  0.54629  1.0000
  C   C77       1.0  0.04745  0.57752  0.47422000000000003  1.0000
  C   C78       1.0  0.48257  0.26217  0.45727  1.0000
  C   C79       1.0  0.47349  0.26759  0.5309  1.0000
  C   C80       1.0  0.98258  0.7621799999999997  0.45727  1.0000
  C   C81       1.0  0.50241  0.40137  0.07584  1.0000
  C   C82       1.0  0.9735100000000001  0.7675999999999998  0.5309  1.0000
  C   C83       1.0  0.53353  0.94218  0.55109  1.0000
  C   C84       1.0  0.5465  0.9413  0.47142  1.0000
  C   C85       1.0  0.03352999999999999  0.44217  0.55109  1.0000
  C   C86       1.0  0.0465  0.4413  0.47142  1.0000
  C   C87       1.0  0.78311  0.84344  0.5631  1.0000
  C   C88       1.0  0.22593  0.8753599999999998  0.43379000000000006  1.0000
  C   C89       1.0  0.28311  0.34343999999999997  0.5631  1.0000
  C   C90       1.0  0.72593  0.37535  0.4338000000000001  1.0000
  C   C91       1.0  0.81473  0.9425399999999999  0.53197  1.0000
  C   C92       1.0  0.98948  0.89891  0.9291800000000001  1.0000
  C   C93       1.0  0.16832  0.8972099999999997  0.47644000000000003  1.0000
  C   C94       1.0  0.31471  0.44257  0.53197  1.0000
  C   C95       1.0  0.66832  0.39721  0.47644000000000003  1.0000
  C   C96       1.0  0.81427  0.96259  0.46055000000000007  1.0000
  C   C97       1.0  0.17724  0.92069  0.5481  1.0000
  C   C98       1.0  0.31425  0.4626199999999999  0.4605600000000001  1.0000
  C   C99       1.0  0.67724  0.42068999999999995  0.5481  1.0000
  C   C100      1.0  0.7471  0.78392  0.44163  1.0000
  C   C101      1.0  0.29621999999999993  0.86715  0.54031  1.0000
  C   C102      1.0  0.24711  0.28392  0.44163  1.0000
  C   C103      1.0  0.00242  0.9013699999999999  0.07584  1.0000
  C   C104      1.0  0.79622  0.36713999999999997  0.54031  1.0000
  C   C105      1.0  0.75764  0.7539499999999999  0.51521  1.0000
  C   C106      1.0  0.29074  0.86497  0.46635999999999994  1.0000
  C   C107      1.0  0.25766  0.25395  0.51521  1.0000
  C   C108      1.0  0.79074  0.3649499999999999  0.46635999999999994  1.0000
  C   C109      1.0  0.82489  0.07164999999999999  0.55255  1.0000
  C   C110      1.0  0.11411  0.99467  0.46944  1.0000
  C   C111      1.0  0.32486  0.57168  0.55256  1.0000
  C   C112      1.0  0.6141  0.4946399999999999  0.46944  1.0000
  C   C113      1.0  0.74012  0.96866  0.14811  1.0000
  C   C114      1.0  0.99175  0.009199999999999996  0.96539  1.0000
  C   C115      1.0  0.25922  0.9680799999999999  0.85178  1.0000
  C   C116      1.0  0.24013  0.46866  0.14811  1.0000
  C   C117      1.0  0.75921  0.46807  0.85178  1.0000
  C   C118      1.0  0.8255899999999999  0.0953  0.47288  1.0000
  C   C119      1.0  0.12522  0.02181  0.54814  1.0000
  C   C120      1.0  0.32556  0.59532  0.47289  1.0000
  C   C121      1.0  0.62521  0.52178  0.54814  1.0000
  C   C122      1.0  0.76783  0.9001899999999999  0.41673000000000004  1.0000
  C   C123      1.0  0.24189  0.9098899999999998  0.58071  1.0000
  C   C124      1.0  0.26782  0.4001999999999999  0.41673000000000004  1.0000
  Cr  Cr1       1.0  0.77201  0.16967  0.25009  1.0000
  Cr  Cr2       1.0  0.38329  0.01076  0.74916  1.0000
  Cr  Cr3       1.0  0.11671  0.51076  0.25084  1.0000
  Cr  Cr4       1.0  0.88329  0.51076  0.74916  1.0000
  Cr  Cr5       1.0  0.22798999999999997  0.16967  0.74991  1.0000
  Cr  Cr6       1.0  0.27201  0.66967  0.25009  1.0000
  Cr  Cr7       1.0  0.72799  0.66967  0.74991  1.0000
  Cr  Cr8       1.0  0.615  0.32326  0.24926000000000004  1.0000
  Cr  Cr9       1.0  0.385  0.32326  0.75074  1.0000
  Cr  Cr10      1.0  0.115  0.82326  0.24926000000000004  1.0000
  Cr  Cr11      1.0  0.885  0.82326  0.75074  1.0000
  Cr  Cr12      1.0  0.61671  0.01076  0.25084  1.0000
  F   F1        1.0  0.45572  0.35071  0.41446  1.0000
  F   F2        1.0  0.30733  0.67274  0.9247600000000001  1.0000
  F   F3        1.0  0.15163  0.21467  0.06487  1.0000
  F   F4        1.0  0.80731  0.17272999999999994  0.9247600000000001  1.0000
  F   F5        1.0  0.44044999999999995  0.36461000000000005  0.55793  1.0000
  F   F6        1.0  0.95574  0.85072  0.41447  1.0000
  F   F7        1.0  0.94049  0.8646299999999999  0.55794  1.0000
  F   F8        1.0  0.56938  0.86374  0.05324  1.0000
  F   F9        1.0  0.41126  0.7716  0.9384500000000001  1.0000
  F   F10       1.0  0.06938  0.36379  0.05324  1.0000
  F   F11       1.0  0.91124  0.27156  0.93844  1.0000
  F   F12       1.0  0.65165  0.71464  0.06485  1.0000
  H   H1        1.0  0.46758  0.9836599999999998  0.07406  1.0000
  H   H2        1.0  0.34332  0.84162  0.56637  1.0000
  H   H3        1.0  0.21987999999999996  0.22152999999999998  0.40675  1.0000
  H   H4        1.0  0.84332  0.34159999999999996  0.56637  1.0000
  H   H5        1.0  0.74607  0.66402  0.5343  1.0000
  H   H6        1.0  0.33593  0.84656  0.43519  1.0000
  H   H7        1.0  0.24612  0.16399  0.53429  1.0000
  H   H8        1.0  0.8359199999999999  0.34652  0.43519  1.0000
  H   H9        1.0  0.87501  0.08767  0.58025  1.0000
  H   H10       1.0  0.06273  0.95743  0.4561700000000001  1.0000
  H   H11       1.0  0.37498  0.5876999999999999  0.58027  1.0000
  H   H12       1.0  0.4599  0.97708  0.94808  1.0000
  H   H13       1.0  0.56272  0.45738  0.4561700000000001  1.0000
  H   H14       1.0  0.77891  0.11024999999999999  0.57895  1.0000
  H   H15       1.0  0.13021  0.07108  0.43431  1.0000
  H   H16       1.0  0.27887999999999996  0.61028  0.57895  1.0000
  H   H17       1.0  0.63019  0.57105  0.43431  1.0000
  H   H18       1.0  0.781  0.1466  0.45177  1.0000
  H   H19       1.0  0.14479  0.11481  0.55805  1.0000
  H   H20       1.0  0.28097  0.6466199999999999  0.45178  1.0000
  H   H21       1.0  0.64476  0.61479  0.55805  1.0000
  H   H22       1.0  0.49204  0.40982  0.87248  1.0000
  H   H23       1.0  0.96756  0.48367  0.07407  1.0000
  H   H24       1.0  0.50118  0.4120999999999999  0.13275  1.0000
  H   H25       1.0  0.9920399999999999  0.9098199999999999  0.87248  1.0000
  H   H26       1.0  0.0011899999999999999  0.9121099999999999  0.13274  1.0000
  H   H27       1.0  0.99197  0.0941  0.9359100000000001  1.0000
  H   H28       1.0  0.00729  0.09594999999999998  0.06563  1.0000
  H   H29       1.0  0.49196  0.5941  0.93592  1.0000
  H   H30       1.0  0.50728  0.59595  0.06563  1.0000
  H   H31       1.0  0.86446  0.84289  0.9574200000000002  1.0000
  H   H32       1.0  0.13616  0.9618799999999997  0.05235  1.0000
  H   H33       1.0  0.36446  0.34288  0.9574200000000002  1.0000
  H   H34       1.0  0.95987  0.4770899999999999  0.94809  1.0000
  H   H35       1.0  0.63616  0.46188  0.05235  1.0000
  H   H36       1.0  0.15734  0.22551  0.9311  1.0000
  H   H37       1.0  0.80169  0.17753  0.05824  1.0000
  H   H38       1.0  0.65734  0.72553  0.9310700000000001  1.0000
  H   H39       1.0  0.30171  0.67754  0.05824  1.0000
  H   H40       1.0  0.96558  0.30077  0.55344  1.0000
  H   H41       1.0  0.93047  0.43799  0.53299  1.0000
  H   H42       1.0  0.11082  0.2977  0.46584  1.0000
  H   H43       1.0  0.15008  0.42957  0.48890999999999996  1.0000
  H   H44       1.0  0.46558  0.8007799999999998  0.55342  1.0000
  H   H45       1.0  0.57498  0.9029199999999998  0.58562  1.0000
  H   H46       1.0  0.43047  0.9380199999999999  0.53301  1.0000
  H   H47       1.0  0.61082  0.79771  0.46584  1.0000
  H   H48       1.0  0.65008  0.9296  0.48889999999999995  1.0000
  H   H49       1.0  0.8922099999999998  0.13874  0.39247  1.0000
  H   H50       1.0  0.93154  0.07624  0.46409  1.0000
  H   H51       1.0  0.06013999999999999  0.9017499999999999  0.60023  1.0000
  H   H52       1.0  0.02247  0.0344  0.57105  1.0000
  H   H53       1.0  0.39219  0.6388  0.39249  1.0000
  H   H54       1.0  0.43152  0.5762599999999999  0.4641  1.0000
  H   H55       1.0  0.56016  0.4016799999999999  0.60024  1.0000
  H   H56       1.0  0.50437  0.90351  0.43722999999999995  1.0000
  H   H57       1.0  0.52246  0.5343  0.57104  1.0000
  H   H58       1.0  0.84273  0.76544  0.12848  1.0000
  H   H59       1.0  0.87651  0.90757  0.13265  1.0000
  H   H60       1.0  0.126  0.88872  0.87136  1.0000
  H   H61       1.0  0.11599999999999999  0.03565999999999999  0.90182  1.0000
  H   H62       1.0  0.34271999999999997  0.26539  0.12846  1.0000
  H   H63       1.0  0.37649  0.40750999999999993  0.13268  1.0000
  H   H64       1.0  0.626  0.38874  0.87136  1.0000
  H   H65       1.0  0.616  0.53568  0.90182  1.0000
  H   H66       1.0  0.54218  0.7980099999999998  0.91178  1.0000
  H   H67       1.0  0.07497  0.40290999999999993  0.58562  1.0000
  H   H68       1.0  0.59498  0.8757299999999998  0.85859  1.0000
  H   H69       1.0  0.4084  0.67107  0.10441  1.0000
  H   H70       1.0  0.39769  0.81691  0.12317  1.0000
  H   H71       1.0  0.04207999999999999  0.29819  0.9120499999999999  1.0000
  H   H72       1.0  0.09492  0.37517999999999996  0.85852  1.0000
  H   H73       1.0  0.90839  0.17104  0.1044  1.0000
  H   H74       1.0  0.89769  0.31687  0.12316000000000002  1.0000
  H   H75       1.0  0.00438  0.4035  0.43721999999999994  1.0000
  H   H76       1.0  0.71985  0.7215499999999999  0.40675  1.0000
  N   N1        1.0  0.9657500000000001  0.39347  0.56663  1.0000
  N   N2        1.0  0.12497999999999998  0.94494  0.91627  1.0000
  N   N3        1.0  0.36202  0.33761  0.09806  1.0000
  N   N4        1.0  0.62498  0.44496  0.9162800000000001  1.0000
  N   N5        1.0  0.58059  0.86478  0.9117  1.0000
  N   N6        1.0  0.4021  0.75656  0.08045  1.0000
  N   N7        1.0  0.0806  0.36476999999999987  0.9116900000000001  1.0000
  N   N8        1.0  0.9021  0.25652  0.08044  1.0000
  N   N9        1.0  0.11321  0.3911499999999999  0.45458  1.0000
  N   N10       1.0  0.46575999999999995  0.8934699999999999  0.56663  1.0000
  N   N11       1.0  0.61321  0.89115  0.45458  1.0000
  N   N12       1.0  0.89294  0.13741  0.44809  1.0000
  N   N13       1.0  0.06671  0.99558  0.59381  1.0000
  N   N14       1.0  0.39292  0.6374399999999999  0.4481  1.0000
  N   N15       1.0  0.56671  0.49551999999999996  0.5938  1.0000
  N   N16       1.0  0.8620299999999999  0.8376399999999999  0.09806  1.0000
  O   O1        1.0  0.78752  0.04281  0.17044  1.0000
  O   O2        1.0  0.45405000000000006  0.05121  0.66914  1.0000
  O   O3        1.0  0.04595  0.55121  0.33086  1.0000
  O   O4        1.0  0.9540499999999998  0.55121  0.66914  1.0000
  O   O5        1.0  0.68139  0.95948  0.32551  1.0000
  O   O6        1.0  0.31860999999999995  0.95948  0.67449  1.0000
  O   O7        1.0  0.18139  0.45948  0.32551  1.0000
  O   O8        1.0  0.81861  0.45948  0.67449  1.0000
  O   O9        1.0  0.6679  0.1679  0.25006  1.0000
  O   O10       1.0  0.3321  0.1679  0.74994  1.0000
  O   O11       1.0  0.1679  0.6679  0.25006  1.0000
  O   O12       1.0  0.21248  0.04281  0.82956  1.0000
  O   O13       1.0  0.8320999999999998  0.6679  0.74994  1.0000
  O   O14       1.0  0.76564  0.2921  0.17502  1.0000
  O   O15       1.0  0.23436  0.2921  0.82498  1.0000
  O   O16       1.0  0.26564  0.7921  0.17502  1.0000
  O   O17       1.0  0.73436  0.7921  0.82498  1.0000
  O   O18       1.0  0.67019  0.4088399999999999  0.16854  1.0000
  O   O19       1.0  0.32981  0.4088399999999999  0.83146  1.0000
  O   O20       1.0  0.17019  0.90884  0.16854  1.0000
  O   O21       1.0  0.82981  0.90884  0.83146  1.0000
  O   O22       1.0  0.55662  0.25141  0.17516  1.0000
  O   O23       1.0  0.28752  0.54281  0.17044  1.0000
  O   O24       1.0  0.44338  0.25141  0.82484  1.0000
  O   O25       1.0  0.05662  0.75141  0.17516  1.0000
  O   O26       1.0  0.94338  0.75141  0.82484  1.0000
  O   O27       1.0  0.54596  0.04962  0.17032  1.0000
  O   O28       1.0  0.45404  0.04961999999999999  0.82968  1.0000
  O   O29       1.0  0.04596  0.54962  0.17032  1.0000
  O   O30       1.0  0.9540399999999999  0.54962  0.82968  1.0000
  O   O31       1.0  0.68139  0.95801  0.17669  1.0000
  O   O32       1.0  0.31860999999999995  0.95801  0.82331  1.0000
  O   O33       1.0  0.18139  0.45801  0.17669  1.0000
  O   O34       1.0  0.71248  0.54281  0.82956  1.0000
  O   O35       1.0  0.81861  0.45801  0.82331  1.0000
  O   O36       1.0  0.7875099999999999  0.04439  0.33097  1.0000
  O   O37       1.0  0.21248999999999998  0.044389999999999985  0.66903  1.0000
  O   O38       1.0  0.28751  0.54439  0.33097  1.0000
  O   O39       1.0  0.71249  0.54439  0.66903  1.0000
  O   O40       1.0  0.76563  0.29357  0.32384  1.0000
  O   O41       1.0  0.23437  0.29357  0.67616  1.0000
  O   O42       1.0  0.26563  0.79357  0.32384  1.0000
  O   O43       1.0  0.73437  0.79357  0.67616  1.0000
  O   O44       1.0  0.67019  0.41042  0.32908  1.0000
  O   O45       1.0  0.55661  0.25287999999999994  0.32398  1.0000
  O   O46       1.0  0.32981  0.41042  0.67092  1.0000
  O   O47       1.0  0.17019  0.91042  0.32908  1.0000
  O   O48       1.0  0.82981  0.91042  0.67092  1.0000
  O   O49       1.0  0.44339  0.25287999999999994  0.67602  1.0000
  O   O50       1.0  0.05661  0.75288  0.32398  1.0000
  O   O51       1.0  0.94339  0.75288  0.67602  1.0000
  O   O52       1.0  0.5459499999999999  0.05121  0.33086  1.0000
