data_image0
_chemical_formula_structural       C52N4O16Zn4Br16OHOHOHOHOHOHOHOHBr32OHOHOHOHOHOHOHOHBr8
_chemical_formula_sum              "C52 N4 O32 Zn4 Br56 H16"
_cell_length_a       17.38741
_cell_length_b       16.21297
_cell_length_c       10.44602
_cell_angle_alpha    89.19374
_cell_angle_beta     90.10801999999998
_cell_angle_gamma    89.84486

_space_group_name_H-M_alt    "P 1"
_space_group_IT_number       1

loop_
  _space_group_symop_operation_xyz
  'x, y, z'

loop_
  _atom_site_type_symbol
  _atom_site_label
  _atom_site_symmetry_multiplicity
  _atom_site_fract_x
  _atom_site_fract_y
  _atom_site_fract_z
  _atom_site_occupancy
  C   C1        1.0  0.12300999999999998  0.384  0.50051  1.0000
  C   C2        1.0  0.1233  0.6155700000000002  0.49933000000000005  1.0000
  C   C3        1.0  0.62483  0.88673  0.4996100000000001  1.0000
  C   C4        1.0  0.62634  0.11129  0.50006  1.0000
  C   C5        1.0  0.91946  0.51062  0.07416  1.0000
  C   C6        1.0  0.91959  0.49068000000000006  0.9251700000000003  1.0000
  C   C7        1.0  0.42169  0.9834300000000002  0.07501  1.0000
  C   C8        1.0  0.42175  0.00945  0.92719  1.0000
  C   C9        1.0  0.88892  0.36826  0.50079  1.0000
  C   C10       1.0  0.88786  0.6310600000000002  0.49954  1.0000
  C   C11       1.0  0.37488  0.88217  0.50298  1.0000
  C   C12       1.0  0.38384  0.12742  0.49674000000000007  1.0000
  C   C13       1.0  0.83182  0.21095000000000005  0.61611  1.0000
  C   C14       1.0  0.82678  0.22573  0.37688  1.0000
  C   C15       1.0  0.8307999999999999  0.7870400000000002  0.38704  1.0000
  C   C16       1.0  0.82168  0.77241  0.62487  1.0000
  C   C17       1.0  0.26092  0.7901800000000002  0.6551800000000001  1.0000
  C   C18       1.0  0.33583  0.72423  0.4674  1.0000
  C   C19       1.0  0.29644  0.25049  0.34536000000000006  1.0000
  C   C20       1.0  0.33598  0.28639  0.5720900000000001  1.0000
  C   C21       1.0  0.19371  0.72371  0.63761  1.0000
  C   C22       1.0  0.2756  0.64774  0.47536  1.0000
  C   C23       1.0  0.2166  0.30148  0.35389  1.0000
  C   C24       1.0  0.27296  0.35956  0.5551700000000002  1.0000
  C   C25       1.0  0.7505  0.16323  0.63446  1.0000
  C   C26       1.0  0.76823  0.14742  0.39541  1.0000
  C   C27       1.0  0.74901  0.8337500000000002  0.3653300000000001  1.0000
  C   C28       1.0  0.76377  0.8504200000000002  0.60343  1.0000
  C   C29       1.0  0.74463  0.32416  0.5099600000000001  1.0000
  C   C30       1.0  0.74201  0.67322  0.48884  1.0000
  C   C31       1.0  0.22663  0.83432  0.42966  1.0000
  C   C32       1.0  0.23867  0.16793  0.53378  1.0000
  C   C33       1.0  0.82833  0.2850200000000001  0.5016800000000001  1.0000
  C   C34       1.0  0.8259  0.71309  0.49964  1.0000
  C   C35       1.0  0.30236  0.8125600000000002  0.51415  1.0000
  C   C36       1.0  0.31844  0.20468  0.4862100000000001  1.0000
  C   C37       1.0  0.19141  0.6824300000000001  0.50006  1.0000
  C   C38       1.0  0.19548  0.3224500000000001  0.49864  1.0000
  C   C39       1.0  0.70266  0.16877  0.50184  1.0000
  C   C40       1.0  0.69935  0.82806  0.49662  1.0000
  C   C41       1.0  0.17835  0.75447  0.39548  1.0000
  C   C42       1.0  0.17965  0.23817000000000005  0.5733200000000002  1.0000
  C   C43       1.0  0.67719  0.2604100000000001  0.4831000000000001  1.0000
  C   C44       1.0  0.67297  0.7361  0.51361  1.0000
  C   C45       1.0  0.03209  0.42238  0.07945  1.0000
  C   C46       1.0  0.0433  0.42841  0.92503  1.0000
  C   C47       1.0  0.03406  0.57607  0.9212100000000001  1.0000
  C   C48       1.0  0.04537  0.56917  0.07618  1.0000
  C   C49       1.0  0.54767  0.9324000000000002  0.08074  1.0000
  C   C50       1.0  0.53447  0.9234800000000002  0.92522  1.0000
  C   C51       1.0  0.54326  0.07084000000000001  0.92072  1.0000
  C   C52       1.0  0.5289199999999998  0.07912  0.07594  1.0000
  N   N1        1.0  0.9987599999999999  0.5  0.13861  1.0000
  N   N2        1.0  0.9987599999999999  0.5  0.86139  1.0000
  N   N3        1.0  0.4987599999999999  0.0  0.13861  1.0000
  N   N4        1.0  0.4987599999999999  0.0  0.86139  1.0000
  O   O1        1.0  0.09253  0.40744  0.61604  1.0000
  O   O2        1.0  0.09253  0.40744  0.38396  1.0000
  O   O3        1.0  0.09253  0.59256  0.38396  1.0000
  O   O4        1.0  0.09253  0.59256  0.61604  1.0000
  O   O5        1.0  0.59253  0.9074400000000002  0.61604  1.0000
  O   O6        1.0  0.59253  0.9074400000000002  0.38396  1.0000
  O   O7        1.0  0.59253  0.09256  0.38396  1.0000
  O   O8        1.0  0.59253  0.09256  0.61604  1.0000
  O   O9        1.0  0.90733  0.40742  0.61604  1.0000
  O   O10       1.0  0.90733  0.40742  0.38396  1.0000
  O   O11       1.0  0.90733  0.59258  0.38396  1.0000
  O   O12       1.0  0.90733  0.59258  0.61604  1.0000
  O   O13       1.0  0.40733  0.90742  0.61604  1.0000
  O   O14       1.0  0.40733  0.90742  0.38396  1.0000
  O   O15       1.0  0.40733  0.09258  0.38396  1.0000
  O   O16       1.0  0.40733  0.09258  0.61604  1.0000
  Zn  Zn1       1.0  0.99989  0.5  0.65496  1.0000
  Zn  Zn2       1.0  0.99989  0.5  0.34504  1.0000
  Zn  Zn3       1.0  0.49989  0.0  0.65496  1.0000
  Zn  Zn4       1.0  0.49989  0.0  0.34504  1.0000
  Br  Br1       1.0  0.87451  0.23023  0.7765300000000002  1.0000
  Br  Br2       1.0  0.7989099999999998  0.28244  0.21861000000000003  1.0000
  Br  Br3       1.0  0.87758  0.7680200000000003  0.22988000000000003  1.0000
  Br  Br4       1.0  0.79452  0.715  0.7825700000000001  1.0000
  Br  Br5       1.0  0.21265999999999993  0.8717500000000002  0.76972  1.0000
  Br  Br6       1.0  0.38067999999999996  0.7298400000000003  0.29934  1.0000
  Br  Br7       1.0  0.28675  0.19887  0.18224  1.0000
  Br  Br8       1.0  0.35961  0.26687  0.7473600000000002  1.0000
  Br  Br9       1.0  0.91382  0.12721  0.60969  1.0000
  Br  Br10      1.0  0.9289799999999999  0.18727  0.32816000000000006  1.0000
  Br  Br11      1.0  0.91266  0.87051  0.40125000000000005  1.0000
  Br  Br12      1.0  0.91763  0.8158800000000003  0.6854200000000001  1.0000
  Br  Br13      1.0  0.33035  0.75078  0.7883200000000001  1.0000
  Br  Br14      1.0  0.43073  0.69919  0.56041  1.0000
  Br  Br15      1.0  0.37879  0.32078  0.27239  1.0000
  Br  Br16      1.0  0.43389  0.3338200000000001  0.54545  1.0000
  O   O17       1.0  0.19558999999999999  0.66689  0.7397000000000001  1.0000
  H   H1        1.0  0.24068999999999996  0.63109  0.74721  1.0000
  O   O18       1.0  0.2962  0.59511  0.57639  1.0000
  H   H2        1.0  0.347  0.57083  0.5584600000000001  1.0000
  O   O19       1.0  0.22515  0.37552000000000013  0.28351000000000004  1.0000
  H   H3        1.0  0.23366999999999996  0.36165000000000014  0.19242  1.0000
  O   O20       1.0  0.29905  0.4178300000000001  0.46549  1.0000
  H   H4        1.0  0.34163  0.44989  0.50134  1.0000
  O   O21       1.0  0.7612  0.07873  0.6625600000000001  1.0000
  H   H5        1.0  0.78739  0.073  0.74675  1.0000
  O   O22       1.0  0.80649  0.07590000000000001  0.43968  1.0000
  H   H6        1.0  0.84583  0.05675  0.37811000000000006  1.0000
  O   O23       1.0  0.75891  0.91807  0.33479000000000003  1.0000
  H   H7        1.0  0.78783  0.92295  0.2531900000000001  1.0000
  O   O24       1.0  0.8001  0.92253  0.5569100000000001  1.0000
  H   H8        1.0  0.84061  0.9439200000000001  0.6145600000000001  1.0000
  Br  Br17      1.0  0.09009  0.7654800000000003  0.6679700000000001  1.0000
  Br  Br18      1.0  0.27831  0.57027  0.32941000000000004  1.0000
  Br  Br19      1.0  0.12616  0.24859000000000003  0.27056  1.0000
  Br  Br20      1.0  0.26194  0.42847  0.70833  1.0000
  Br  Br21      1.0  0.70112  0.20202000000000006  0.7935400000000001  1.0000
  Br  Br22      1.0  0.7380399999999999  0.10527  0.23068000000000002  1.0000
  Br  Br23      1.0  0.70286  0.79242  0.20738000000000004  1.0000
  Br  Br24      1.0  0.73903  0.89431  0.76734  1.0000
  Br  Br25      1.0  0.73843  0.38016  0.6743700000000001  1.0000
  Br  Br26      1.0  0.72548  0.41984  0.40335000000000004  1.0000
  Br  Br27      1.0  0.72399  0.57727  0.59503  1.0000
  Br  Br28      1.0  0.73597  0.61689  0.3255700000000001  1.0000
  Br  Br29      1.0  0.16124  0.9192900000000003  0.50347  1.0000
  Br  Br30      1.0  0.23568999999999998  0.89987  0.28182000000000007  1.0000
  Br  Br31      1.0  0.20108  0.09526000000000003  0.40217  1.0000
  Br  Br32      1.0  0.24183999999999997  0.08338000000000002  0.66582  1.0000
  Br  Br33      1.0  0.19792  0.7221500000000002  0.21618  1.0000
  Br  Br34      1.0  0.07139  0.78187  0.37296000000000007  1.0000
  Br  Br35      1.0  0.07551999999999999  0.20273  0.5561500000000001  1.0000
  Br  Br36      1.0  0.1802  0.25149  0.7594000000000001  1.0000
  Br  Br37      1.0  0.62173  0.27278  0.31835  1.0000
  Br  Br38      1.0  0.59515  0.28584  0.5941800000000002  1.0000
  Br  Br39      1.0  0.58618  0.70699  0.40567000000000003  1.0000
  Br  Br40      1.0  0.62102  0.72504  0.68056  1.0000
  Br  Br41      1.0  0.97415  0.32838000000000006  0.13242  1.0000
  Br  Br42      1.0  0.02343  0.32432  0.8423400000000001  1.0000
  Br  Br43      1.0  0.97615  0.67022  0.8646400000000001  1.0000
  Br  Br44      1.0  0.02443  0.67161  0.1493  1.0000
  Br  Br45      1.0  0.53204  0.8260100000000001  0.16514  1.0000
  Br  Br46      1.0  0.4870999999999999  0.8226600000000002  0.86734  1.0000
  Br  Br47      1.0  0.52243  0.17556  0.8339600000000001  1.0000
  Br  Br48      1.0  0.47067  0.17452  0.12926000000000004  1.0000
  O   O25       1.0  0.10389  0.40165  0.12998000000000004  1.0000
  H   H9        1.0  0.11995000000000001  0.44292  0.19074000000000002  1.0000
  O   O26       1.0  0.12268  0.4359900000000001  0.9073500000000001  1.0000
  H   H10       1.0  0.13276  0.42608  0.81749  1.0000
  O   O27       1.0  0.10566  0.59554  0.872  1.0000
  H   H11       1.0  0.12165000000000001  0.5549400000000002  0.8097700000000001  1.0000
  O   O28       1.0  0.12369999999999999  0.56568  0.11263  1.0000
  H   H12       1.0  0.15644  0.5374  0.050010000000000006  1.0000
  O   O29       1.0  0.62635  0.9489100000000003  0.10142  1.0000
  H   H13       1.0  0.63378  0.9612  0.19265000000000002  1.0000
  O   O30       1.0  0.60506  0.9094800000000002  0.87426  1.0000
  H   H14       1.0  0.6267799999999999  0.86001  0.9196400000000001  1.0000
  O   O31       1.0  0.62287  0.059179999999999996  0.9034600000000003  1.0000
  H   H15       1.0  0.63208  0.046050000000000015  0.8129700000000001  1.0000
  O   O32       1.0  0.598  0.09939  0.13058  1.0000
  H   H16       1.0  0.61649  0.15086  0.0875  1.0000
  Br  Br49      1.0  0.83669  0.4673400000000001  0.16971  1.0000
  Br  Br50      1.0  0.86382  0.39164  0.9079700000000003  1.0000
  Br  Br51      1.0  0.83664  0.5324100000000003  0.8286500000000002  1.0000
  Br  Br52      1.0  0.86284  0.61003  0.08983  1.0000
  Br  Br53      1.0  0.37294  0.8748900000000002  0.0913  1.0000
  Br  Br54      1.0  0.35166  0.9608700000000002  0.8333200000000001  1.0000
  Br  Br55      1.0  0.36292  0.10832  0.9051300000000001  1.0000
  Br  Br56      1.0  0.34402  0.026920000000000006  0.17114  1.0000
