data_image0
_chemical_formula_structural       Zn2H26C50N6O24
_chemical_formula_sum              "Zn2 H26 C50 N6 O24"
_cell_length_a       7.72281
_cell_length_b       8.67132
_cell_length_c       27.58103
_cell_angle_alpha    90.97067000000001
_cell_angle_beta     86.14219999999999
_cell_angle_gamma    94.03699

_space_group_name_H-M_alt    "P 1"
_space_group_IT_number       1

loop_
  _space_group_symop_operation_xyz
  'x, y, z'

loop_
  _atom_site_type_symbol
  _atom_site_label
  _atom_site_symmetry_multiplicity
  _atom_site_fract_x
  _atom_site_fract_y
  _atom_site_fract_z
  _atom_site_occupancy
  Zn  Zn1       1.0  0.30694  0.51799  0.5056200000000001  1.0000
  Zn  Zn2       1.0  0.6930599999999998  0.48201  0.49438000000000004  1.0000
  H   H1        1.0  0.77572  0.56051  0.34507  1.0000
  H   H2        1.0  0.7022099999999998  0.31416  0.63667  1.0000
  H   H3        1.0  0.7953299999999998  0.56099  0.25741  1.0000
  H   H4        1.0  0.7422699999999998  0.29163  0.7228  1.0000
  H   H5        1.0  0.74318  0.84757  0.11285  1.0000
  H   H6        1.0  0.44149999999999995  0.07861  0.8787200000000002  1.0000
  H   H7        1.0  0.78419  0.83122  0.0278  1.0000
  H   H8        1.0  0.45971000000000006  0.0721  0.96312  1.0000
  H   H9        1.0  0.8642299999999998  0.79422  0.95664  1.0000
  H   H10       1.0  0.44871  0.0834  0.03664  1.0000
  H   H11       1.0  0.014049999999999967  0.38175  0.4643000000000001  1.0000
  H   H12       1.0  0.9859500000000001  0.61766  0.53598  1.0000
  H   H13       1.0  0.20227000000000003  0.6346  0.64373  1.0000
  H   H14       1.0  0.45785999999999993  0.80999  0.61282  1.0000
  H   H15       1.0  0.46393  0.88195  0.6747800000000003  1.0000
  H   H16       1.0  0.27726  0.90734  0.64067  1.0000
  H   H17       1.0  0.13679  0.52675  0.37674  1.0000
  H   H18       1.0  0.22422  0.25839999999999996  0.39498  1.0000
  H   H19       1.0  0.1640699999999999  0.2074  0.33423  1.0000
  H   H20       1.0  0.0019899999999999714  0.26785  0.3792200000000001  1.0000
  H   H21       1.0  0.20020999999999994  0.64101  0.8344000000000003  1.0000
  H   H22       1.0  0.07485999999999997  0.53515  0.18903000000000006  1.0000
  H   H23       1.0  0.80674  0.028799999999999992  0.82709  1.0000
  H   H24       1.0  0.14795  0.011700000000000002  0.17219000000000007  1.0000
  H   H25       1.0  0.8883199999999998  0.06176000000000001  0.5767100000000001  1.0000
  H   H26       1.0  0.10517999999999994  0.92708  0.42768  1.0000
  C   C1        1.0  0.54556  0.7943  0.49884  1.0000
  C   C2        1.0  0.45439  0.20575  0.50157  1.0000
  C   C3        1.0  0.50289  0.49946  0.5939800000000002  1.0000
  C   C4        1.0  0.49713  0.50033  0.40576  1.0000
  C   C5        1.0  0.68641  0.5663999999999999  0.81554  1.0000
  C   C6        1.0  0.5104  0.35849  0.17774  1.0000
  C   C7        1.0  0.5337199999999998  0.31784  0.8205200000000001  1.0000
  C   C8        1.0  0.6052299999999998  0.62559  0.17262  1.0000
  C   C9        1.0  0.6492799999999997  0.36893  0.71118  1.0000
  C   C10       1.0  0.6688799999999998  0.54098  0.27656  1.0000
  C   C11       1.0  0.62719  0.38333  0.66232  1.0000
  C   C12       1.0  0.65675  0.53879  0.32661  1.0000
  C   C13       1.0  0.41412  0.57523  0.6804500000000001  1.0000
  C   C14       1.0  0.34246999999999994  0.48027  0.32673  1.0000
  C   C15       1.0  0.43368999999999996  0.55762  0.73061  1.0000
  C   C16       1.0  0.35499  0.48761999999999994  0.27542  1.0000
  C   C17       1.0  0.5550699999999998  0.45553  0.7452300000000002  1.0000
  C   C18       1.0  0.52065  0.514  0.2508  1.0000
  C   C19       1.0  0.63558  0.44154  0.89377  1.0000
  C   C20       1.0  0.5924499999999999  0.46999  0.09886000000000003  1.0000
  C   C21       1.0  0.70355  0.5714000000000001  0.8662000000000002  1.0000
  C   C22       1.0  0.5201300000000002  0.34268  0.1267  1.0000
  C   C23       1.0  0.78653  0.69889  0.89027  1.0000
  C   C24       1.0  0.4643899999999999  0.20444  0.10273  1.0000
  C   C25       1.0  0.55693  0.31191  0.8701200000000002  1.0000
  C   C26       1.0  0.6369400000000001  0.61167  0.12239  1.0000
  C   C27       1.0  0.51167  0.4861599999999999  0.64641  1.0000
  C   C28       1.0  0.4957899999999998  0.50679  0.35248000000000007  1.0000
  C   C29       1.0  0.69229  0.58636  0.020390000000000002  1.0000
  C   C30       1.0  0.57292  0.31066  0.9721100000000003  1.0000
  C   C31       1.0  0.56447  0.31745  0.023750000000000004  1.0000
  C   C32       1.0  0.71184  0.57542  0.9689900000000002  1.0000
  C   C33       1.0  0.61767  0.45734  0.04753000000000002  1.0000
  C   C34       1.0  0.6416  0.44208  0.9451  1.0000
  C   C35       1.0  0.7356299999999998  0.72582  0.045550000000000014  1.0000
  C   C36       1.0  0.5086199999999999  0.1787  0.9462800000000002  1.0000
  C   C37       1.0  0.70898  0.7376  0.09547  1.0000
  C   C38       1.0  0.4983899999999998  0.18065  0.89646  1.0000
  C   C39       1.0  0.79454  0.69647  0.9405500000000001  1.0000
  C   C40       1.0  0.4928  0.19211  0.05241000000000001  1.0000
  C   C41       1.0  0.56848  0.9562400000000001  0.50343  1.0000
  C   C42       1.0  0.43092  0.04376  0.49779  1.0000
  C   C43       1.0  0.37904999999999994  0.82746  0.64738  1.0000
  C   C44       1.0  0.14046000000000003  0.2867  0.36568000000000006  1.0000
  C   C45       1.0  0.32646  0.64234  0.7678400000000002  1.0000
  C   C46       1.0  0.19655999999999998  0.47047  0.24717000000000006  1.0000
  C   C47       1.0  0.85607  0.84319  0.8657400000000002  1.0000
  C   C48       1.0  0.35727  0.07624  0.12751  1.0000
  C   C49       1.0  0.7399299999999996  0.014840000000000002  0.5201600000000001  1.0000
  C   C50       1.0  0.25742  0.9845000000000002  0.48268  1.0000
  N   N1        1.0  0.59262  0.44611  0.7950100000000001  1.0000
  N   N2        1.0  0.5430100000000001  0.49994  0.19906000000000004  1.0000
  N   N3        1.0  0.9503199999999999  0.45796  0.48688  1.0000
  N   N4        1.0  0.049679999999999946  0.54204  0.5131200000000001  1.0000
  N   N5        1.0  0.29735  0.6819  0.66506  1.0000
  N   N6        1.0  0.17614  0.4461  0.35121000000000013  1.0000
  O   O1        1.0  0.38924999999999993  0.73857  0.5032200000000001  1.0000
  O   O2        1.0  0.6107499999999998  0.26143  0.49678  1.0000
  O   O3        1.0  0.6783899999999998  0.71163  0.49481  1.0000
  O   O4        1.0  0.32161  0.28837  0.50519  1.0000
  O   O5        1.0  0.3554399999999999  0.51344  0.57545  1.0000
  O   O6        1.0  0.64456  0.48655999999999994  0.42455  1.0000
  O   O7        1.0  0.64459  0.4865  0.5670400000000001  1.0000
  O   O8        1.0  0.3554099999999999  0.5135  0.43296  1.0000
  O   O9        1.0  0.76246  0.67883  0.78656  1.0000
  O   O10       1.0  0.47461  0.23377999999999996  0.20622000000000004  1.0000
  O   O11       1.0  0.6368  0.76334  0.19507000000000005  1.0000
  O   O12       1.0  0.44995999999999997  0.19793000000000002  0.79798  1.0000
  O   O13       1.0  0.28491  0.7726  0.75993  1.0000
  O   O14       1.0  0.2720299999999999  0.57241  0.8121200000000001  1.0000
  O   O15       1.0  0.07398000000000002  0.38048  0.26023  1.0000
  O   O16       1.0  0.18819000000000002  0.5573100000000001  0.20522000000000007  1.0000
  O   O17       1.0  0.008329999999999938  0.88895  0.8689600000000002  1.0000
  O   O18       1.0  0.74504  0.9312400000000001  0.84141  1.0000
  O   O19       1.0  0.3906699999999999  0.94219  0.11926  1.0000
  O   O20       1.0  0.21213  0.10856999999999999  0.15813  1.0000
  O   O21       1.0  0.8548199999999999  0.062040000000000005  0.49035  1.0000
  O   O22       1.0  0.76782  0.01649  0.5697  1.0000
  O   O23       1.0  0.14406  0.9432999999999999  0.51372  1.0000
  O   O24       1.0  0.22699999999999998  0.97202  0.4333700000000001  1.0000
