data_image0
_chemical_formula_structural       C188Cl28Cu12H32O80
_chemical_formula_sum              "C188 Cl28 Cu12 H32 O80"
_cell_length_a       27.93403
_cell_length_b       18.83814
_cell_length_c       16.66506
_cell_angle_alpha    89.99997
_cell_angle_beta     62.98166
_cell_angle_gamma    90.0

_space_group_name_H-M_alt    "P 1"
_space_group_IT_number       1

loop_
  _space_group_symop_operation_xyz
  'x, y, z'

loop_
  _atom_site_type_symbol
  _atom_site_label
  _atom_site_symmetry_multiplicity
  _atom_site_fract_x
  _atom_site_fract_y
  _atom_site_fract_z
  _atom_site_occupancy
  C   C1        1.0  0.29758  0.73433  0.32764  1.0000
  C   C2        1.0  0.60243  3e-05  0.4936  1.0000
  C   C3        1.0  0.68737  0.72271  0.90979  1.0000
  C   C4        1.0  0.1136  0.8173399999999997  0.05014  1.0000
  C   C5        1.0  0.87408  0.15727  0.96033  1.0000
  C   C6        1.0  0.8863999999999997  0.8173399999999997  0.94986  1.0000
  C   C7        1.0  0.12591  0.15727  0.03968  1.0000
  C   C8        1.0  0.6136  0.31734  0.05014  1.0000
  C   C9        1.0  0.37409  0.6572699999999999  0.96032  1.0000
  C   C10       1.0  0.3863999999999999  0.31734  0.94986  1.0000
  C   C11       1.0  0.62591  0.6572699999999999  0.03968  1.0000
  C   C12       1.0  0.14621  0.8091199999999997  0.09429  1.0000
  C   C13       1.0  0.8975699999999998  0.50004  0.5064  1.0000
  C   C14       1.0  0.8351100000000001  0.15039  0.93189  1.0000
  C   C15       1.0  0.85379  0.8091199999999997  0.90571  1.0000
  C   C16       1.0  0.16489000000000004  0.15039  0.06811  1.0000
  C   C17       1.0  0.6462099999999997  0.30912  0.09429  1.0000
  C   C18       1.0  0.3351100000000001  0.6504  0.93189  1.0000
  C   C19       1.0  0.35379999999999995  0.30912  0.90571  1.0000
  C   C20       1.0  0.66489  0.6504  0.06811  1.0000
  C   C21       1.0  0.24106000000000002  0.69437  0.79252  1.0000
  C   C22       1.0  0.7642699999999998  0.31369  0.19935  1.0000
  C   C23       1.0  0.75894  0.69437  0.20748  1.0000
  C   C24       1.0  0.10242999999999998  0.50004  0.4936  1.0000
  C   C25       1.0  0.23572999999999997  0.31369  0.80065  1.0000
  C   C26       1.0  0.7410600000000002  0.19436999999999996  0.79252  1.0000
  C   C27       1.0  0.26427000000000006  0.81369  0.19935  1.0000
  C   C28       1.0  0.25893999999999995  0.19436999999999996  0.20748  1.0000
  C   C29       1.0  0.73573  0.81369  0.80065  1.0000
  C   C30       1.0  0.2786199999999999  0.69311  0.8258400000000001  1.0000
  C   C31       1.0  0.7337799999999998  0.32893  0.15266  1.0000
  C   C32       1.0  0.72138  0.69311  0.17416  1.0000
  C   C33       1.0  0.26622  0.32893  0.84734  1.0000
  C   C34       1.0  0.77861  0.19310999999999995  0.82585  1.0000
  C   C35       1.0  0.60839  0.87418  0.46695  1.0000
  C   C36       1.0  0.23378  0.82893  0.15266  1.0000
  C   C37       1.0  0.22138999999999998  0.19310999999999995  0.17415  1.0000
  C   C38       1.0  0.76622  0.82893  0.84734  1.0000
  C   C39       1.0  0.9293699999999998  0.8983599999999999  0.06374  1.0000
  C   C40       1.0  0.07134999999999998  0.10079  0.93558  1.0000
  C   C41       1.0  0.07063000000000003  0.8983599999999999  0.93626  1.0000
  C   C42       1.0  0.92865  0.10079  0.06442  1.0000
  C   C43       1.0  0.42937  0.39835999999999994  0.06374  1.0000
  C   C44       1.0  0.5713499999999999  0.60079  0.93558  1.0000
  C   C45       1.0  0.57063  0.39835999999999994  0.93626  1.0000
  C   C46       1.0  0.39159000000000005  0.12589  0.53315  1.0000
  C   C47       1.0  0.42865  0.60079  0.06442  1.0000
  C   C48       1.0  0.05373  0.6291399999999999  0.48693  1.0000
  C   C49       1.0  0.9462799999999999  0.37093  0.51305  1.0000
  C   C50       1.0  0.9462699999999997  0.6291399999999999  0.51307  1.0000
  C   C51       1.0  0.05372000000000001  0.37093  0.48695  1.0000
  C   C52       1.0  0.5537299999999998  0.12913999999999998  0.4869200000000001  1.0000
  C   C53       1.0  0.44628000000000007  0.8709199999999999  0.51305  1.0000
  C   C54       1.0  0.44627000000000006  0.12913999999999998  0.51307  1.0000
  C   C55       1.0  0.5537199999999998  0.8709199999999999  0.48695  1.0000
  C   C56       1.0  0.02659000000000001  0.69441  0.49392  1.0000
  C   C57       1.0  0.39161000000000007  0.87418  0.53305  1.0000
  C   C58       1.0  0.9734  0.30565  0.50611  1.0000
  C   C59       1.0  0.9734099999999998  0.69441  0.50608  1.0000
  C   C60       1.0  0.026600000000000013  0.30565  0.49389  1.0000
  C   C61       1.0  0.52659  0.19441  0.49391  1.0000
  C   C62       1.0  0.4733999999999998  0.8056499999999998  0.50611  1.0000
  C   C63       1.0  0.47340999999999994  0.19441  0.50608  1.0000
  C   C64       1.0  0.5266  0.8056499999999998  0.49389  1.0000
  C   C65       1.0  0.97381  0.56479  0.50412  1.0000
  C   C66       1.0  0.026189999999999995  0.43527  0.49589  1.0000
  C   C67       1.0  0.026189999999999995  0.56479  0.49588  1.0000
  C   C68       1.0  0.60841  0.12589  0.46685  1.0000
  C   C69       1.0  0.97381  0.43527  0.50411  1.0000
  C   C70       1.0  0.47380999999999984  0.06479  0.50412  1.0000
  C   C71       1.0  0.52619  0.93527  0.49589  1.0000
  C   C72       1.0  0.52619  0.06479  0.49588  1.0000
  C   C73       1.0  0.4738099999999998  0.93527  0.50411  1.0000
  C   C74       1.0  0.44796  3e-05  0.50691  1.0000
  C   C75       1.0  0.55204  3e-05  0.49309  1.0000
  C   C76       1.0  0.94796  0.50004  0.50691  1.0000
  C   C77       1.0  0.05204000000000002  0.50004  0.49309  1.0000
  C   C78       1.0  0.37163  0.9355399999999999  0.50901  1.0000
  C   C79       1.0  0.10838999999999997  0.37417999999999996  0.4669400000000001  1.0000
  C   C80       1.0  0.6284000000000001  0.06452999999999999  0.49089  1.0000
  C   C81       1.0  0.6283699999999998  0.9355399999999999  0.49099  1.0000
  C   C82       1.0  0.3716  0.06452999999999999  0.50911  1.0000
  C   C83       1.0  0.87163  0.43554  0.50901  1.0000
  C   C84       1.0  0.1284  0.56453  0.49089  1.0000
  C   C85       1.0  0.12837  0.43554  0.49099  1.0000
  C   C86       1.0  0.8715999999999998  0.56453  0.50911  1.0000
  C   C87       1.0  0.3281199999999999  0.9353199999999999  0.48578000000000005  1.0000
  C   C88       1.0  0.6719  0.06471  0.51417  1.0000
  C   C89       1.0  0.67188  0.9353199999999999  0.51422  1.0000
  C   C90       1.0  0.8915899999999999  0.62589  0.53315  1.0000
  C   C91       1.0  0.32809999999999995  0.06471  0.48583  1.0000
  C   C92       1.0  0.8281199999999997  0.43533  0.48578000000000005  1.0000
  C   C93       1.0  0.17189  0.56471  0.51417  1.0000
  C   C94       1.0  0.17187999999999998  0.43533  0.51422  1.0000
  C   C95       1.0  0.8280999999999997  0.56471  0.48583  1.0000
  C   C96       1.0  0.31208  1.9999999999999998e-05  0.46304000000000006  1.0000
  C   C97       1.0  0.68792  1.9999999999999998e-05  0.53696  1.0000
  C   C98       1.0  0.81208  0.50002  0.46304000000000006  1.0000
  C   C99       1.0  0.1879199999999999  0.50002  0.53696  1.0000
  C   C100      1.0  0.8916099999999998  0.37417999999999996  0.53305  1.0000
  C   C101      1.0  0.70252  0.26629  0.67216  1.0000
  C   C102      1.0  0.10841  0.62589  0.46685  1.0000
  C   C103      1.0  0.21550999999999998  0.75781  0.95778  1.0000
  C   C104      1.0  0.78084  0.23606  0.04478000000000001  1.0000
  C   C105      1.0  0.7844899999999998  0.75781  0.04222  1.0000
  C   C106      1.0  0.21916  0.23606  0.9552200000000001  1.0000
  C   C107      1.0  0.71551  0.25780999999999993  0.95778  1.0000
  C   C108      1.0  0.28084  0.7360599999999998  0.04478000000000001  1.0000
  C   C109      1.0  0.28449  0.25780999999999993  0.04222  1.0000
  C   C110      1.0  0.7191599999999999  0.7360599999999998  0.9552200000000001  1.0000
  C   C111      1.0  0.26296999999999987  0.71659  0.915  1.0000
  C   C112      1.0  0.70242  0.73433  0.67236  1.0000
  C   C113      1.0  0.73682  0.2831099999999999  0.08252  1.0000
  C   C114      1.0  0.73703  0.71659  0.085  1.0000
  C   C115      1.0  0.2631799999999999  0.2831099999999999  0.91748  1.0000
  C   C116      1.0  0.76296  0.21659  0.915  1.0000
  C   C117      1.0  0.23681999999999995  0.78311  0.08252  1.0000
  C   C118      1.0  0.23704  0.21659  0.085  1.0000
  C   C119      1.0  0.7631799999999999  0.78311  0.91748  1.0000
  C   C120      1.0  0.2924699999999998  0.6999599999999999  0.96322  1.0000
  C   C121      1.0  0.69998  0.28591  0.04483  1.0000
  C   C122      1.0  0.7075299999999999  0.6999599999999999  0.03678  1.0000
  C   C123      1.0  0.29748  0.26629  0.32784  1.0000
  C   C124      1.0  0.30002  0.28591  0.95517  1.0000
  C   C125      1.0  0.79247  0.19996  0.96323  1.0000
  C   C126      1.0  0.19998  0.78592  0.04483  1.0000
  C   C127      1.0  0.20753  0.19996  0.03677  1.0000
  C   C128      1.0  0.8000199999999998  0.78592  0.95517  1.0000
  C   C129      1.0  0.13620999999999997  0.81246  0.95521  1.0000
  C   C130      1.0  0.8589899999999999  0.17962  0.04911  1.0000
  C   C131      1.0  0.86379  0.81246  0.04479  1.0000
  C   C132      1.0  0.14101000000000002  0.17962  0.95089  1.0000
  C   C133      1.0  0.6362099999999999  0.31245  0.95521  1.0000
  C   C134      1.0  0.7975799999999997  0.23432999999999998  0.32764  1.0000
  C   C135      1.0  0.359  0.67963  0.04911  1.0000
  C   C136      1.0  0.36379  0.31245  0.04479  1.0000
  C   C137      1.0  0.64101  0.67963  0.95089  1.0000
  C   C138      1.0  0.11002999999999996  0.8378  0.9038900000000002  1.0000
  C   C139      1.0  0.88801  0.15972999999999998  0.0975  1.0000
  C   C140      1.0  0.88997  0.8378  0.09611000000000001  1.0000
  C   C141      1.0  0.11198999999999996  0.15972999999999998  0.9025  1.0000
  C   C142      1.0  0.6100299999999997  0.3378  0.9038900000000002  1.0000
  C   C143      1.0  0.38800999999999997  0.65973  0.0975  1.0000
  C   C144      1.0  0.3899699999999999  0.3378  0.09611000000000001  1.0000
  C   C145      1.0  0.20251999999999995  0.76629  0.67216  1.0000
  C   C146      1.0  0.6119899999999998  0.65973  0.9025  1.0000
  C   C147      1.0  0.12697  0.81121  0.81586  1.0000
  C   C148      1.0  0.87277  0.18977999999999995  0.18328  1.0000
  C   C149      1.0  0.87303  0.81121  0.18414  1.0000
  C   C150      1.0  0.12722999999999993  0.18977999999999995  0.8167200000000002  1.0000
  C   C151      1.0  0.62697  0.31121  0.81586  1.0000
  C   C152      1.0  0.3727699999999999  0.68978  0.18328  1.0000
  C   C153      1.0  0.37303  0.31121  0.18414  1.0000
  C   C154      1.0  0.6272299999999998  0.68978  0.8167200000000002  1.0000
  C   C155      1.0  0.17488999999999996  0.77167  0.77281  1.0000
  C   C156      1.0  0.20242000000000002  0.23432999999999998  0.67236  1.0000
  C   C157      1.0  0.82452  0.22887  0.22678  1.0000
  C   C158      1.0  0.8251099999999998  0.77167  0.22719  1.0000
  C   C159      1.0  0.17547999999999994  0.22887  0.7732200000000001  1.0000
  C   C160      1.0  0.67489  0.27167  0.77281  1.0000
  C   C161      1.0  0.32452  0.72887  0.22678  1.0000
  C   C162      1.0  0.32511  0.27167  0.22719  1.0000
  C   C163      1.0  0.6754799999999997  0.72887  0.7732200000000001  1.0000
  C   C164      1.0  0.1999599999999999  0.7461299999999998  0.82482  1.0000
  C   C165      1.0  0.79894  0.25389  0.17468  1.0000
  C   C166      1.0  0.80004  0.7461299999999998  0.17518  1.0000
  C   C167      1.0  0.79748  0.76629  0.32784  1.0000
  C   C168      1.0  0.20105999999999996  0.25389  0.82532  1.0000
  C   C169      1.0  0.6999599999999996  0.24613  0.82482  1.0000
  C   C170      1.0  0.29894  0.7539  0.17468  1.0000
  C   C171      1.0  0.30004  0.24613  0.17518  1.0000
  C   C172      1.0  0.7010599999999998  0.75389  0.82532  1.0000
  C   C173      1.0  0.19904999999999998  0.63125  0.51838  1.0000
  C   C174      1.0  0.8009599999999998  0.36876  0.4816  1.0000
  C   C175      1.0  0.80095  0.63125  0.48162000000000005  1.0000
  C   C176      1.0  0.19904000000000002  0.36876  0.5184  1.0000
  C   C177      1.0  0.6990499999999997  0.13125  0.51838  1.0000
  C   C178      1.0  0.39757  3e-05  0.5064  1.0000
  C   C179      1.0  0.30095999999999995  0.8687599999999999  0.4816  1.0000
  C   C180      1.0  0.30095  0.13125  0.48162000000000005  1.0000
  C   C181      1.0  0.69904  0.8687599999999999  0.5184  1.0000
  C   C182      1.0  0.18423000000000003  0.77307  0.91205  1.0000
  C   C183      1.0  0.8126299999999997  0.22269999999999998  0.09021  1.0000
  C   C184      1.0  0.81577  0.77307  0.08794  1.0000
  C   C185      1.0  0.18737000000000004  0.22269999999999998  0.90979  1.0000
  C   C186      1.0  0.68422  0.27307  0.91205  1.0000
  C   C187      1.0  0.31263  0.72271  0.09021  1.0000
  C   C188      1.0  0.31577  0.27307  0.08794  1.0000
  Cl  Cl1       1.0  0.27868999999999994  1.9999999999999998e-05  0.39401000000000014  1.0000
  Cl  Cl2       1.0  0.84685  0.67549  0.62823  1.0000
  Cl  Cl3       1.0  0.8468299999999999  0.3248  0.62823  1.0000
  Cl  Cl4       1.0  0.15315  0.67549  0.37177  1.0000
  Cl  Cl5       1.0  0.08442000000000001  0.81906  0.76322  1.0000
  Cl  Cl6       1.0  0.91794  0.18737  0.23133  1.0000
  Cl  Cl7       1.0  0.91558  0.81906  0.23678  1.0000
  Cl  Cl8       1.0  0.08205999999999998  0.18737  0.76867  1.0000
  Cl  Cl9       1.0  0.5844199999999998  0.31906  0.76322  1.0000
  Cl  Cl10      1.0  0.41794  0.68737  0.23134  1.0000
  Cl  Cl11      1.0  0.4155799999999999  0.31906  0.23678  1.0000
  Cl  Cl12      1.0  0.72132  1.9999999999999998e-05  0.60599  1.0000
  Cl  Cl13      1.0  0.58206  0.68737  0.76867  1.0000
  Cl  Cl14      1.0  0.04378  0.8046399999999999  0.11475  1.0000
  Cl  Cl15      1.0  0.9390799999999999  0.17555999999999994  0.87339  1.0000
  Cl  Cl16      1.0  0.9562200000000001  0.8046399999999999  0.8852400000000002  1.0000
  Cl  Cl17      1.0  0.06091999999999998  0.17555999999999994  0.12661  1.0000
  Cl  Cl18      1.0  0.5437799999999998  0.30464  0.11476  1.0000
  Cl  Cl19      1.0  0.43909  0.67556  0.87339  1.0000
  Cl  Cl20      1.0  0.4562199999999999  0.30464  0.8852400000000002  1.0000
  Cl  Cl21      1.0  0.56091  0.67556  0.12661  1.0000
  Cl  Cl22      1.0  0.77868  0.50002  0.39401000000000014  1.0000
  Cl  Cl23      1.0  0.22131999999999993  0.50002  0.60599  1.0000
  Cl  Cl24      1.0  0.65317  0.8248  0.37177  1.0000
  Cl  Cl25      1.0  0.34685  0.17549  0.62823  1.0000
  Cl  Cl26      1.0  0.3468299999999999  0.8248  0.62823  1.0000
  Cl  Cl27      1.0  0.65315  0.17549  0.37177  1.0000
  Cl  Cl28      1.0  0.15316999999999997  0.3248  0.37177  1.0000
  Cu  Cu1       1.0  0.20991999999999997  0.78529  0.49507  1.0000
  Cu  Cu2       1.0  0.50476  0.5  0.07585  1.0000
  Cu  Cu3       1.0  0.9952399999999999  0.0  0.92415  1.0000
  Cu  Cu4       1.0  0.004759999999999998  0.0  0.07585  1.0000
  Cu  Cu5       1.0  0.79008  0.21471  0.50493  1.0000
  Cu  Cu6       1.0  0.79008  0.78529  0.50493  1.0000
  Cu  Cu7       1.0  0.20991999999999997  0.21471  0.49507  1.0000
  Cu  Cu8       1.0  0.70992  0.28529  0.49507  1.0000
  Cu  Cu9       1.0  0.29008  0.71471  0.50493  1.0000
  Cu  Cu10      1.0  0.29008  0.28529  0.50493  1.0000
  Cu  Cu11      1.0  0.70992  0.71471  0.49507  1.0000
  Cu  Cu12      1.0  0.49523999999999985  0.5  0.92415  1.0000
  H   H1        1.0  0.5787299999999997  0.74669  0.51031  1.0000
  H   H2        1.0  0.80001  0.0787  0.89446  1.0000
  H   H3        1.0  0.90837  0.8435399999999998  0.79007  1.0000
  H   H4        1.0  0.19998  0.0787  0.10554  1.0000
  H   H5        1.0  0.59162  0.34354  0.20993  1.0000
  H   H6        1.0  0.3000199999999998  0.5787  0.89446  1.0000
  H   H7        1.0  0.40838  0.3435299999999999  0.79007  1.0000
  H   H8        1.0  0.69998  0.5787  0.10554  1.0000
  H   H9        1.0  0.20627  0.6345699999999997  0.73982  1.0000
  H   H10       1.0  0.7384799999999997  0.39804999999999996  0.27623  1.0000
  H   H11       1.0  0.79373  0.6345699999999997  0.26018  1.0000
  H   H12       1.0  0.42139  0.25334  0.48934  1.0000
  H   H13       1.0  0.2615  0.3980699999999999  0.72381  1.0000
  H   H14       1.0  0.7062699999999997  0.13457  0.73982  1.0000
  H   H15       1.0  0.23846  0.89802  0.27626  1.0000
  H   H16       1.0  0.29372999999999994  0.13457  0.26018  1.0000
  H   H17       1.0  0.76152  0.8980599999999999  0.72378  1.0000
  H   H18       1.0  0.33541  0.66326  0.70887  1.0000
  H   H19       1.0  0.70475  0.40883999999999987  0.11505  1.0000
  H   H20       1.0  0.6645899999999999  0.66326  0.29113  1.0000
  H   H21       1.0  0.29524999999999996  0.40883999999999987  0.8849400000000002  1.0000
  H   H22       1.0  0.8354099999999998  0.16325  0.70888  1.0000
  H   H23       1.0  0.4212699999999999  0.74669  0.48969  1.0000
  H   H24       1.0  0.20475  0.9088399999999999  0.11506000000000001  1.0000
  H   H25       1.0  0.16459  0.16325  0.29113  1.0000
  H   H26       1.0  0.7952499999999998  0.9088399999999999  0.88495  1.0000
  H   H27       1.0  0.57861  0.25334  0.51065  1.0000
  H   H28       1.0  0.07872999999999998  0.24669  0.51031  1.0000
  H   H29       1.0  0.92139  0.75334  0.48935000000000006  1.0000
  H   H30       1.0  0.92127  0.24669  0.48969  1.0000
  H   H31       1.0  0.07861000000000001  0.75334  0.51065  1.0000
  H   H32       1.0  0.09162  0.8435199999999999  0.20994  1.0000
  O   O1        1.0  0.25504000000000004  0.8695899999999999  0.47848  1.0000
  O   O2        1.0  0.81795  0.20344999999999996  0.37556  1.0000
  O   O3        1.0  0.81795  0.79655  0.37556  1.0000
  O   O4        1.0  0.18204999999999996  0.20344999999999996  0.62444  1.0000
  O   O5        1.0  0.6820500000000002  0.2965499999999999  0.62444  1.0000
  O   O6        1.0  0.31795  0.7034499999999999  0.37556  1.0000
  O   O7        1.0  0.31795  0.2965499999999999  0.37556  1.0000
  O   O8        1.0  0.6820500000000002  0.7034499999999999  0.62444  1.0000
  O   O9        1.0  0.25052999999999986  0.76333  0.36721  1.0000
  O   O10       1.0  0.7494699999999997  0.23667  0.63279  1.0000
  O   O11       1.0  0.7494699999999997  0.76333  0.63279  1.0000
  O   O12       1.0  0.74496  0.13040999999999997  0.52152  1.0000
  O   O13       1.0  0.25052999999999986  0.23667  0.36721  1.0000
  O   O14       1.0  0.75053  0.26332999999999995  0.36721  1.0000
  O   O15       1.0  0.24946999999999997  0.7366699999999998  0.63279  1.0000
  O   O16       1.0  0.24946999999999997  0.26332999999999995  0.63279  1.0000
  O   O17       1.0  0.75053  0.7366699999999998  0.36721  1.0000
  O   O18       1.0  0.17725999999999997  0.69003  0.51371  1.0000
  O   O19       1.0  0.82274  0.30996999999999997  0.48629  1.0000
  O   O20       1.0  0.82274  0.69003  0.48629  1.0000
  O   O21       1.0  0.17725999999999997  0.30996999999999997  0.51371  1.0000
  O   O22       1.0  0.6772599999999999  0.19003  0.51371  1.0000
  O   O23       1.0  0.74496  0.8695899999999999  0.52152  1.0000
  O   O24       1.0  0.3227399999999999  0.80997  0.48629  1.0000
  O   O25       1.0  0.3227399999999999  0.19003  0.48629  1.0000
  O   O26       1.0  0.6772599999999999  0.80997  0.51371  1.0000
  O   O27       1.0  0.05164000000000002  0.92688  0.88509  1.0000
  O   O28       1.0  0.94836  0.07312  0.11491  1.0000
  O   O29       1.0  0.94836  0.92688  0.11491  1.0000
  O   O30       1.0  0.05164000000000002  0.07312  0.88509  1.0000
  O   O31       1.0  0.55164  0.4268799999999999  0.88509  1.0000
  O   O32       1.0  0.44835999999999987  0.57312  0.11491  1.0000
  O   O33       1.0  0.44835999999999987  0.4268799999999999  0.11491  1.0000
  O   O34       1.0  0.25504000000000004  0.13040999999999997  0.47848  1.0000
  O   O35       1.0  0.55164  0.57312  0.88509  1.0000
  O   O36       1.0  0.9406200000000001  0.92656  0.98676  1.0000
  O   O37       1.0  0.05938  0.07344  0.01324  1.0000
  O   O38       1.0  0.05938  0.92656  0.01324  1.0000
  O   O39       1.0  0.9406200000000001  0.07344  0.98676  1.0000
  O   O40       1.0  0.44062  0.42655999999999994  0.98676  1.0000
  O   O41       1.0  0.55938  0.57344  0.01324  1.0000
  O   O42       1.0  0.55938  0.42655999999999994  0.01324  1.0000
  O   O43       1.0  0.44062  0.57344  0.98676  1.0000
  O   O44       1.0  0.54975  0.7404799999999998  0.4923  1.0000
  O   O45       1.0  0.75504  0.3695899999999999  0.47848  1.0000
  O   O46       1.0  0.4502900000000001  0.25958  0.50754  1.0000
  O   O47       1.0  0.45024999999999993  0.7404799999999998  0.5077  1.0000
  O   O48       1.0  0.54972  0.25958  0.49245  1.0000
  O   O49       1.0  0.049750000000000016  0.24047999999999997  0.4923  1.0000
  O   O50       1.0  0.95029  0.75958  0.50754  1.0000
  O   O51       1.0  0.9502499999999998  0.24047999999999997  0.5077  1.0000
  O   O52       1.0  0.049719999999999986  0.75958  0.49246  1.0000
  O   O53       1.0  0.12449999999999994  0.81397  0.18699  1.0000
  O   O54       1.0  0.83721  0.09041999999999999  0.88294  1.0000
  O   O55       1.0  0.8754999999999997  0.81398  0.81302  1.0000
  O   O56       1.0  0.24495999999999996  0.6304099999999999  0.52152  1.0000
  O   O57       1.0  0.16279  0.09042999999999997  0.11707  1.0000
  O   O58       1.0  0.6245  0.31398  0.18699  1.0000
  O   O59       1.0  0.33721  0.59043  0.88293  1.0000
  O   O60       1.0  0.3754999999999999  0.31397  0.81301  1.0000
  O   O61       1.0  0.66279  0.59043  0.11707  1.0000
  O   O62       1.0  0.24241000000000001  0.63915  0.73692  1.0000
  O   O63       1.0  0.76755  0.36245  0.25881  1.0000
  O   O64       1.0  0.75759  0.63914  0.26308  1.0000
  O   O65       1.0  0.23244999999999988  0.36245  0.74119  1.0000
  O   O66       1.0  0.7424099999999998  0.13914  0.73692  1.0000
  O   O67       1.0  0.24495999999999996  0.3695899999999999  0.52152  1.0000
  O   O68       1.0  0.26754  0.8624499999999998  0.25882  1.0000
  O   O69       1.0  0.25759  0.13914  0.26308  1.0000
  O   O70       1.0  0.7324499999999996  0.8624499999999998  0.74119  1.0000
  O   O71       1.0  0.33084999999999987  0.6721299999999999  0.77063  1.0000
  O   O72       1.0  0.70655  0.3928499999999999  0.17027000000000003  1.0000
  O   O73       1.0  0.6691499999999998  0.6721299999999999  0.22937  1.0000
  O   O74       1.0  0.29345000000000004  0.3928499999999999  0.82972  1.0000
  O   O75       1.0  0.83085  0.17212  0.77063  1.0000
  O   O76       1.0  0.20655  0.8928499999999999  0.17028  1.0000
  O   O77       1.0  0.16915  0.17213  0.22937  1.0000
  O   O78       1.0  0.75504  0.6304099999999999  0.47848  1.0000
  O   O79       1.0  0.7934499999999999  0.8928499999999999  0.82973  1.0000
  O   O80       1.0  0.18204999999999996  0.79655  0.62444  1.0000
