data_image0
_chemical_formula_structural       O4C2O4C2Cu2H2C2H2C2H2C6H2C4H2C22H6N2C16H2CHOCHOCHOCHOCHOCHOCO2HCO2HCHOCHOCO2HCO2HCHOCHO
_chemical_formula_sum              "O26 C70 Cu2 H32 N2"
_cell_length_a       10.79936
_cell_length_b       14.8409
_cell_length_c       14.66053
_cell_angle_alpha    64.6139
_cell_angle_beta     105.94246
_cell_angle_gamma    102.49998

_symmetry_space_group_name_H-M    'P 1'
_symmetry_Int_Tables_number       1

loop_
  _symmetry_equiv_pos_as_xyz
  'x,y,z'

loop_
  _atom_site_type_symbol
  _atom_site_label
  _atom_site_symmetry_multiplicity
  _atom_site_fract_x
  _atom_site_fract_y
  _atom_site_fract_z
  _atom_site_occupancy
  O   O1        1.0  0.45553999999999994  0.02209  0.33812  1.0000
  O   O2        1.0  0.5444599999999999  0.9779100000000003  0.66188  1.0000
  O   O3        1.0  0.5125099999999999  0.16015000000000004  0.3791799999999999  1.0000
  O   O4        1.0  0.4874899999999999  0.8398500000000002  0.6208199999999999  1.0000
  C   C1        1.0  0.47739  0.11906000000000007  0.3106999999999999  1.0000
  C   C2        1.0  0.52342  0.8808000000000001  0.6891899999999997  1.0000
  O   O5        1.0  0.29116  0.9309700000000003  0.47948  1.0000
  O   O6        1.0  0.70884  0.06903  0.52052  1.0000
  O   O7        1.0  0.34812999999999994  0.06902000000000005  0.5205399999999999  1.0000
  O   O8        1.0  0.6518699999999997  0.93098  0.47946  1.0000
  C   C3        1.0  0.26316  0.99909  0.50201  1.0000
  C   C4        1.0  0.7366899999999998  0.0012300000000000318  0.49742999999999993  1.0000
  Cu  Cu1       1.0  0.46627000000000013  0.9182600000000002  0.47569  1.0000
  Cu  Cu2       1.0  0.53373  0.08174000000000001  0.52431  1.0000
  H   H1        1.0  0.43997999999999987  0.07045000000000005  0.9006499999999997  1.0000
  H   H2        1.0  0.5788100000000002  0.9751800000000003  0.07160999999999998  1.0000
  C   C5        1.0  0.34367  0.9673200000000003  0.82881  1.0000
  C   C6        1.0  0.68373  0.06597  0.15591  1.0000
  H   H3        1.0  0.3902399999999999  0.9040600000000001  0.8897799999999999  1.0000
  H   H4        1.0  0.65266  0.13544000000000006  0.09471999999999997  1.0000
  C   C7        1.0  0.2564000000000001  0.9551200000000001  0.74383  1.0000
  C   C8        1.0  0.76462  0.06677000000000001  0.248  1.0000
  H   H5        1.0  0.23637000000000002  0.8819500000000001  0.73995  1.0000
  H   H6        1.0  0.7958699999999999  0.13753000000000004  0.25692999999999994  1.0000
  C   C9        1.0  0.19337  0.03614000000000001  0.6652  1.0000
  C   C10       1.0  0.8083299999999999  0.9775300000000003  0.3269499999999999  1.0000
  C   C11       1.0  0.21944  0.13114000000000006  0.6722999999999999  1.0000
  C   C12       1.0  0.76779  0.8858200000000002  0.3133099999999999  1.0000
  C   C13       1.0  0.3103099999999999  0.1424400000000001  0.7573799999999998  1.0000
  C   C14       1.0  0.68239  0.88605  0.22135  1.0000
  H   H7        1.0  0.33366  0.21426000000000006  0.76426  1.0000
  H   H8        1.0  0.64819  0.81705  0.20928999999999998  1.0000
  C   C15       1.0  0.37132  0.0609400000000001  0.8351799999999998  1.0000
  C   C16       1.0  0.64248  0.97576  0.14271999999999999  1.0000
  C   C17       1.0  0.96604  0.017470000000000024  0.5755199999999999  1.0000
  C   C18       1.0  0.03364000000000004  0.98218  0.42422  1.0000
  H   H9        1.0  0.93949  0.02849000000000003  0.63574  1.0000
  H   H10       1.0  0.06032000000000001  0.97142  0.36385  1.0000
  C   C19       1.0  0.8702499999999999  0.0013300000000000469  0.4962099999999999  1.0000
  C   C20       1.0  0.1295200000000001  0.9988500000000003  0.50329  1.0000
  C   C21       1.0  0.90379  0.9841100000000003  0.41905999999999993  1.0000
  C   C22       1.0  0.09613000000000001  0.01832  0.57913  1.0000
  C   C23       1.0  0.46005  0.18501  0.19874999999999998  1.0000
  C   C24       1.0  0.5479699999999998  0.81344  0.8005799999999998  1.0000
  C   C25       1.0  0.3675399999999999  0.22357  0.01666  1.0000
  C   C26       1.0  0.6754599999999998  0.76755  0.9751199999999999  1.0000
  C   C27       1.0  0.39613  0.15206000000000006  0.11781  1.0000
  C   C28       1.0  0.63134  0.84223  0.8791899999999998  1.0000
  C   C29       1.0  0.50526  0.28682  0.17274  1.0000
  C   C30       1.0  0.49719  0.71281  0.82578  1.0000
  C   C31       1.0  0.48311  0.35806  0.07029  1.0000
  C   C32       1.0  0.5385400000000001  0.6367500000000001  0.9227  1.0000
  C   C33       1.0  0.40202999999999994  0.3266700000000002  0.9928999999999998  1.0000
  C   C34       1.0  0.6321000000000001  0.6652000000000002  0.9982  1.0000
  C   C35       1.0  0.53605  0.46026000000000006  0.04434999999999999  1.0000
  C   C36       1.0  0.49216999999999994  0.53322  0.94511  1.0000
  C   C37       1.0  0.40455  0.5  0.87128  1.0000
  C   C38       1.0  0.63595  0.4902  0.11406999999999998  1.0000
  C   C39       1.0  0.3602699999999999  0.39874999999999994  0.89323  1.0000
  C   C40       1.0  0.6829899999999998  0.59047  0.09350999999999997  1.0000
  H   H11       1.0  0.4262999999999999  0.6964500000000002  0.7658799999999998  1.0000
  H   H12       1.0  0.55306  0.3102900000000002  0.23501999999999995  1.0000
  H   H13       1.0  0.3212  0.19730000000000003  0.95578  1.0000
  H   H14       1.0  0.74486  0.7912400000000002  0.03132  1.0000
  H   H15       1.0  0.3676299999999999  0.5508000000000001  0.79442  1.0000
  H   H16       1.0  0.68273  0.43576  0.18538999999999997  1.0000
  N   N1        1.0  0.5844499999999999  0.20457000000000009  0.5607899999999999  1.0000
  N   N2        1.0  0.41555  0.79543  0.43921  1.0000
  C   C41       1.0  0.69527  0.27333  0.68871  1.0000
  C   C42       1.0  0.30908  0.72636  0.31104  1.0000
  C   C43       1.0  0.6848199999999998  0.20464000000000002  0.64229  1.0000
  C   C44       1.0  0.31796  0.79595  0.35601  1.0000
  C   C45       1.0  0.51599  0.28719  0.50674  1.0000
  C   C46       1.0  0.48271  0.71216  0.49532  1.0000
  C   C47       1.0  0.54353  0.3687200000000002  0.53948  1.0000
  C   C48       1.0  0.45883999999999997  0.6307600000000002  0.4625599999999999  1.0000
  C   C49       1.0  0.6111199999999998  0.34915  0.64171  1.0000
  C   C50       1.0  0.39332000000000006  0.65032  0.35970999999999986  1.0000
  C   C51       1.0  0.50074  0.4662500000000002  0.4778799999999999  1.0000
  C   C52       1.0  0.50221  0.5331300000000001  0.52476  1.0000
  C   C53       1.0  0.53545  0.49635000000000024  0.63301  1.0000
  C   C54       1.0  0.47068  0.5031300000000002  0.3698799999999999  1.0000
  C   C55       1.0  0.5911  0.40665000000000007  0.6918599999999999  1.0000
  C   C56       1.0  0.41529  0.59303  0.31008  1.0000
  H   H17       1.0  0.5120399999999998  0.53418  0.67361  1.0000
  H   H18       1.0  0.4973299999999998  0.4649  0.33117  1.0000
  C   C57       1.0  0.6094399999999998  0.37036000000000013  0.8055799999999997  1.0000
  H   H19       1.0  0.6295899999999998  0.42400000000000015  0.8414499999999998  1.0000
  O   O9        1.0  0.59471  0.2808800000000003  0.8594699999999998  1.0000
  C   C58       1.0  0.39873999999999993  0.6322  0.19606  1.0000
  H   H20       1.0  0.39482000000000006  0.7118100000000002  0.1496  1.0000
  O   O10       1.0  0.391  0.5762  0.15281  1.0000
  C   C59       1.0  0.59201  0.7126400000000003  0.5816599999999998  1.0000
  H   H21       1.0  0.5746199999999998  0.6958500000000001  0.6567999999999998  1.0000
  O   O11       1.0  0.70349  0.7239100000000003  0.57204  1.0000
  C   C60       1.0  0.39268  0.28031  0.43353  1.0000
  H   H22       1.0  0.30308000000000007  0.25576000000000004  0.4609099999999999  1.0000
  O   O12       1.0  0.38855999999999996  0.30511  0.3421  1.0000
  C   C61       1.0  0.21754000000000007  0.8650500000000002  0.3170599999999999  1.0000
  H   H23       1.0  0.24276  0.94325  0.30397  1.0000
  O   O13       1.0  0.10274000000000005  0.8339500000000003  0.3006499999999999  1.0000
  C   C62       1.0  0.78547  0.13633000000000003  0.6789699999999999  1.0000
  H   H24       1.0  0.76036  0.05810000000000001  0.69241  1.0000
  O   O14       1.0  0.9002  0.16804000000000005  0.6934899999999999  1.0000
  C   C63       1.0  0.80119  0.2724100000000001  0.7790099999999999  1.0000
  O   O15       1.0  0.8256600000000001  0.19327000000000003  0.8519699999999999  1.0000
  O   O16       1.0  0.87136  0.36287000000000025  0.7808199999999998  1.0000
  H   H25       1.0  0.9377299999999998  0.35323000000000027  0.8473999999999998  1.0000
  C   C64       1.0  0.20387000000000008  0.7265000000000004  0.22063999999999995  1.0000
  O   O17       1.0  0.14147000000000004  0.64738  0.22013  1.0000
  O   O18       1.0  0.17689000000000005  0.8164100000000001  0.13617  1.0000
  H   H26       1.0  0.10328000000000008  0.8063100000000002  0.07996  1.0000
  C   C65       1.0  0.15370999999999999  0.21858000000000002  0.59166  1.0000
  H   H27       1.0  0.08275999999999997  0.21137000000000006  0.52593  1.0000
  O   O19       1.0  0.17936000000000005  0.3007900000000002  0.59664  1.0000
  C   C66       1.0  0.8143  0.79032  0.39341999999999994  1.0000
  H   H28       1.0  0.8937999999999999  0.79042  0.45741  1.0000
  O   O20       1.0  0.7625299999999999  0.7096700000000002  0.39027  1.0000
  C   C67       1.0  0.26387  0.37291  0.81095  1.0000
  O   O21       1.0  0.27354999999999996  0.41907000000000005  0.72081  1.0000
  O   O22       1.0  0.15864999999999993  0.29973  0.8353799999999998  1.0000
  H   H29       1.0  0.1001  0.28984000000000015  0.7724799999999998  1.0000
  C   C68       1.0  0.78941  0.61176  0.1734  1.0000
  O   O23       1.0  0.8787699999999999  0.5596900000000002  0.21475999999999998  1.0000
  O   O24       1.0  0.78532  0.6868900000000002  0.20545999999999995  1.0000
  H   H30       1.0  0.86632  0.6954300000000004  0.25723999999999997  1.0000
  C   C69       1.0  0.6718700000000001  0.9482300000000005  0.8667399999999998  1.0000
  H   H31       1.0  0.61061  0.006320000000000032  0.81474  1.0000
  O   O25       1.0  0.7733799999999998  0.9717000000000003  0.9178699999999997  1.0000
  C   C70       1.0  0.35816  0.04519000000000002  0.13296999999999998  1.0000
  H   H32       1.0  0.4137199999999999  0.98669  0.19281  1.0000
  O   O26       1.0  0.26519  0.021379999999999996  0.07498  1.0000
