data_image0
_chemical_formula_structural       C100Cr12H28O52C3H7C3H7C3H7C3H7Cl20
_chemical_formula_sum              "C112 Cr12 H56 O52 Cl20"
_cell_length_a       19.24013
_cell_length_b       10.93633
_cell_length_c       18.72764
_cell_angle_alpha    90.1644
_cell_angle_beta     89.60853
_cell_angle_gamma    90.5503

_space_group_name_H-M_alt    "P 1"
_space_group_IT_number       1

loop_
  _space_group_symop_operation_xyz
  'x, y, z'

loop_
  _atom_site_type_symbol
  _atom_site_label
  _atom_site_symmetry_multiplicity
  _atom_site_fract_x
  _atom_site_fract_y
  _atom_site_fract_z
  _atom_site_occupancy
  C   C1        1.0  0.71063  0.32947  0.63826  1.0000
  C   C2        1.0  0.26805  0.38347000000000003  0.35167  1.0000
  C   C3        1.0  0.23217  0.8835500000000001  0.64906  1.0000
  C   C4        1.0  0.78931  0.8283800000000001  0.36191000000000006  1.0000
  C   C5        1.0  0.4237  0.32755000000000006  0.48185  1.0000
  C   C6        1.0  0.44103999999999993  0.31339  0.5608  1.0000
  C   C7        1.0  0.056  0.8096600000000002  0.4389700000000001  1.0000
  C   C8        1.0  0.07269  0.8213900000000002  0.51731  1.0000
  C   C9        1.0  0.72135  0.80283  0.5547  1.0000
  C   C10       1.0  0.32243  0.92571  0.47365  1.0000
  C   C11       1.0  0.18314  0.41996  0.53016  1.0000
  C   C12       1.0  0.77235  0.30462000000000006  0.44447  1.0000
  C   C13       1.0  0.73022  0.77996  0.48122000000000004  1.0000
  C   C14       1.0  0.31661  0.9035500000000002  0.54759  1.0000
  C   C15       1.0  0.18864  0.3930800000000001  0.45792000000000005  1.0000
  C   C16       1.0  0.76432  0.28085000000000004  0.5171  1.0000
  C   C17       1.0  0.78494  0.83619  0.44206  1.0000
  C   C18       1.0  0.25937  0.9476900000000001  0.58537  1.0000
  C   C19       1.0  0.2414  0.4465700000000001  0.41646  1.0000
  C   C20       1.0  0.71415  0.34173  0.55867  1.0000
  C   C21       1.0  0.8375  0.89651  0.48237  1.0000
  C   C22       1.0  0.22075  0.04086000000000001  0.55461  1.0000
  C   C23       1.0  0.27568  0.55043  0.44450000000000006  1.0000
  C   C24       1.0  0.66339  0.40890000000000004  0.52072  1.0000
  C   C25       1.0  0.83037  0.9079000000000002  0.55623  1.0000
  C   C26       1.0  0.22225  0.05465000000000001  0.481  1.0000
  C   C27       1.0  0.27195  0.5744100000000001  0.51795  1.0000
  C   C28       1.0  0.67016  0.42396  0.4473  1.0000
  C   C29       1.0  0.76635  0.88316  0.58932  1.0000
  C   C30       1.0  0.27068  0.9935800000000001  0.43866000000000005  1.0000
  C   C31       1.0  0.22901  0.5027100000000001  0.56221  1.0000
  C   C32       1.0  0.73188  0.3916700000000001  0.41237  1.0000
  C   C33       1.0  0.5546  0.06012000000000001  0.98203  1.0000
  C   C34       1.0  0.5454  0.06985000000000001  0.055400000000000005  1.0000
  C   C35       1.0  0.05427  0.5597900000000001  0.9818600000000001  1.0000
  C   C36       1.0  0.04499  0.5693  0.0552  1.0000
  C   C37       1.0  0.5127  0.17318  0.08387  1.0000
  C   C38       1.0  0.54105  0.16154  0.93741  1.0000
  C   C39       1.0  0.01262  0.67291  0.0838  1.0000
  C   C40       1.0  0.04104000000000001  0.6615100000000002  0.93736  1.0000
  C   C41       1.0  0.50506  0.27896  0.04149000000000001  1.0000
  C   C42       1.0  0.51607  0.27175  0.9679700000000001  1.0000
  C   C43       1.0  0.005280000000000001  0.7789  0.04153  1.0000
  C   C44       1.0  0.01636  0.7718500000000001  0.9680200000000001  1.0000
  C   C45       1.0  0.56243  0.15001  0.63797  1.0000
  C   C46       1.0  0.46889  0.15743000000000001  0.35237  1.0000
  C   C47       1.0  0.03434  0.65109  0.64554  1.0000
  C   C48       1.0  0.93832  0.64805  0.3611  1.0000
  C   C49       1.0  0.7675  0.03942  0.9751300000000002  1.0000
  C   C50       1.0  0.18588  0.93965  0.04247  1.0000
  C   C51       1.0  0.26826  0.53904  0.975  1.0000
  C   C52       1.0  0.68569  0.4382  0.04275  1.0000
  C   C53       1.0  0.77171  0.01987  0.04762  1.0000
  C   C54       1.0  0.18128  0.9344600000000001  0.9696100000000001  1.0000
  C   C55       1.0  0.27243  0.5196  0.04747  1.0000
  C   C56       1.0  0.68099  0.4328600000000001  0.9698800000000001  1.0000
  C   C57       1.0  0.75501  0.90489  0.07437  1.0000
  C   C58       1.0  0.23955000000000004  0.9040700000000002  0.9279300000000001  1.0000
  C   C59       1.0  0.25498  0.40505000000000013  0.07439000000000001  1.0000
  C   C60       1.0  0.73936  0.40344  0.9280899999999999  1.0000
  C   C61       1.0  0.73354  0.80946  0.02859  1.0000
  C   C62       1.0  0.30302  0.8791400000000003  0.96044  1.0000
  C   C63       1.0  0.23288999999999999  0.30989  0.02872  1.0000
  C   C64       1.0  0.80296  0.3792  0.96051  1.0000
  C   C65       1.0  0.73043  0.8286900000000001  0.9555700000000001  1.0000
  C   C66       1.0  0.30834  0.8885900000000002  0.03411  1.0000
  C   C67       1.0  0.22984  0.32898  0.9556800000000001  1.0000
  C   C68       1.0  0.80834  0.38864000000000004  0.03417  1.0000
  C   C69       1.0  0.74767  0.9437600000000003  0.92903  1.0000
  C   C70       1.0  0.24992999999999999  0.9222600000000001  0.07501  1.0000
  C   C71       1.0  0.24773999999999996  0.44366000000000005  0.92901  1.0000
  C   C72       1.0  0.74987  0.42173000000000005  0.07516  1.0000
  C   C73       1.0  0.74438  0.9601  0.65128  1.0000
  C   C74       1.0  0.27188  0.017100000000000004  0.36053  1.0000
  C   C75       1.0  0.2275  0.5219800000000001  0.64017  1.0000
  C   C76       1.0  0.75517  0.4618500000000001  0.34887  1.0000
  C   C77       1.0  0.7278  0.37536  0.8536700000000003  1.0000
  C   C78       1.0  0.27127  0.3759700000000001  0.14708000000000002  1.0000
  C   C79       1.0  0.22787  0.8755500000000002  0.8536000000000002  1.0000
  C   C80       1.0  0.77134  0.87581  0.14702  1.0000
  C   C81       1.0  0.56014  0.15364000000000003  0.8614700000000001  1.0000
  C   C82       1.0  0.47153999999999996  0.15864  0.14936000000000002  1.0000
  C   C83       1.0  0.060149999999999995  0.65364  0.86146  1.0000
  C   C84       1.0  0.9714999999999999  0.6586  0.14932  1.0000
  C   C85       1.0  0.74082  0.9728100000000001  0.8546400000000001  1.0000
  C   C86       1.0  0.25895  0.97023  0.14622  1.0000
  C   C87       1.0  0.24082000000000003  0.47279  0.85463  1.0000
  C   C88       1.0  0.75892  0.4700800000000001  0.14629  1.0000
  C   C89       1.0  0.51011  0.17773000000000003  0.41608  1.0000
  C   C90       1.0  0.54446  0.15544  0.56146  1.0000
  C   C91       1.0  0.963  0.6391800000000001  0.43343  1.0000
  C   C92       1.0  0.004870000000000001  0.6416100000000001  0.5749  1.0000
  C   C93       1.0  0.48939  0.26363000000000003  0.46643  1.0000
  C   C94       1.0  0.50734  0.25471  0.53679  1.0000
  C   C95       1.0  0.99221  0.7418400000000003  0.4628300000000001  1.0000
  C   C96       1.0  0.00918  0.74604  0.5333000000000001  1.0000
  C   C97       1.0  0.57159  0.07364  0.50833  1.0000
  C   C98       1.0  0.56549  0.10311  0.4344  1.0000
  C   C99       1.0  0.98455  0.52383  0.54353  1.0000
  C   C100      1.0  0.9600299999999999  0.5265200000000001  0.47323000000000004  1.0000
  Cr  Cr1       1.0  0.77195  0.16948000000000002  0.7501000000000001  1.0000
  Cr  Cr2       1.0  0.22805000000000003  0.16948000000000002  0.24990000000000004  1.0000
  Cr  Cr3       1.0  0.27194999999999997  0.6694800000000001  0.7501000000000001  1.0000
  Cr  Cr4       1.0  0.72805  0.6694800000000001  0.24990000000000004  1.0000
  Cr  Cr5       1.0  0.61493  0.32334  0.74917  1.0000
  Cr  Cr6       1.0  0.38507  0.32334  0.25083  1.0000
  Cr  Cr7       1.0  0.11492999999999998  0.82334  0.74917  1.0000
  Cr  Cr8       1.0  0.88507  0.82334  0.25083  1.0000
  Cr  Cr9       1.0  0.61659  0.01062  0.75061  1.0000
  Cr  Cr10      1.0  0.38341000000000003  0.010620000000000001  0.24939  1.0000
  Cr  Cr11      1.0  0.11659000000000001  0.51062  0.75061  1.0000
  Cr  Cr12      1.0  0.8834099999999999  0.51062  0.24939  1.0000
  H   H1        1.0  0.77956  0.12968  0.9548400000000001  1.0000
  H   H2        1.0  0.14017  0.96533  0.07289000000000001  1.0000
  H   H3        1.0  0.28088  0.62903  0.9546400000000002  1.0000
  H   H4        1.0  0.63994  0.46333  0.07327  1.0000
  H   H5        1.0  0.78912  0.09313  0.08247  1.0000
  H   H6        1.0  0.13114  0.9518200000000001  0.9463  1.0000
  H   H7        1.0  0.29039  0.59262  0.08219  1.0000
  H   H8        1.0  0.63074  0.44948  0.9466100000000001  1.0000
  H   H9        1.0  0.72216  0.71877  0.04893  1.0000
  H   H10       1.0  0.34793  0.85231  0.92913  1.0000
  H   H11       1.0  0.22095  0.21947000000000005  0.049150000000000006  1.0000
  H   H12       1.0  0.84796  0.35301  0.92912  1.0000
  H   H13       1.0  0.71452  0.75512  0.92024  1.0000
  H   H14       1.0  0.35866  0.87568  0.05840000000000001  1.0000
  H   H15       1.0  0.21343  0.25562000000000007  0.92043  1.0000
  H   H16       1.0  0.85876  0.37634  0.05837  1.0000
  H   H17       1.0  0.04479  0.897  0.41139  1.0000
  H   H18       1.0  0.12233  0.7793900000000001  0.53436  1.0000
  H   H19       1.0  0.3764  0.27821  0.46304  1.0000
  H   H20       1.0  0.44942  0.40099  0.58986  1.0000
  H   H21       1.0  0.67489  0.77032  0.58186  1.0000
  H   H22       1.0  0.36583  0.8890500000000001  0.44389  1.0000
  H   H23       1.0  0.14436  0.3729700000000001  0.56129  1.0000
  H   H24       1.0  0.81299  0.26155  0.41472  1.0000
  H   H25       1.0  0.87087  0.95551  0.58533  1.0000
  H   H26       1.0  0.18564  0.11255  0.45688  1.0000
  H   H27       1.0  0.3021  0.64854  0.54021  1.0000
  H   H28       1.0  0.63006  0.4724400000000001  0.41916  1.0000
  O   O1        1.0  0.78751  0.04261000000000001  0.67041  1.0000
  O   O2        1.0  0.21249  0.04261000000000001  0.32959  1.0000
  O   O3        1.0  0.28751  0.54261  0.67041  1.0000
  O   O4        1.0  0.71249  0.54261  0.32959  1.0000
  O   O5        1.0  0.55645  0.25289  0.82379  1.0000
  O   O6        1.0  0.44355000000000006  0.25289  0.17621  1.0000
  O   O7        1.0  0.05645000000000001  0.7528900000000002  0.82379  1.0000
  O   O8        1.0  0.9435499999999999  0.7528900000000002  0.17621  1.0000
  O   O9        1.0  0.54575  0.05107  0.83056  1.0000
  O   O10       1.0  0.45424999999999993  0.05107  0.16944  1.0000
  O   O11       1.0  0.04575  0.55107  0.83056  1.0000
  O   O12       1.0  0.9542500000000002  0.55107  0.16944  1.0000
  O   O13       1.0  0.68121  0.95915  0.82532  1.0000
  O   O14       1.0  0.31879  0.95915  0.17468000000000006  1.0000
  O   O15       1.0  0.18121  0.45915  0.82532  1.0000
  O   O16       1.0  0.81879  0.45915  0.17468000000000006  1.0000
  O   O17       1.0  0.6678199999999999  0.16781000000000004  0.7499600000000001  1.0000
  O   O18       1.0  0.33218  0.16781000000000004  0.25004  1.0000
  O   O19       1.0  0.16782  0.66781  0.7499600000000001  1.0000
  O   O20       1.0  0.83218  0.66781  0.25004  1.0000
  O   O21       1.0  0.76567  0.29209000000000007  0.67509  1.0000
  O   O22       1.0  0.23433  0.29209000000000007  0.32491  1.0000
  O   O23       1.0  0.26567  0.79209  0.67509  1.0000
  O   O24       1.0  0.73433  0.79209  0.32491  1.0000
  O   O25       1.0  0.67022  0.40902000000000005  0.66856  1.0000
  O   O26       1.0  0.32978  0.40902000000000005  0.33144  1.0000
  O   O27       1.0  0.17022  0.90902  0.66856  1.0000
  O   O28       1.0  0.82978  0.90902  0.33144  1.0000
  O   O29       1.0  0.55658  0.25159000000000004  0.67498  1.0000
  O   O30       1.0  0.44342  0.25159000000000004  0.32502  1.0000
  O   O31       1.0  0.05658  0.75159  0.67498  1.0000
  O   O32       1.0  0.94342  0.75159  0.32502  1.0000
  O   O33       1.0  0.54589  0.04967  0.67003  1.0000
  O   O34       1.0  0.45411  0.04967  0.32997  1.0000
  O   O35       1.0  0.04589  0.54967  0.67003  1.0000
  O   O36       1.0  0.95411  0.54967  0.32997  1.0000
  O   O37       1.0  0.68134  0.9578600000000002  0.6765  1.0000
  O   O38       1.0  0.31866  0.9578600000000002  0.3235  1.0000
  O   O39       1.0  0.18134  0.45786  0.6765  1.0000
  O   O40       1.0  0.81866  0.45786  0.3235  1.0000
  O   O41       1.0  0.78738  0.04401000000000001  0.83094  1.0000
  O   O42       1.0  0.21262  0.04401000000000001  0.16906  1.0000
  O   O43       1.0  0.28738  0.54401  0.83094  1.0000
  O   O44       1.0  0.71262  0.54401  0.16906  1.0000
  O   O45       1.0  0.76554  0.29339  0.82391  1.0000
  O   O46       1.0  0.23446  0.29339  0.17609  1.0000
  O   O47       1.0  0.26554  0.7933900000000002  0.82391  1.0000
  O   O48       1.0  0.73446  0.7933900000000002  0.17609  1.0000
  O   O49       1.0  0.67009  0.41041  0.82909  1.0000
  O   O50       1.0  0.32991  0.41041  0.17091  1.0000
  O   O51       1.0  0.17009  0.91041  0.82909  1.0000
  O   O52       1.0  0.82991  0.91041  0.17091  1.0000
  C   C101      1.0  0.57856  0.9398800000000003  0.52369  1.0000
  C   C102      1.0  0.51692  0.8693300000000003  0.49071  1.0000
  C   C103      1.0  0.50859  0.73885  0.51773  1.0000
  H   H29       1.0  0.45522999999999997  0.7064700000000002  0.5062600000000002  1.0000
  H   H30       1.0  0.54181  0.6760900000000002  0.48774  1.0000
  H   H31       1.0  0.51883  0.73202  0.57585  1.0000
  H   H32       1.0  0.46924  0.9214300000000002  0.50203  1.0000
  H   H33       1.0  0.52181  0.8646500000000001  0.4318000000000001  1.0000
  H   H34       1.0  0.62588  0.91164  0.49749  1.0000
  H   H35       1.0  0.58313  0.9189800000000001  0.58091  1.0000
  C   C104      1.0  0.61114  0.04548000000000001  0.37666  1.0000
  C   C105      1.0  0.6342  0.13946  0.31991  1.0000
  C   C106      1.0  0.69468  0.09322000000000001  0.27469  1.0000
  H   H36       1.0  0.74167  0.08425  0.3082  1.0000
  H   H37       1.0  0.6812  0.00348  0.25038  1.0000
  H   H38       1.0  0.70641  0.15947  0.23131000000000002  1.0000
  H   H39       1.0  0.59041  0.15939  0.28359  1.0000
  H   H40       1.0  0.65016  0.22619  0.34596000000000005  1.0000
  H   H41       1.0  0.65874  0.00813  0.40125  1.0000
  H   H42       1.0  0.58315  0.9694600000000001  0.34963  1.0000
  C   C107      1.0  0.9873999999999999  0.40187000000000006  0.58811  1.0000
  C   C108      1.0  0.98655  0.26391  0.5687300000000001  1.0000
  C   C109      1.0  0.9781900000000001  0.18861000000000003  0.63762  1.0000
  H   H43       1.0  0.93351  0.2212  0.67013  1.0000
  H   H44       1.0  0.96688  0.09158  0.6252  1.0000
  H   H45       1.0  0.026179999999999995  0.19487  0.6701100000000001  1.0000
  H   H46       1.0  0.94605  0.23198  0.53359  1.0000
  H   H47       1.0  0.03604  0.23679000000000006  0.5422  1.0000
  H   H48       1.0  0.041740000000000006  0.39654000000000006  0.60466  1.0000
  H   H49       1.0  0.9514499999999999  0.4159900000000001  0.63412  1.0000
  C   C110      1.0  0.92354  0.41491000000000006  0.44417000000000006  1.0000
  C   C111      1.0  0.97008  0.32969  0.39786  1.0000
  C   C112      1.0  0.93564  0.26054000000000005  0.33629  1.0000
  H   H50       1.0  0.8979  0.19128  0.35546000000000005  1.0000
  H   H51       1.0  0.9116300000000002  0.32271  0.29764  1.0000
  H   H52       1.0  0.9763999999999999  0.20969  0.30658  1.0000
  H   H53       1.0  0.012939999999999998  0.38403  0.37411  1.0000
  H   H54       1.0  0.9932300000000001  0.25867000000000007  0.43100000000000005  1.0000
  H   H55       1.0  0.89502  0.3687000000000001  0.48671  1.0000
  H   H56       1.0  0.8803000000000001  0.4497700000000001  0.4164300000000001  1.0000
  Cl  Cl1       1.0  0.4350800000000001  0.4793000000000001  0.45126000000000005  1.0000
  Cl  Cl2       1.0  0.38335  0.20922000000000002  0.60539  1.0000
  Cl  Cl3       1.0  0.11708  0.71567  0.39228  1.0000
  Cl  Cl4       1.0  0.05906  0.97184  0.54777  1.0000
  Cl  Cl5       1.0  0.66287  0.7033000000000001  0.4388000000000001  1.0000
  Cl  Cl6       1.0  0.38301  0.83493  0.59644  1.0000
  Cl  Cl7       1.0  0.12611  0.29809  0.42051  1.0000
  Cl  Cl8       1.0  0.8218  0.18076000000000003  0.553  1.0000
  Cl  Cl9       1.0  0.90785  0.9790400000000001  0.44473000000000007  1.0000
  Cl  Cl10      1.0  0.17567  0.14697  0.60813  1.0000
  Cl  Cl11      1.0  0.31895  0.65581  0.38826000000000005  1.0000
  Cl  Cl12      1.0  0.59377  0.48792  0.56063  1.0000
  Cl  Cl13      1.0  0.5750200000000001  0.91351  0.9481900000000001  1.0000
  Cl  Cl14      1.0  0.57509  0.9508600000000001  0.11154000000000001  1.0000
  Cl  Cl15      1.0  0.07445  0.41311000000000003  0.94788  1.0000
  Cl  Cl16      1.0  0.07415  0.44951  0.11109000000000001  1.0000
  Cl  Cl17      1.0  0.48157000000000005  0.42288  0.07834  1.0000
  Cl  Cl18      1.0  0.48874  0.39837000000000006  0.9161100000000001  1.0000
  Cl  Cl19      1.0  0.98205  0.9228700000000002  0.07852  1.0000
  Cl  Cl20      1.0  0.9894399999999999  0.89891  0.91629  1.0000
