data_image0
_chemical_formula_structural       C72Cr6H36O32
_chemical_formula_sum              "C72 Cr6 H36 O32"
_cell_length_a       11.04068
_cell_length_b       11.0127
_cell_length_c       18.87374
_cell_angle_alpha    90.10658
_cell_angle_beta     90.01316
_cell_angle_gamma    119.80272

_space_group_name_H-M_alt    "P 1"
_space_group_IT_number       1

loop_
  _space_group_symop_operation_xyz
  'x, y, z'

loop_
  _atom_site_type_symbol
  _atom_site_label
  _atom_site_symmetry_multiplicity
  _atom_site_fract_x
  _atom_site_fract_y
  _atom_site_fract_z
  _atom_site_occupancy
  C   C1        1.0  0.51997  0.45958  0.14752000000000004  1.0000
  C   C2        1.0  0.9843600000000001  0.42255  0.54117  1.0000
  C   C3        1.0  0.46924  0.06901  0.5444600000000002  1.0000
  C   C4        1.0  0.60119  0.54463  0.54311  1.0000
  C   C5        1.0  0.6872200000000003  0.8964100000000005  0.5468700000000002  1.0000
  C   C6        1.0  0.15719999999999995  0.80999  0.53999  1.0000
  C   C7        1.0  0.21365  0.30962  0.5466  1.0000
  C   C8        1.0  0.14558000000000001  0.75866  0.39621000000000006  1.0000
  C   C9        1.0  0.61009  0.86213  0.40589000000000003  1.0000
  C   C10       1.0  0.25191  0.38743  0.40573000000000004  1.0000
  C   C11       1.0  0.7563200000000001  0.85589  0.49857000000000007  1.0000
  C   C12       1.0  0.54036  0.060039999999999996  0.14758  1.0000
  C   C13       1.0  0.16970000000000005  0.9124900000000001  0.49193  1.0000
  C   C14       1.0  0.10363999999999997  0.23970999999999998  0.49814  1.0000
  C   C15       1.0  0.16977  0.88923  0.41953  1.0000
  C   C16       1.0  0.71794  0.83879  0.42688  1.0000
  C   C17       1.0  0.12301  0.27786  0.42722  1.0000
  C   C18       1.0  0.52008  0.45691  0.35357  1.0000
  C   C19       1.0  0.54414  0.06428  0.35387  1.0000
  C   C20       1.0  0.9395999999999999  0.4819300000000001  0.35277  1.0000
  C   C21       1.0  0.45082  0.51779  0.6445  1.0000
  C   C22       1.0  0.12204  0.57849  0.6383100000000002  1.0000
  C   C23       1.0  0.9397499999999999  0.47992  0.14751  1.0000
  C   C24       1.0  0.4826900000000001  0.9339500000000001  0.6447800000000001  1.0000
  C   C25       1.0  0.49232000000000004  0.9721900000000001  0.9293000000000001  1.0000
  C   C26       1.0  0.027639999999999984  0.52027  0.9291900000000001  1.0000
  C   C27       1.0  0.47977  0.50733  0.9291700000000002  1.0000
  C   C28       1.0  0.004540000000000027  0.49710000000000004  0.07726  1.0000
  C   C29       1.0  0.4927  0.99467  0.07739000000000001  1.0000
  C   C30       1.0  0.50253  0.50708  0.07726  1.0000
  C   C31       1.0  0.40801  0.019870000000000002  0.96124  1.0000
  C   C32       1.0  0.97927  0.38799  0.96069  1.0000
  C   C33       1.0  0.6115  0.59083  0.96098  1.0000
  C   C34       1.0  0.45403  0.52101  0.85434  1.0000
  C   C35       1.0  0.98194  0.37917  0.035530000000000006  1.0000
  C   C36       1.0  0.3967399999999999  0.01663  0.03607  1.0000
  C   C37       1.0  0.62003  0.60232  0.035830000000000015  1.0000
  C   C38       1.0  0.57044  0.9425  0.04475000000000001  1.0000
  C   C39       1.0  0.057319999999999996  0.62725  0.04503  1.0000
  C   C40       1.0  0.37293  0.42979  0.04470000000000001  1.0000
  C   C41       1.0  0.07195  0.63912  0.9724100000000002  1.0000
  C   C42       1.0  0.5675099999999998  0.9281699999999999  0.9721200000000001  1.0000
  C   C43       1.0  0.36123  0.43273  0.9721  1.0000
  C   C44       1.0  0.33289  0.06848  0.9207500000000001  1.0000
  C   C45       1.0  0.06689000000000003  0.54595  0.8543700000000001  1.0000
  C   C46       1.0  0.93054  0.2647  0.9197300000000003  1.0000
  C   C47       1.0  0.73452  0.66496  0.92033  1.0000
  C   C48       1.0  0.9607599999999998  0.25242  0.06545  1.0000
  C   C49       1.0  0.29091  0.03683  0.06642000000000002  1.0000
  C   C50       1.0  0.7461  0.70774  0.06605  1.0000
  C   C51       1.0  0.23625  0.09686  0.95273  1.0000
  C   C52       1.0  0.90142  0.13914  0.9512500000000002  1.0000
  C   C53       1.0  0.85949  0.76106  0.9521700000000001  1.0000
  C   C54       1.0  0.91827  0.13381  0.02380000000000001  1.0000
  C   C55       1.0  0.21437  0.07935  0.02526  1.0000
  C   C56       1.0  0.4788999999999999  0.9331499999999999  0.8543800000000001  1.0000
  C   C57       1.0  0.8645  0.78332  0.02472  1.0000
  C   C58       1.0  0.5142800000000001  0.9813000000000001  0.5713100000000001  1.0000
  C   C59       1.0  0.07706000000000005  0.55758  0.56439  1.0000
  C   C60       1.0  0.4678899999999999  0.48880999999999997  0.5707100000000003  1.0000
  C   C61       1.0  0.005999999999999973  0.50709  0.4213900000000001  1.0000
  C   C62       1.0  0.51055  0.014330000000000002  0.42567000000000005  1.0000
  C   C63       1.0  0.50343  0.49404999999999993  0.42478000000000005  1.0000
  C   C64       1.0  0.58501  0.9318300000000002  0.52509  1.0000
  C   C65       1.0  0.11529999999999997  0.67234  0.51724  1.0000
  C   C66       1.0  0.3487  0.4148  0.52462  1.0000
  C   C67       1.0  0.47517  0.09181  0.47209  1.0000
  C   C68       1.0  0.09489999999999998  0.64538  0.44413  1.0000
  C   C69       1.0  0.56118  0.92927  0.45215000000000005  1.0000
  C   C70       1.0  0.36826  0.43957  0.4516800000000001  1.0000
  C   C71       1.0  0.9441  0.39872  0.47091  1.0000
  C   C72       1.0  0.61777  0.53784  0.47085000000000005  1.0000
  Cr  Cr1       1.0  0.76855  0.54132  0.25066000000000005  1.0000
  Cr  Cr2       1.0  0.45868  0.22723  0.25066000000000005  1.0000
  Cr  Cr3       1.0  0.77277  0.23145000000000002  0.25066000000000005  1.0000
  Cr  Cr4       1.0  0.5413200000000001  0.76855  0.74934  1.0000
  Cr  Cr5       1.0  0.22723  0.45868  0.74934  1.0000
  Cr  Cr6       1.0  0.23145  0.77277  0.74934  1.0000
  H   H1        1.0  0.3488  0.08649  0.8643900000000001  1.0000
  H   H2        1.0  0.89768  0.03727  0.04845000000000001  1.0000
  H   H3        1.0  0.13832  0.09944  0.05025  1.0000
  H   H4        1.0  0.9605999999999999  0.85904  0.04961  1.0000
  H   H5        1.0  0.44902  0.16822  0.45220000000000005  1.0000
  H   H6        1.0  0.86394  0.29458  0.45524000000000003  1.0000
  H   H7        1.0  0.7206  0.56703  0.4508300000000001  1.0000
  H   H8        1.0  0.93933  0.33568  0.5778900000000001  1.0000
  H   H9        1.0  0.43023  0.11987  0.57942  1.0000
  H   H10       1.0  0.69152  0.58944  0.5776800000000001  1.0000
  H   H11       1.0  0.6382  0.91756  0.07536  1.0000
  H   H12       1.0  0.9130699999999999  0.2634  0.86332  1.0000
  H   H13       1.0  0.08264  0.71988  0.07594000000000001  1.0000
  H   H14       1.0  0.28062  0.36249  0.07535000000000003  1.0000
  H   H15       1.0  0.11870000000000007  0.74326  0.95011  1.0000
  H   H16       1.0  0.6252900000000001  0.88185  0.9494900000000001  1.0000
  H   H17       1.0  0.25741  0.37546  0.9495800000000002  1.0000
  H   H18       1.0  0.7313  0.91484  0.5991700000000001  1.0000
  H   H19       1.0  0.1698  0.84027  0.59443  1.0000
  H   H20       1.0  0.19199999999999998  0.26476  0.5986300000000002  1.0000
  H   H21       1.0  0.1504399999999999  0.74229  0.33993000000000007  1.0000
  H   H22       1.0  0.5771  0.8439700000000001  0.35096  1.0000
  H   H23       1.0  0.73608  0.64868  0.86393  1.0000
  H   H24       1.0  0.26487  0.42049  0.3508900000000001  1.0000
  H   H25       1.0  0.89422  0.79699  0.48577  1.0000
  H   H26       1.0  0.17796  0.03702  0.567  1.0000
  H   H27       1.0  0.9750999999999999  0.12182  0.57128  1.0000
  H   H28       1.0  0.18188999999999997  0.95932  0.32384  1.0000
  H   H29       1.0  0.7563099999999999  0.80732  0.32992  1.0000
  H   H30       1.0  0.04829000000000002  0.23929  0.33143000000000006  1.0000
  H   H31       1.0  0.9819500000000001  0.24364  0.12044  1.0000
  H   H32       1.0  0.26129  0.015009999999999999  0.1214  1.0000
  H   H33       1.0  0.75452  0.73796  0.12102000000000002  1.0000
  H   H34       1.0  0.17697999999999994  0.13083  0.921  1.0000
  H   H35       1.0  0.86743  0.04621  0.91916  1.0000
  H   H36       1.0  0.95219  0.81967  0.9203100000000001  1.0000
  O   O1        1.0  0.91096  0.57241  0.17101  1.0000
  O   O2        1.0  0.52853  0.63975  0.8244  1.0000
  O   O3        1.0  0.11121999999999993  0.47146999999999994  0.8244  1.0000
  O   O4        1.0  0.36025000000000007  0.8887800000000001  0.8244  1.0000
  O   O5        1.0  0.9093299999999999  0.5724  0.33154  1.0000
  O   O6        1.0  0.4276  0.33693  0.33154  1.0000
  O   O7        1.0  0.66307  0.09067  0.33154  1.0000
  O   O8        1.0  0.5724000000000001  0.9093300000000001  0.6684600000000003  1.0000
  O   O9        1.0  0.33692999999999995  0.4275999999999999  0.6684600000000003  1.0000
  O   O10       1.0  0.09067  0.66307  0.6684600000000003  1.0000
  O   O11       1.0  0.6382399999999999  0.52852  0.32441  1.0000
  O   O12       1.0  0.42759  0.33855  0.17101  1.0000
  O   O13       1.0  0.47148  0.10972000000000001  0.32441  1.0000
  O   O14       1.0  0.89028  0.36176  0.32441  1.0000
  O   O15       1.0  0.52852  0.63824  0.67559  1.0000
  O   O16       1.0  0.10972000000000004  0.47148  0.67559  1.0000
  O   O17       1.0  0.36175999999999997  0.8902799999999998  0.67559  1.0000
  O   O18       1.0  0.66667  0.33333  0.2506300000000001  1.0000
  O   O19       1.0  0.33333  0.66667  0.7493700000000002  1.0000
  O   O20       1.0  0.86228  0.83581  0.5239900000000001  1.0000
  O   O21       1.0  0.18780999999999998  0.03896  0.5147300000000002  1.0000
  O   O22       1.0  0.97468  0.13454  0.51931  1.0000
  O   O23       1.0  0.66145  0.08904  0.17101  1.0000
  O   O24       1.0  0.18991999999999992  0.9942699999999999  0.37306  1.0000
  O   O25       1.0  0.79069  0.80579  0.37827000000000005  1.0000
  O   O26       1.0  0.015050000000000016  0.20462  0.38004  1.0000
  O   O27       1.0  0.57241  0.91096  0.8289900000000001  1.0000
  O   O28       1.0  0.33854999999999996  0.42758999999999997  0.8289900000000001  1.0000
  O   O29       1.0  0.08904000000000001  0.66145  0.8289900000000001  1.0000
  O   O30       1.0  0.6397500000000002  0.52853  0.1756  1.0000
  O   O31       1.0  0.47147  0.11121999999999999  0.1756  1.0000
  O   O32       1.0  0.8887800000000001  0.36025  0.1756  1.0000
