data_image0
_chemical_formula_structural       O4C2O4C2O2V2C2H4C26H6C8O4C2O4C2O2V2NHCH3NHCH3NHCH3NHCH3OHOH
_chemical_formula_sum              "O22 C48 V4 H28 N4"
_cell_length_a       20.87385
_cell_length_b       7.1269
_cell_length_c       14.03361
_cell_angle_alpha    89.96433000000002
_cell_angle_beta     98.01926
_cell_angle_gamma    90.08034

_symmetry_space_group_name_H-M    'P 1'
_symmetry_Int_Tables_number       1

loop_
  _symmetry_equiv_pos_as_xyz
  'x,y,z'

loop_
  _atom_site_type_symbol
  _atom_site_label
  _atom_site_symmetry_multiplicity
  _atom_site_fract_x
  _atom_site_fract_y
  _atom_site_fract_z
  _atom_site_occupancy
  O   O1        1.0  0.44713  0.50714  0.59735  1.0000
  O   O2        1.0  0.5528700000000001  0.007139999999999999  0.40265  1.0000
  O   O3        1.0  0.57891  0.18128  0.58699  1.0000
  O   O4        1.0  0.42109  0.6812799999999998  0.41301  1.0000
  C   C1        1.0  0.6045300000000001  0.34458  0.60728  1.0000
  C   C2        1.0  0.39551  0.84443  0.3926  1.0000
  O   O5        1.0  0.44923  0.17786  0.60864  1.0000
  O   O6        1.0  0.5507700000000001  0.67786  0.39136  1.0000
  O   O7        1.0  0.42226000000000014  0.0007699999999999999  0.42445  1.0000
  O   O8        1.0  0.5777400000000001  0.50077  0.5755499999999999  1.0000
  C   C3        1.0  0.4327  0.34601  0.63458  1.0000
  C   C4        1.0  0.56726  0.84647  0.36546  1.0000
  O   O9        1.0  0.49131  0.33698  0.43955  1.0000
  O   O10       1.0  0.5086900000000001  0.8369799999999998  0.56045  1.0000
  V   V1        1.0  0.50161  0.06476  0.51121  1.0000
  V   V2        1.0  0.49839  0.56476  0.48879  1.0000
  C   C5        1.0  0.62025  0.90505  0.12323  1.0000
  C   C6        1.0  0.3801000000000001  0.33386  0.87888  1.0000
  H   H1        1.0  0.5290500000000001  0.9119199999999997  0.17700999999999995  1.0000
  H   H2        1.0  0.47141  0.32211  0.8255799999999999  1.0000
  H   H3        1.0  0.5970100000000002  0.92929  0.05042  1.0000
  H   H4        1.0  0.4034700000000001  0.3249  0.95259  1.0000
  C   C7        1.0  0.6080700000000001  0.85713  0.28944  1.0000
  C   C8        1.0  0.39198  0.35182  0.71093  1.0000
  C   C9        1.0  0.92325  0.85185  0.30828  1.0000
  C   C10       1.0  0.07727  0.34119999999999995  0.6920799999999999  1.0000
  C   C11       1.0  0.8856000000000002  0.87252  0.38267  1.0000
  C   C12       1.0  0.11472000000000002  0.30403  0.61969  1.0000
  C   C13       1.0  0.8180200000000001  0.8933  0.36354  1.0000
  C   C14       1.0  0.18246  0.29024  0.63956  1.0000
  C   C15       1.0  0.78574  0.87366  0.26741  1.0000
  C   C16       1.0  0.21449000000000004  0.3312  0.73403  1.0000
  C   C17       1.0  0.8242000000000002  0.8676699999999998  0.19149  1.0000
  C   C18       1.0  0.17589999999999997  0.3529699999999999  0.8092299999999998  1.0000
  C   C19       1.0  0.71677  0.86855  0.24326999999999993  1.0000
  C   C20       1.0  0.28337000000000007  0.3433  0.7576699999999997  1.0000
  C   C21       1.0  0.6880600000000001  0.88665  0.14526  1.0000
  C   C22       1.0  0.31213  0.34364  0.85609  1.0000
  C   C23       1.0  0.72697  0.88483  0.07087  1.0000
  C   C24       1.0  0.27307000000000003  0.35461  0.93008  1.0000
  C   C25       1.0  0.79418  0.87102  0.09512999999999998  1.0000
  C   C26       1.0  0.20589000000000002  0.36615  0.9053599999999999  1.0000
  C   C27       1.0  0.67491  0.83852  0.3128  1.0000
  C   C28       1.0  0.32494  0.36238999999999993  0.68685  1.0000
  C   C29       1.0  0.58089  0.89479  0.19519  1.0000
  C   C30       1.0  0.4194300000000001  0.33333  0.80667  1.0000
  C   C31       1.0  0.8925800000000002  0.85996  0.21259999999999996  1.0000
  C   C32       1.0  0.10752  0.35847999999999997  0.78765  1.0000
  H   H5        1.0  0.6924600000000002  0.79454  0.3852  1.0000
  H   H6        1.0  0.30691  0.39091  0.61253  1.0000
  H   H7        1.0  0.90897  0.8821199999999999  0.45631  1.0000
  H   H8        1.0  0.09046  0.28075  0.54722  1.0000
  H   H9        1.0  0.8235  0.862  0.03778  1.0000
  H   H10       1.0  0.17667  0.38522  0.9623  1.0000
  C   C33       1.0  0.16649  0.85696  0.16852999999999999  1.0000
  C   C34       1.0  0.8337700000000001  0.35756  0.8308  1.0000
  C   C35       1.0  0.21889000000000003  0.85449  0.21965999999999994  1.0000
  C   C36       1.0  0.7814300000000001  0.35581  0.7794999999999999  1.0000
  C   C37       1.0  0.28068  0.85308  0.27957  1.0000
  C   C38       1.0  0.7195900000000001  0.35422  0.7197299999999998  1.0000
  C   C39       1.0  0.33308000000000004  0.85089  0.3307  1.0000
  C   C40       1.0  0.66709  0.35151  0.66886  1.0000
  O   O11       1.0  0.9223000000000002  0.20224  0.92435  1.0000
  O   O12       1.0  0.0777  0.70224  0.07565  1.0000
  O   O13       1.0  0.050780000000000006  0.53513  0.89135  1.0000
  O   O14       1.0  0.94922  0.03513  0.10864999999999997  1.0000
  C   C41       1.0  0.06718  0.36811999999999995  0.8651  1.0000
  C   C42       1.0  0.93281  0.86783  0.13488  1.0000
  O   O15       1.0  0.9211000000000003  0.53156  0.9129899999999999  1.0000
  O   O16       1.0  0.0789  0.03156  0.08701  1.0000
  O   O17       1.0  0.9471200000000001  0.70847  0.09736999999999997  1.0000
  O   O18       1.0  0.05287999999999999  0.20847  0.9026299999999999  1.0000
  C   C43       1.0  0.89601  0.36355  0.8931099999999997  1.0000
  C   C44       1.0  0.10409  0.86356  0.10663  1.0000
  O   O19       1.0  0.008710000000000002  0.3758  0.0604  1.0000
  O   O20       1.0  0.9912900000000002  0.8758  0.9396  1.0000
  V   V3        1.0  0.99838  0.64808  0.9887899999999997  1.0000
  V   V4        1.0  0.0016200000000000001  0.14808  0.01121  1.0000
  N   N1        1.0  0.6972900000000001  0.8858  0.9722999999999998  1.0000
  H   H11       1.0  0.6631000000000001  0.78228  0.95479  1.0000
  C   C45       1.0  0.73531  0.9290699999999997  0.89637  1.0000
  H   H12       1.0  0.7024399999999998  0.95591  0.8284899999999997  1.0000
  H   H13       1.0  0.76706  0.80878  0.8845  1.0000
  H   H14       1.0  0.7646900000000001  0.05726  0.91467  1.0000
  N   N2        1.0  0.30245  0.36549  0.0285  1.0000
  H   H15       1.0  0.33303000000000005  0.4784  0.04436  1.0000
  C   C46       1.0  0.26574999999999993  0.31292  0.10466999999999997  1.0000
  H   H16       1.0  0.29938  0.29152999999999996  0.17235999999999996  1.0000
  H   H17       1.0  0.23933  0.17938  0.08660999999999998  1.0000
  H   H18       1.0  0.23131000000000004  0.42621  0.11686  1.0000
  N   N3        1.0  0.9921800000000002  0.83179  0.32735  1.0000
  H   H19       1.0  0.01867  0.9237699999999998  0.29158  1.0000
  C   C47       1.0  0.02287  0.7742799999999999  0.42171  1.0000
  H   H20       1.0  0.07357  0.7320799999999998  0.41738999999999987  1.0000
  H   H21       1.0  0.99726  0.6517099999999999  0.44771  1.0000
  H   H22       1.0  0.023729999999999998  0.8927  0.4730899999999999  1.0000
  N   N4        1.0  0.008839999999999994  0.35663  0.6677  1.0000
  H   H23       1.0  0.9867900000000001  0.44663  0.71054  1.0000
  C   C48       1.0  0.9751400000000001  0.17956  0.65185  1.0000
  H   H24       1.0  0.9227800000000002  0.20576  0.62927  1.0000
  H   H25       1.0  0.981  0.09536  0.71919  1.0000
  H   H26       1.0  0.9939  0.09922  0.59401  1.0000
  O   O21       1.0  0.78447  0.94952  0.43681  1.0000
  H   H27       1.0  0.8143300000000001  0.9592899999999998  0.49810999999999994  1.0000
  O   O22       1.0  0.21657  0.221  0.5696599999999999  1.0000
  H   H28       1.0  0.18671000000000001  0.19729  0.50944  1.0000
