data_image0
_chemical_formula_structural       O4C2O4C2O2V2C20H12C2H4C26H8O4C2O4C2O2V2NO2NO2NO2NO2
_chemical_formula_sum              "O28 C56 V4 H24 N4"
_cell_length_a       20.912026
_cell_length_b       7.096604
_cell_length_c       16.355351
_cell_angle_alpha    88.693937
_cell_angle_beta     92.612465
_cell_angle_gamma    88.440166

_space_group_name_H-M_alt    "P 1"
_space_group_IT_number       1

loop_
  _space_group_symop_operation_xyz
  'x, y, z'

loop_
  _atom_site_type_symbol
  _atom_site_label
  _atom_site_symmetry_multiplicity
  _atom_site_fract_x
  _atom_site_fract_y
  _atom_site_fract_z
  _atom_site_occupancy
  O   O1        1.0  0.56484  0.50529  0.5798300000000002  1.0000
  O   O2        1.0  0.4351600000000001  0.005289999999999996  0.4201700000000001  1.0000
  O   O3        1.0  0.55672  0.17993  0.40935  1.0000
  O   O4        1.0  0.44328000000000006  0.67993  0.59065  1.0000
  C   C1        1.0  0.570485  0.344699  0.381031  1.0000
  C   C2        1.0  0.4297460000000001  0.844958  0.619024  1.0000
  O   O5        1.0  0.5722799999999999  0.17581  0.57853  1.0000
  O   O6        1.0  0.42772  0.6758100000000002  0.42147  1.0000
  O   O7        1.0  0.45083  0.001919999999999999  0.59054  1.0000
  O   O8        1.0  0.54917  0.50192  0.4094600000000001  1.0000
  C   C3        1.0  0.59053  0.3402420000000001  0.6048080000000002  1.0000
  C   C4        1.0  0.41025100000000003  0.848464  0.394755  1.0000
  O   O9        1.0  0.46013  0.33803000000000005  0.50375  1.0000
  O   O10       1.0  0.53987  0.83803  0.4962500000000001  1.0000
  V   V1        1.0  0.5074  0.06456000000000002  0.49931000000000003  1.0000
  V   V2        1.0  0.4926  0.56456  0.50069  1.0000
  C   C5        1.0  0.143715  0.888738  0.16713500000000006  1.0000
  C   C6        1.0  0.8533520000000001  0.433055  0.835222  1.0000
  C   C7        1.0  0.356695  0.87668  0.332147  1.0000
  C   C8        1.0  0.646154  0.332801  0.6656370000000003  1.0000
  C   C9        1.0  0.301932  0.08377800000000003  0.227974  1.0000
  C   C10       1.0  0.71586  0.14630200000000002  0.76303  1.0000
  C   C11       1.0  0.354693  0.040113  0.281186  1.0000
  C   C12       1.0  0.661405  0.163555  0.7101670000000002  1.0000
  C   C13       1.0  0.304939  0.754754  0.327233  1.0000
  C   C14       1.0  0.686657  0.4863320000000001  0.67641  1.0000
  C   C15       1.0  0.25119  0.799218  0.274265  1.0000
  C   C16       1.0  0.742133  0.468933  0.728994  1.0000
  C   C17       1.0  0.249443  0.965709  0.22453400000000007  1.0000
  C   C18       1.0  0.757087  0.29723  0.7724120000000002  1.0000
  C   C19       1.0  0.19559600000000002  0.010334999999999999  0.171707  1.0000
  C   C20       1.0  0.8127020000000001  0.279696  0.824783  1.0000
  C   C21       1.0  0.145875  0.724997  0.217902  1.0000
  C   C22       1.0  0.837884  0.602543  0.7909850000000002  1.0000
  C   C23       1.0  0.19876500000000002  0.680984  0.270788  1.0000
  C   C24       1.0  0.7832730000000001  0.619993  0.738456  1.0000
  H   H1        1.0  0.195074  0.135454  0.132362  1.0000
  H   H2        1.0  0.8233470000000002  0.14883099999999996  0.858787  1.0000
  H   H3        1.0  0.10657100000000001  0.628599  0.21608100000000005  1.0000
  H   H4        1.0  0.8680909999999998  0.723463  0.797148  1.0000
  H   H5        1.0  0.301944  0.21120900000000006  0.190169  1.0000
  H   H6        1.0  0.725937  0.014085  0.796164  1.0000
  H   H7        1.0  0.19883799999999996  0.553317  0.3084480000000001  1.0000
  H   H8        1.0  0.773092  0.7523590000000001  0.705481  1.0000
  H   H9        1.0  0.393986  0.136545  0.283165  1.0000
  H   H10       1.0  0.631201  0.04265900000000001  0.703874  1.0000
  H   H11       1.0  0.305447  0.629534  0.366518  1.0000
  H   H12       1.0  0.676056  0.617198  0.642383  1.0000
  C   C25       1.0  0.38039500000000004  0.892732  0.835183  1.0000
  C   C26       1.0  0.622125  0.315226  0.165072  1.0000
  H   H13       1.0  0.468393  0.896782  0.773709  1.0000
  H   H14       1.0  0.535317  0.276114  0.226655  1.0000
  H   H15       1.0  0.405806  0.902855  0.893879  1.0000
  H   H16       1.0  0.5977300000000001  0.293519  0.106511  1.0000
  C   C27       1.0  0.388108  0.85685  0.6894000000000002  1.0000
  C   C28       1.0  0.612286  0.350714  0.310582  1.0000
  C   C29       1.0  0.077922  0.9344330000000002  0.732013  1.0000
  C   C30       1.0  0.9222210000000001  0.399014  0.268031  1.0000
  C   C31       1.0  0.112695  0.9490400000000001  0.6619440000000002  1.0000
  C   C32       1.0  0.8883450000000002  0.37203  0.3382230000000001  1.0000
  C   C33       1.0  0.179307  0.934096  0.667122  1.0000
  C   C34       1.0  0.821925  0.359814  0.333055  1.0000
  C   C35       1.0  0.213264  0.8951260000000002  0.74271  1.0000
  C   C36       1.0  0.7868440000000001  0.38280700000000006  0.257271  1.0000
  C   C37       1.0  0.177437  0.8942930000000001  0.8150160000000002  1.0000
  C   C38       1.0  0.8224290000000001  0.396298  0.18493  1.0000
  C   C39       1.0  0.281853  0.873107  0.749268  1.0000
  C   C40       1.0  0.718128  0.37677200000000005  0.250672  1.0000
  C   C41       1.0  0.313113  0.8875510000000001  0.8282500000000003  1.0000
  C   C42       1.0  0.688251  0.3477780000000001  0.171876  1.0000
  C   C43       1.0  0.276739  0.892588  0.899106  1.0000
  C   C44       1.0  0.72465  0.3555520000000001  0.10103900000000003  1.0000
  C   C45       1.0  0.210119  0.886433  0.891794  1.0000
  C   C46       1.0  0.790075  0.388896  0.108197  1.0000
  C   C47       1.0  0.320892  0.838866  0.680698  1.0000
  C   C48       1.0  0.677727  0.396476  0.319036  1.0000
  C   C49       1.0  0.416839  0.8864320000000002  0.7663610000000002  1.0000
  C   C50       1.0  0.585636  0.307977  0.23386600000000005  1.0000
  C   C51       1.0  0.109386  0.910931  0.808907  1.0000
  C   C52       1.0  0.8903539999999999  0.4076740000000001  0.191036  1.0000
  H   H17       1.0  0.02616800000000001  0.9492070000000002  0.7265860000000002  1.0000
  H   H18       1.0  0.9739510000000001  0.405898  0.2735110000000001  1.0000
  H   H19       1.0  0.20319100000000004  0.963653  0.611513  1.0000
  H   H20       1.0  0.799545  0.322338  0.3889140000000001  1.0000
  H   H21       1.0  0.087885  0.976841  0.603177  1.0000
  H   H22       1.0  0.913925  0.356055  0.3971380000000001  1.0000
  H   H23       1.0  0.183858  0.8877529999999999  0.947372  1.0000
  H   H24       1.0  0.816262  0.396661  0.052631  1.0000
  O   O11       1.0  0.95079  0.25667  0.09052  1.0000
  O   O12       1.0  0.04921000000000001  0.7566700000000002  0.9094800000000002  1.0000
  O   O13       1.0  0.92772  0.5903700000000002  0.9214700000000002  1.0000
  O   O14       1.0  0.07228  0.09037000000000002  0.07853000000000003  1.0000
  C   C53       1.0  0.9093560000000002  0.4254580000000001  0.895453  1.0000
  C   C54       1.0  0.08984300000000002  0.9172420000000002  0.10501800000000003  1.0000
  O   O15       1.0  0.94327  0.5861800000000003  0.09064  1.0000
  O   O16       1.0  0.05673000000000001  0.08618  0.9093600000000002  1.0000
  O   O17       1.0  0.06485  0.7599700000000003  0.07984  1.0000
  O   O18       1.0  0.9351499999999999  0.2599700000000001  0.92016  1.0000
  C   C55       1.0  0.9301650000000002  0.417532  0.11881700000000003  1.0000
  C   C56       1.0  0.06962700000000001  0.917839  0.8811400000000003  1.0000
  O   O19       1.0  0.03985  0.42805  0.99624  1.0000
  O   O20       1.0  0.9601500000000001  0.92805  0.0037600000000000008  1.0000
  V   V3        1.0  0.9926100000000001  0.70154  0.0007000000000000002  1.0000
  V   V4        1.0  0.007390000000000002  0.20154  0.9993  1.0000
  N   N1        1.0  0.294442  0.762527  0.606329  1.0000
  O   O21       1.0  0.3062  0.838244  0.535573  1.0000
  O   O22       1.0  0.260137  0.6124449999999998  0.6091980000000002  1.0000
  N   N2        1.0  0.699935  0.485113  0.39274  1.0000
  O   O23       1.0  0.726735  0.6482200000000001  0.388643  1.0000
  O   O24       1.0  0.691578  0.407056  0.464076  1.0000
  N   N3        1.0  0.306539  0.904447  0.97962  1.0000
  O   O25       1.0  0.28906999999999994  0.7928440000000002  0.03825  1.0000
  O   O26       1.0  0.340819  0.049090999999999996  0.9980850000000001  1.0000
  N   N4        1.0  0.696132  0.3290440000000001  0.020713  1.0000
  O   O27       1.0  0.708611  0.444662  0.961003  1.0000
  O   O28       1.0  0.669034  0.170868  0.00369  1.0000
