data_image0
_chemical_formula_structural       C116Cr12H84O68
_chemical_formula_sum              "C116 Cr12 H84 O68"
_cell_length_a       19.1867
_cell_length_b       10.89532
_cell_length_c       18.79109
_cell_angle_alpha    90.12262
_cell_angle_beta     90.17551
_cell_angle_gamma    89.57611

_space_group_name_H-M_alt    "P 1"
_space_group_IT_number       1

loop_
  _space_group_symop_operation_xyz
  'x, y, z'

loop_
  _atom_site_type_symbol
  _atom_site_label
  _atom_site_symmetry_multiplicity
  _atom_site_fract_x
  _atom_site_fract_y
  _atom_site_fract_z
  _atom_site_occupancy
  C   C1        1.0  0.7305  0.3777  0.64677  1.0000
  C   C2        1.0  0.2954  0.85965  0.46167  1.0000
  C   C3        1.0  0.9109  0.6318  0.48959  1.0000
  C   C4        1.0  0.60783  0.77098  0.07994  1.0000
  C   C5        1.0  0.35905  0.67569  0.9535100000000001  1.0000
  C   C6        1.0  0.10869  0.26941  0.07978  1.0000
  C   C7        1.0  0.8614  0.18373  0.94939  1.0000
  C   C8        1.0  0.9284500000000001  0.97527  0.5680000000000001  1.0000
  C   C9        1.0  0.10985000000000002  0.13313  0.46203  1.0000
  C   C10       1.0  0.4285  0.47528999999999993  0.5679  1.0000
  C   C11       1.0  0.60984  0.63307  0.46201  1.0000
  C   C12       1.0  0.37807  0.04698000000000001  0.8557900000000002  1.0000
  C   C13       1.0  0.18887  0.41957  0.5322  1.0000
  C   C14       1.0  0.44856  0.87694  0.05588  1.0000
  C   C15       1.0  0.8852  0.53197  0.84348  1.0000
  C   C16       1.0  0.95317  0.37615  0.05281  1.0000
  C   C17       1.0  0.48568000000000006  0.46765  0.08848  1.0000
  C   C18       1.0  0.57642  0.45638  0.9483  1.0000
  C   C19       1.0  0.9843000000000001  0.9654999999999999  0.08938  1.0000
  C   C20       1.0  0.06439  0.96069  0.9467300000000001  1.0000
  C   C21       1.0  0.7954  0.35965  0.46167  1.0000
  C   C22       1.0  0.69552  0.90823  0.45915  1.0000
  C   C23       1.0  0.29331  0.84163  0.53456  1.0000
  C   C24       1.0  0.19552  0.40820000000000006  0.45916000000000007  1.0000
  C   C25       1.0  0.79331  0.34163  0.53457  1.0000
  C   C26       1.0  0.76174  0.89775  0.43004000000000003  1.0000
  C   C27       1.0  0.2517  0.91853  0.5772100000000002  1.0000
  C   C28       1.0  0.26174  0.39776000000000006  0.43004000000000003  1.0000
  C   C29       1.0  0.27197  0.37355  0.3554  1.0000
  C   C30       1.0  0.7517  0.41854  0.5772100000000002  1.0000
  C   C31       1.0  0.82116  0.8951100000000001  0.47392  1.0000
  C   C32       1.0  0.21723  0.01893  0.54798  1.0000
  C   C33       1.0  0.32116  0.39518  0.47391  1.0000
  C   C34       1.0  0.71723  0.51893  0.54799  1.0000
  C   C35       1.0  0.81545  0.9092299999999999  0.54721  1.0000
  C   C36       1.0  0.21559  0.03435  0.47483  1.0000
  C   C37       1.0  0.31546  0.4093  0.54721  1.0000
  C   C38       1.0  0.71559  0.53435  0.47483  1.0000
  C   C39       1.0  0.7486  0.9226200000000001  0.57603  1.0000
  C   C40       1.0  0.23049  0.8777  0.64677  1.0000
  C   C41       1.0  0.25514  0.95316  0.43118  1.0000
  C   C42       1.0  0.24861  0.42263  0.57603  1.0000
  C   C43       1.0  0.7551400000000001  0.45315000000000005  0.43118  1.0000
  C   C44       1.0  0.45405  0.08342000000000001  0.9472000000000002  1.0000
  C   C45       1.0  0.44611  0.07469  0.02042  1.0000
  C   C46       1.0  0.94962  0.57935  0.9429  1.0000
  C   C47       1.0  0.93723  0.57105  0.01572  1.0000
  C   C48       1.0  0.474  0.16603  0.06607  1.0000
  C   C49       1.0  0.49339000000000005  0.17918  0.91973  1.0000
  C   C50       1.0  0.9589200000000001  0.665  0.06251000000000001  1.0000
  C   C51       1.0  0.77197  0.87355  0.3554  1.0000
  C   C52       1.0  0.98924  0.67698  0.9175300000000001  1.0000
  C   C53       1.0  0.50062  0.27548  0.03699  1.0000
  C   C54       1.0  0.50733  0.28411  0.96209  1.0000
  C   C55       1.0  0.98961  0.77325  0.03489  1.0000
  C   C56       1.0  0.99992  0.78194  0.9603800000000001  1.0000
  C   C57       1.0  0.53051  0.15555  0.6477  1.0000
  C   C58       1.0  0.4358000000000001  0.15068  0.36107000000000006  1.0000
  C   C59       1.0  0.030500000000000003  0.65555  0.6477  1.0000
  C   C60       1.0  0.9358  0.65068  0.36107000000000006  1.0000
  C   C61       1.0  0.81137  0.89429  0.95348  1.0000
  C   C62       1.0  0.58116  0.25817  0.42831  1.0000
  C   C63       1.0  0.23899  0.02911  0.023240000000000007  1.0000
  C   C64       1.0  0.31268  0.38815000000000005  0.95196  1.0000
  C   C65       1.0  0.74419  0.54473  0.02341  1.0000
  C   C66       1.0  0.81771  0.882  0.02612  1.0000
  C   C67       1.0  0.22931  0.99988  0.95276  1.0000
  C   C68       1.0  0.31951  0.37507999999999997  0.02476  1.0000
  C   C69       1.0  0.7383  0.52358  0.9513000000000001  1.0000
  C   C70       1.0  0.75988  0.89296  0.07077000000000001  1.0000
  C   C71       1.0  0.23719000000000004  0.87815  0.93112  1.0000
  C   C72       1.0  0.26166  0.3876899999999999  0.06956000000000001  1.0000
  C   C73       1.0  0.60507  0.2623  0.50549  1.0000
  C   C74       1.0  0.7488  0.4052  0.92561  1.0000
  C   C75       1.0  0.69285  0.89756  0.041320000000000016  1.0000
  C   C76       1.0  0.26349  0.7893299999999999  0.97874  1.0000
  C   C77       1.0  0.19456  0.39320999999999995  0.040320000000000016  1.0000
  C   C78       1.0  0.77017  0.30967  0.97227  1.0000
  C   C79       1.0  0.68627  0.9155700000000001  0.96817  1.0000
  C   C80       1.0  0.26756  0.81732  0.05091  1.0000
  C   C81       1.0  0.18772  0.41136  0.9673400000000001  1.0000
  C   C82       1.0  0.76944  0.3298  0.04528  1.0000
  C   C83       1.0  0.7463  0.91999  0.9249  1.0000
  C   C84       1.0  0.08108  0.7584  0.42835  1.0000
  C   C85       1.0  0.25238  0.9363000000000001  0.07291  1.0000
  C   C86       1.0  0.24743999999999997  0.41569  0.92379  1.0000
  C   C87       1.0  0.75454  0.44654  0.07055  1.0000
  C   C88       1.0  0.74098  0.96906  0.64765  1.0000
  C   C89       1.0  0.26078  0.9783  0.35565  1.0000
  C   C90       1.0  0.24098  0.46906999999999993  0.64765  1.0000
  C   C91       1.0  0.76078  0.47829  0.35565  1.0000
  C   C92       1.0  0.72926  0.37568  0.85322  1.0000
  C   C93       1.0  0.27298  0.37123  0.14505  1.0000
  C   C94       1.0  0.21601999999999996  0.84212  0.86042  1.0000
  C   C95       1.0  0.10499  0.76252  0.50552  1.0000
  C   C96       1.0  0.77194  0.8738299999999999  0.14594  1.0000
  C   C97       1.0  0.53091  0.1596  0.85264  1.0000
  C   C98       1.0  0.4608900000000001  0.15636  0.14264  1.0000
  C   C99       1.0  0.030650000000000004  0.65923  0.8525400000000001  1.0000
  C   C100      1.0  0.9400400000000001  0.65411  0.13833000000000004  1.0000
  C   C101      1.0  0.7406  0.9701800000000002  0.85395  1.0000
  C   C102      1.0  0.25912  0.97189  0.14582  1.0000
  C   C103      1.0  0.24101  0.46881  0.85344  1.0000
  C   C104      1.0  0.75955  0.47403000000000006  0.14492  1.0000
  C   C105      1.0  0.45825999999999995  0.15597  0.43444000000000005  1.0000
  C   C106      1.0  0.68887  0.9195999999999999  0.53219  1.0000
  C   C107      1.0  0.50288  0.16254  0.5764200000000002  1.0000
  C   C108      1.0  0.9582499999999999  0.65596  0.43444000000000005  1.0000
  C   C109      1.0  0.0028700000000000006  0.66254  0.5764200000000002  1.0000
  C   C110      1.0  0.52878  0.16569  0.45088000000000006  1.0000
  C   C111      1.0  0.55047  0.16948  0.52067  1.0000
  C   C112      1.0  0.02876  0.66582  0.45089  1.0000
  C   C113      1.0  0.05045  0.66959  0.52069  1.0000
  C   C114      1.0  0.43332000000000004  0.13383  0.56078  1.0000
  C   C115      1.0  0.41089  0.13192  0.48959  1.0000
  C   C116      1.0  0.93333  0.6337  0.56078  1.0000
  Cr  Cr1       1.0  0.77195  0.16948  0.7501  1.0000
  Cr  Cr2       1.0  0.38341  0.01062  0.24939000000000003  1.0000
  Cr  Cr3       1.0  0.11659000000000001  0.51062  0.75061  1.0000
  Cr  Cr4       1.0  0.88341  0.51062  0.24939000000000003  1.0000
  Cr  Cr5       1.0  0.22805000000000003  0.16948  0.24990000000000004  1.0000
  Cr  Cr6       1.0  0.27195  0.66948  0.7501  1.0000
  Cr  Cr7       1.0  0.72805  0.66948  0.24990000000000004  1.0000
  Cr  Cr8       1.0  0.61493  0.32334  0.7491700000000001  1.0000
  Cr  Cr9       1.0  0.38507  0.32334000000000007  0.25083000000000005  1.0000
  Cr  Cr10      1.0  0.11492999999999998  0.8233400000000001  0.7491700000000001  1.0000
  Cr  Cr11      1.0  0.8850699999999999  0.8233400000000001  0.25083000000000005  1.0000
  Cr  Cr12      1.0  0.61659  0.010620000000000001  0.75061  1.0000
  H   H1        1.0  0.39645  0.11678  0.60309  1.0000
  H   H2        1.0  0.15829  0.7244  0.5135100000000002  1.0000
  H   H3        1.0  0.55657  0.34493  0.40958000000000006  1.0000
  H   H4        1.0  0.65836  0.2241  0.5134900000000001  1.0000
  H   H5        1.0  0.62094  0.2182  0.39196  1.0000
  H   H6        1.0  0.59457  0.3517  0.53211  1.0000
  H   H7        1.0  0.12088  0.71854  0.39198  1.0000
  H   H8        1.0  0.09445  0.85187  0.53217  1.0000
  H   H9        1.0  0.87205  0.87895  0.45103  1.0000
  H   H10       1.0  0.18825  0.08139  0.5819000000000001  1.0000
  H   H11       1.0  0.37206  0.37905  0.45102000000000003  1.0000
  H   H12       1.0  0.35663  0.11582  0.47772  1.0000
  H   H13       1.0  0.68825  0.5814  0.5819000000000001  1.0000
  H   H14       1.0  0.85732  0.8897100000000001  0.92024  1.0000
  H   H15       1.0  0.23682999999999998  0.12431999999999999  0.03884  1.0000
  H   H16       1.0  0.35845  0.38372000000000006  0.9184300000000001  1.0000
  H   H17       1.0  0.74196  0.63799  0.04233  1.0000
  H   H18       1.0  0.8675400000000001  0.86058  0.04811  1.0000
  H   H19       1.0  0.21459  0.07152  0.91561  1.0000
  H   H20       1.0  0.36979  0.35312  0.04647  1.0000
  H   H21       1.0  0.72479  0.59851  0.9159000000000003  1.0000
  H   H22       1.0  0.64745  0.70002  0.0911  1.0000
  H   H23       1.0  0.89647  0.61655  0.60309  1.0000
  H   H24       1.0  0.58328  0.75384  0.02722  1.0000
  H   H25       1.0  0.5686  0.75854  0.12239000000000001  1.0000
  H   H26       1.0  0.37981  0.66131  0.00795  1.0000
  H   H27       1.0  0.38047  0.7599899999999999  0.9286000000000001  1.0000
  H   H28       1.0  0.37841  0.59851  0.92071  1.0000
  H   H29       1.0  0.14742  0.19836000000000004  0.09374  1.0000
  H   H30       1.0  0.08629  0.25014  0.02633  1.0000
  H   H31       1.0  0.06742  0.26012  0.12048  1.0000
  H   H32       1.0  0.8793000000000001  0.16871  0.00486  1.0000
  H   H33       1.0  0.8874100000000001  0.26347  0.9243500000000001  1.0000
  H   H34       1.0  0.85665  0.61561  0.47772  1.0000
  H   H35       1.0  0.8784900000000001  0.10291999999999998  0.9183200000000001  1.0000
  H   H36       1.0  0.63711  0.93289  0.5539  1.0000
  H   H37       1.0  0.32693  0.7990199999999998  0.429  1.0000
  H   H38       1.0  0.13711  0.43282  0.5539  1.0000
  H   H39       1.0  0.82693  0.29902  0.429  1.0000
  H   H40       1.0  0.6495  0.9079799999999999  0.42561  1.0000
  H   H41       1.0  0.32053  0.76299  0.55671  1.0000
  H   H42       1.0  0.14949  0.40792  0.42562  1.0000
  H   H43       1.0  0.82053  0.263  0.55671  1.0000
  H   H44       1.0  0.91022  0.06572  0.54722  1.0000
  H   H45       1.0  0.63474  0.9318799999999999  0.94624  1.0000
  H   H46       1.0  0.95942  0.9252  0.52727  1.0000
  H   H47       1.0  0.96391  0.99381  0.61343  1.0000
  H   H48       1.0  0.0999  0.16783  0.51669  1.0000
  H   H49       1.0  0.08723  0.04027  0.45493  1.0000
  H   H50       1.0  0.08213  0.19542000000000004  0.4247  1.0000
  H   H51       1.0  0.4103  0.56565  0.5469  1.0000
  H   H52       1.0  0.45951  0.42494999999999994  0.52729  1.0000
  H   H53       1.0  0.46390999999999993  0.49411  0.6133500000000001  1.0000
  H   H54       1.0  0.59986  0.66771  0.51667  1.0000
  H   H55       1.0  0.58723  0.54021  0.45487  1.0000
  H   H56       1.0  0.2839  0.74801  0.08886000000000001  1.0000
  H   H57       1.0  0.58212  0.6954  0.4246900000000001  1.0000
  H   H58       1.0  0.40494  0.09565  0.8120600000000001  1.0000
  H   H59       1.0  0.34109  0.11074  0.8829800000000001  1.0000
  H   H60       1.0  0.34736  0.9733  0.83055  1.0000
  H   H61       1.0  0.49501000000000006  0.89971  0.08781000000000001  1.0000
  H   H62       1.0  0.46521  0.83804  0.00397  1.0000
  H   H63       1.0  0.41945999999999994  0.80684  0.08603  1.0000
  H   H64       1.0  0.91557  0.57971  0.80202  1.0000
  H   H65       1.0  0.84397  0.59479  0.8640000000000001  1.0000
  H   H66       1.0  0.8600599999999999  0.45422  0.8160000000000001  1.0000
  H   H67       1.0  0.13612  0.42888999999999994  0.9458600000000001  1.0000
  H   H68       1.0  0.9988899999999998  0.41102  0.08235  1.0000
  H   H69       1.0  0.9710599999999999  0.33608  0.00166  1.0000
  H   H70       1.0  0.92959  0.30312  0.08569  1.0000
  H   H71       1.0  0.51828  0.54716  0.1036  1.0000
  H   H72       1.0  0.44822  0.45679  0.13218  1.0000
  H   H73       1.0  0.4576700000000001  0.4924  0.03866  1.0000
  H   H74       1.0  0.59272  0.51482  0.9035  1.0000
  H   H75       1.0  0.61854  0.39108  0.9635100000000001  1.0000
  H   H76       1.0  0.5677  0.52365  0.9911300000000001  1.0000
  H   H77       1.0  0.02161  0.04011  0.10116  1.0000
  H   H78       1.0  0.78205  0.2558  0.08168  1.0000
  H   H79       1.0  0.94976  0.96096  0.13603  1.0000
  H   H80       1.0  0.9537  0.9934  0.04178  1.0000
  H   H81       1.0  0.0856  0.00497  0.8989100000000001  1.0000
  H   H82       1.0  0.10487  0.90319  0.9731400000000001  1.0000
  H   H83       1.0  0.05023  0.03985  0.98049  1.0000
  H   H84       1.0  0.05643  0.84512  0.40964  1.0000
  O   O1        1.0  0.78751  0.04261  0.67041  1.0000
  O   O2        1.0  0.45424999999999993  0.051070000000000004  0.16944  1.0000
  O   O3        1.0  0.04575  0.55107  0.83056  1.0000
  O   O4        1.0  0.95425  0.55107  0.16944  1.0000
  O   O5        1.0  0.68121  0.9591500000000001  0.82532  1.0000
  O   O6        1.0  0.31879  0.9591500000000001  0.17468  1.0000
  O   O7        1.0  0.18121  0.45915  0.82532  1.0000
  O   O8        1.0  0.81879  0.45915  0.17468  1.0000
  O   O9        1.0  0.66782  0.16781  0.7499600000000002  1.0000
  O   O10       1.0  0.33218  0.16781  0.25004000000000004  1.0000
  O   O11       1.0  0.16782  0.66781  0.7499600000000002  1.0000
  O   O12       1.0  0.21249000000000004  0.04261  0.32959  1.0000
  O   O13       1.0  0.83218  0.66781  0.25004000000000004  1.0000
  O   O14       1.0  0.76567  0.29209  0.67509  1.0000
  O   O15       1.0  0.23433  0.29209  0.3249100000000001  1.0000
  O   O16       1.0  0.26567  0.7920900000000001  0.67509  1.0000
  O   O17       1.0  0.73433  0.7920900000000001  0.3249100000000001  1.0000
  O   O18       1.0  0.67022  0.40902  0.66856  1.0000
  O   O19       1.0  0.32978  0.40902  0.33144  1.0000
  O   O20       1.0  0.17022  0.90902  0.66856  1.0000
  O   O21       1.0  0.82978  0.90902  0.33144  1.0000
  O   O22       1.0  0.55658  0.25159  0.6749800000000001  1.0000
  O   O23       1.0  0.28751  0.54261  0.67041  1.0000
  O   O24       1.0  0.44342  0.25159  0.32502000000000003  1.0000
  O   O25       1.0  0.05657999999999999  0.75159  0.6749800000000001  1.0000
  O   O26       1.0  0.9434199999999999  0.75159  0.32502000000000003  1.0000
  O   O27       1.0  0.54589  0.04966999999999999  0.6700300000000002  1.0000
  O   O28       1.0  0.45411000000000007  0.04966999999999999  0.32997  1.0000
  O   O29       1.0  0.04589  0.54967  0.6700300000000002  1.0000
  O   O30       1.0  0.95411  0.54967  0.32997  1.0000
  O   O31       1.0  0.68134  0.9578600000000002  0.6765  1.0000
  O   O32       1.0  0.31866  0.9578600000000002  0.3235  1.0000
  O   O33       1.0  0.18134  0.45785999999999993  0.6765  1.0000
  O   O34       1.0  0.71249  0.54261  0.32959  1.0000
  O   O35       1.0  0.81866  0.45785999999999993  0.3235  1.0000
  O   O36       1.0  0.78738  0.04401  0.8309400000000001  1.0000
  O   O37       1.0  0.21262000000000003  0.04401  0.16906000000000002  1.0000
  O   O38       1.0  0.28738  0.54401  0.8309400000000001  1.0000
  O   O39       1.0  0.71262  0.54401  0.16906000000000002  1.0000
  O   O40       1.0  0.76554  0.29339  0.8239100000000003  1.0000
  O   O41       1.0  0.23446  0.29339  0.17609000000000005  1.0000
  O   O42       1.0  0.26554  0.79339  0.8239100000000003  1.0000
  O   O43       1.0  0.73446  0.79339  0.17609000000000005  1.0000
  O   O44       1.0  0.67009  0.41041  0.8290900000000001  1.0000
  O   O45       1.0  0.55645  0.25289  0.82379  1.0000
  O   O46       1.0  0.32991  0.41041  0.17091000000000003  1.0000
  O   O47       1.0  0.17009  0.91041  0.8290900000000001  1.0000
  O   O48       1.0  0.82991  0.91041  0.17091000000000003  1.0000
  O   O49       1.0  0.63458  0.8913  0.08416  1.0000
  O   O50       1.0  0.28541  0.67614  0.9545200000000001  1.0000
  O   O51       1.0  0.13635  0.3891  0.08334  1.0000
  O   O52       1.0  0.78808  0.19483  0.94692  1.0000
  O   O53       1.0  0.8729300000000001  0.90225  0.59252  1.0000
  O   O54       1.0  0.18174  0.13586  0.44615000000000005  1.0000
  O   O55       1.0  0.37295  0.40243  0.59251  1.0000
  O   O56       1.0  0.44355000000000006  0.25289  0.17621000000000003  1.0000
  O   O57       1.0  0.68174  0.63584  0.44616  1.0000
  O   O58       1.0  0.4261  0.9930299999999999  0.90383  1.0000
  O   O59       1.0  0.40574  0.9809999999999999  0.046840000000000014  1.0000
  O   O60       1.0  0.9279300000000001  0.48474999999999996  0.8986800000000001  1.0000
  O   O61       1.0  0.90332  0.46944  0.04151  1.0000
  O   O62       1.0  0.52957  0.36321  0.08191000000000001  1.0000
  O   O63       1.0  0.5147  0.39652999999999994  0.92808  1.0000
  O   O64       1.0  0.02256  0.85489  0.08087  1.0000
  O   O65       1.0  0.004849999999999999  0.8947  0.92621  1.0000
  O   O66       1.0  0.05645000000000001  0.75289  0.82379  1.0000
  O   O67       1.0  0.94355  0.75289  0.17621000000000003  1.0000
  O   O68       1.0  0.54575  0.051070000000000004  0.83056  1.0000
