data_image0
_chemical_formula_structural       Ba2C64F8H68O32P8
_chemical_formula_sum              "Ba2 C64 F8 H68 O32 P8"
_cell_length_a       8.34758
_cell_length_b       14.26127
_cell_length_c       18.92851
_cell_angle_alpha    96.41055
_cell_angle_beta     90.62433
_cell_angle_gamma    91.43925000000002

_space_group_name_H-M_alt    "P 1"
_space_group_IT_number       1

loop_
  _space_group_symop_operation_xyz
  'x, y, z'

loop_
  _atom_site_type_symbol
  _atom_site_label
  _atom_site_symmetry_multiplicity
  _atom_site_fract_x
  _atom_site_fract_y
  _atom_site_fract_z
  _atom_site_occupancy
  Ba  Ba1       1.0  0.84377  0.54113  0.46376  1.0000
  Ba  Ba2       1.0  0.34604  0.45894  0.53625  1.0000
  C   C1        1.0  0.6016399999999998  0.88209  0.26842  1.0000
  C   C2        1.0  0.01323000000000001  0.5280700000000003  0.7239000000000001  1.0000
  C   C3        1.0  0.89134  0.39504  0.80697  1.0000
  C   C4        1.0  0.05559999999999998  0.8186799999999999  0.26577  1.0000
  C   C5        1.0  0.82078  0.4040599999999999  0.7402  1.0000
  C   C6        1.0  0.35439  0.55864  0.17539  1.0000
  C   C7        1.0  0.40725  0.56264  0.24629000000000004  1.0000
  C   C8        1.0  0.16088000000000002  0.43756  0.19881  1.0000
  C   C9        1.0  0.18429  0.46227  0.27285  1.0000
  C   C10       1.0  0.9985300000000001  0.46532999999999997  0.841  1.0000
  C   C11       1.0  0.88972  0.46641  0.69758  1.0000
  C   C12       1.0  0.54047  0.7801  0.26666  1.0000
  C   C13       1.0  0.23314  0.49229  0.14774  1.0000
  C   C14       1.0  0.31272  0.52247  0.29558  1.0000
  C   C15       1.0  0.81319  0.38685  0.96542  1.0000
  C   C16       1.0  0.07456  0.91928  0.24441000000000002  1.0000
  C   C17       1.0  0.73145  0.35227  0.02158  1.0000
  C   C18       1.0  0.76577  0.39543  0.09015  1.0000
  C   C19       1.0  0.89838  0.45524  0.10112000000000002  1.0000
  C   C20       1.0  0.015109999999999997  0.4586  0.04856  1.0000
  C   C21       1.0  0.96314  0.43658  0.9759300000000001  1.0000
  C   C22       1.0  0.17732  0.48325  0.06817  1.0000
  C   C23       1.0  0.50584  0.32149  0.32344  1.0000
  C   C24       1.0  0.28313  0.49574999999999997  0.01064  1.0000
  C   C25       1.0  0.22496  0.49043  0.93796  1.0000
  C   C26       1.0  0.06147  0.46353  0.91882  1.0000
  C   C27       1.0  0.44959  0.51101  0.02291  1.0000
  C   C28       1.0  0.18121  0.7605000000000001  0.62247  1.0000
  C   C29       1.0  0.55046  0.53804  0.9706700000000001  1.0000
  C   C30       1.0  0.49610999999999994  0.53252  0.90133  1.0000
  C   C31       1.0  0.3390100000000001  0.50374  0.8847200000000001  1.0000
  C   C32       1.0  0.70545  0.93598  0.52497  1.0000
  C   C33       1.0  0.51582  0.79975  0.4935  1.0000
  C   C34       1.0  0.47156  0.29525  0.24475000000000002  1.0000
  C   C35       1.0  0.3756  0.76461  0.45752000000000004  1.0000
  C   C36       1.0  0.27644  0.8239600000000001  0.42413  1.0000
  C   C37       1.0  0.31969  0.91883  0.4235500000000001  1.0000
  C   C38       1.0  0.46632  0.9542  0.45376  1.0000
  C   C39       1.0  0.56491  0.89559  0.4906  1.0000
  C   C40       1.0  0.16116  0.86558  0.6438900000000001  1.0000
  C   C41       1.0  0.64857  0.08905  0.48659  1.0000
  C   C42       1.0  0.75085  0.030610000000000002  0.52091  1.0000
  C   C43       1.0  0.68749  0.18621000000000001  0.4898600000000001  1.0000
  C   C44       1.0  0.82573  0.22362  0.52552  1.0000
  C   C45       1.0  0.18827  0.24678  0.7282  1.0000
  C   C46       1.0  0.93462  0.16486  0.55235  1.0000
  C   C47       1.0  0.89632  0.06851999999999998  0.55176  1.0000
  C   C48       1.0  0.50922  0.049470000000000014  0.45182000000000005  1.0000
  C   C49       1.0  0.99659  0.24415999999999996  0.38149  1.0000
  C   C50       1.0  0.9714599999999999  0.13838  0.35861000000000004  1.0000
  C   C51       1.0  0.68626  0.68026  0.67477  1.0000
  C   C52       1.0  0.70125  0.71604  0.75342  1.0000
  C   C53       1.0  0.35585  0.9787  0.62792  1.0000
  C   C54       1.0  0.84596  0.13955  0.24795  1.0000
  C   C55       1.0  0.37564  0.2666799999999999  0.8916699999999999  1.0000
  C   C56       1.0  0.19141  0.21115  0.80133  1.0000
  C   C57       1.0  0.028970000000000003  0.15085000000000004  0.8859600000000001  1.0000
  C   C58       1.0  0.04179  0.6879999999999998  0.1806  1.0000
  C   C59       1.0  0.59925  0.026960000000000026  0.8282700000000001  1.0000
  C   C60       1.0  0.56327  0.23586000000000001  0.06191000000000001  1.0000
  C   C61       1.0  0.23160000000000003  0.92663  0.14426  1.0000
  C   C62       1.0  0.72028  0.18362  0.73441  1.0000
  C   C63       1.0  0.70373  0.07583  0.72318  1.0000
  C   C64       1.0  0.05013  0.53645  0.79769  1.0000
  F   F1        1.0  0.99957  0.8842299999999998  0.64594  1.0000
  F   F2        1.0  0.69391  0.90698  0.32886000000000004  1.0000
  F   F3        1.0  0.75221  0.6451699999999999  0.79149  1.0000
  F   F4        1.0  0.47457  0.9421  0.2695600000000001  1.0000
  F   F5        1.0  0.29178  0.13411  0.79692  1.0000
  F   F6        1.0  0.84414  0.035050000000000005  0.74324  1.0000
  F   F7        1.0  0.32754  0.67353  0.45984  1.0000
  F   F8        1.0  0.21357  0.97814  0.39872000000000013  1.0000
  H   H1        1.0  0.4834300000000001  0.77203  0.31837000000000004  1.0000
  H   H2        1.0  0.58311  0.74003  0.7738200000000001  1.0000
  H   H3        1.0  0.4499000000000001  0.76516  0.22326000000000001  1.0000
  H   H4        1.0  0.39635  0.35111  0.3488500000000001  1.0000
  H   H5        1.0  0.60424  0.37558  0.32949  1.0000
  H   H6        1.0  0.35927  0.25168  0.23699  1.0000
  H   H7        1.0  0.45954  0.35995  0.21803000000000003  1.0000
  H   H8        1.0  0.57168  0.25473  0.21992  1.0000
  H   H9        1.0  0.67439  0.89063  0.22067  1.0000
  H   H10       1.0  0.96896  0.9592300000000001  0.2641200000000001  1.0000
  H   H11       1.0  0.3114  0.26389000000000007  0.7130400000000002  1.0000
  H   H12       1.0  0.20871000000000003  0.88215  0.69955  1.0000
  H   H13       1.0  0.11623  0.31107  0.73028  1.0000
  H   H14       1.0  0.7125000000000001  0.2072  0.79198  1.0000
  H   H15       1.0  0.83875  0.20408  0.71431  1.0000
  H   H16       1.0  0.68755  0.05466999999999999  0.66547  1.0000
  H   H17       1.0  0.12739  0.59481  0.8195  1.0000
  H   H18       1.0  0.86896  0.33043  0.82925  1.0000
  H   H19       1.0  0.41003  0.60756  0.14294000000000004  1.0000
  H   H20       1.0  0.08023  0.37859  0.18208  1.0000
  H   H21       1.0  0.84576  0.46717  0.64368  1.0000
  H   H22       1.0  0.34651  0.53241  0.3512700000000001  1.0000
  H   H23       1.0  0.87989  0.27606  0.3945900000000001  1.0000
  H   H24       1.0  0.74933  0.37491  0.91629  1.0000
  H   H25       1.0  0.69001  0.38516  0.13475  1.0000
  H   H26       1.0  0.17855  0.79076  0.27177  1.0000
  H   H27       1.0  0.915  0.49349  0.15254000000000004  1.0000
  H   H28       1.0  0.50706  0.49893  0.07185  1.0000
  H   H29       1.0  0.67478  0.5566299999999998  0.9832000000000001  1.0000
  H   H30       1.0  0.57874  0.54435  0.85952  1.0000
  H   H31       1.0  0.31268  0.48757000000000006  0.8290900000000002  1.0000
  H   H32       1.0  0.97846  0.02405  0.57617  1.0000
  H   H33       1.0  0.85395  0.29851  0.52892  1.0000
  H   H34       1.0  0.0786  0.25436  0.42851  1.0000
  H   H35       1.0  0.77907  0.89594  0.55686  1.0000
  H   H36       1.0  0.43095  0.09268  0.4241  1.0000
  H   H37       1.0  0.18029  0.95675  0.27144  1.0000
  H   H38       1.0  0.31011  0.74589  0.61538  1.0000
  H   H39       1.0  0.11321  0.73849  0.57229  1.0000
  H   H40       1.0  0.45491000000000004  0.93628  0.64627  1.0000
  H   H41       1.0  0.30705  0.026010000000000005  0.67275  1.0000
  H   H42       1.0  0.40579  0.024579999999999998  0.58999  1.0000
  H   H43       1.0  0.83996  0.21673  0.24536  1.0000
  H   H44       1.0  0.74491  0.10529999999999999  0.21540000000000004  1.0000
  H   H45       1.0  0.96233  0.10136  0.4068400000000001  1.0000
  H   H46       1.0  0.9587  0.11252  0.22344000000000003  1.0000
  H   H47       1.0  0.40316  0.32903  0.9300300000000001  1.0000
  H   H48       1.0  0.48254  0.25308  0.85815  1.0000
  H   H49       1.0  0.34873  0.20624  0.92229  1.0000
  H   H50       1.0  0.04733  0.21111  0.92808  1.0000
  H   H51       1.0  0.11626  0.09461000000000001  0.8921600000000001  1.0000
  H   H52       1.0  0.90826  0.12019000000000003  0.8936800000000001  1.0000
  H   H53       1.0  0.06049000000000001  0.6370299999999999  0.21996  1.0000
  H   H54       1.0  0.15689  0.7099999999999999  0.15758000000000003  1.0000
  H   H55       1.0  0.96658  0.65336  0.13615  1.0000
  H   H56       1.0  0.07855999999999999  0.10936  0.33021  1.0000
  H   H57       1.0  0.64008  0.09281  0.8609  1.0000
  H   H58       1.0  0.6866100000000002  0.9698900000000001  0.8311200000000002  1.0000
  H   H59       1.0  0.48644999999999994  0.0030499999999999993  0.85191  1.0000
  H   H60       1.0  0.48031  0.27922  0.09641  1.0000
  H   H61       1.0  0.66802  0.21363  0.09233  1.0000
  H   H62       1.0  0.49589  0.1707  0.04042  1.0000
  H   H63       1.0  0.28937  0.99562  0.16471  1.0000
  H   H64       1.0  0.22637  0.92292  0.08543  1.0000
  H   H65       1.0  0.30433  0.86706  0.15808  1.0000
  H   H66       1.0  0.80561  0.65909  0.65473  1.0000
  H   H67       1.0  0.60178  0.61839  0.6682000000000001  1.0000
  H   H68       1.0  0.7891  0.7762400000000002  0.7612100000000003  1.0000
  O   O1        1.0  0.89023  0.43389  0.32878  1.0000
  O   O2        1.0  0.26772  0.17064  0.55856  1.0000
  O   O3        1.0  0.12421  0.17619000000000004  0.6784400000000002  1.0000
  O   O4        1.0  0.13658  0.44238  0.41711  1.0000
  O   O5        1.0  0.55151  0.61564  0.53179  1.0000
  O   O6        1.0  0.39478  0.26875999999999994  0.4744300000000001  1.0000
  O   O7        1.0  0.55075  0.2404  0.35321  1.0000
  O   O8        1.0  0.50042  0.38016  0.7668  1.0000
  O   O9        1.0  0.59976  0.22409  0.6965200000000001  1.0000
  O   O10       1.0  0.63639  0.60764  0.3656300000000001  1.0000
  O   O11       1.0  0.73761  0.53974  0.24246  1.0000
  O   O12       1.0  0.6287500000000001  0.7537  0.63914  1.0000
  O   O13       1.0  0.06653  0.28448  0.32539000000000007  1.0000
  O   O14       1.0  0.66887  0.7189999999999999  0.25368  1.0000
  O   O15       1.0  0.79491  0.73127  0.52562  1.0000
  O   O16       1.0  0.04595  0.65876  0.39947  1.0000
  O   O17       1.0  0.97692  0.8246899999999999  0.46364  1.0000
  O   O18       1.0  0.23511  0.9186599999999999  0.59391  1.0000
  O   O19       1.0  0.82778  0.11849  0.31866  1.0000
  O   O20       1.0  0.24317  0.28833  0.85076  1.0000
  O   O21       1.0  0.03431  0.18161  0.81763  1.0000
  O   O22       1.0  0.96031  0.76607  0.21235  1.0000
  O   O23       1.0  0.96805  0.82344  0.32941  1.0000
  O   O24       1.0  0.56651  0.04260999999999999  0.75728  1.0000
  O   O25       1.0  0.6099  0.28487  0.00454  1.0000
  O   O26       1.0  0.07420000000000002  0.91953  0.16951000000000005  1.0000
  O   O27       1.0  0.29947  0.56615  0.67126  1.0000
  O   O28       1.0  0.05311  0.5577  0.58289  1.0000
  O   O29       1.0  0.5533  0.39244  0.63437  1.0000
  O   O30       1.0  0.12162000000000002  0.71496  0.67852  1.0000
  O   O31       1.0  0.63818  0.38444  0.46821  1.0000
  O   O32       1.0  0.14374  0.34132  0.60054  1.0000
  P   P1        1.0  0.06413999999999997  0.40725  0.3409  1.0000
  P   P2        1.0  0.62206  0.71938  0.54749  1.0000
  P   P3        1.0  0.07244  0.78131  0.39974  1.0000
  P   P4        1.0  0.12556  0.59283  0.65911  1.0000
  P   P5        1.0  0.11962  0.21662  0.59465  1.0000
  P   P6        1.0  0.6097  0.60726  0.27472  1.0000
  P   P7        1.0  0.5697  0.26804  0.44516  1.0000
  P   P8        1.0  0.62545  0.34735999999999995  0.71041  1.0000
