data_image0
_chemical_formula_structural       C96Cr6O26CHOCHOCHOCHOCHOCHOCHOCHOCHOCHOCHOCHOCH3CH3CH3CH3CH3CH3CH3CH3CH3CH3CH3CH3CHOCHOCHOCHOCHOCHOCHOCHOCHOCHOCHOCHOCH3CH3CH3CH3CH3CH3CH3CH3CH3CH3CH3CH3
_chemical_formula_sum              "C144 Cr6 O50 H96"
_cell_length_a       13.92823
_cell_length_b       13.92631
_cell_length_c       31.7418
_cell_angle_alpha    90.06144
_cell_angle_beta     89.9672
_cell_angle_gamma    119.98764

_space_group_name_H-M_alt    "P 1"
_space_group_IT_number       1

loop_
  _space_group_symop_operation_xyz
  'x, y, z'

loop_
  _atom_site_type_symbol
  _atom_site_label
  _atom_site_symmetry_multiplicity
  _atom_site_fract_x
  _atom_site_fract_y
  _atom_site_fract_z
  _atom_site_occupancy
  C   C1        1.0  0.5652699999999998  0.44538  0.81001  1.0000
  C   C2        1.0  0.88073  0.43499  0.6901199999999997  1.0000
  C   C3        1.0  0.55455  0.12002999999999998  0.8100299999999998  1.0000
  C   C4        1.0  0.5650199999999997  0.44551  0.6901299999999998  1.0000
  C   C5        1.0  0.88055  0.43495  0.8099599999999998  1.0000
  C   C6        1.0  0.5544  0.11939999999999999  0.69008  1.0000
  C   C7        1.0  0.4455399999999999  0.56503  0.3098599999999999  1.0000
  C   C8        1.0  0.43491999999999986  0.88041  0.19002999999999995  1.0000
  C   C9        1.0  0.11942  0.55443  0.30992  1.0000
  C   C10       1.0  0.4455999999999999  0.56475  0.19023999999999994  1.0000
  C   C11       1.0  0.4350099999999999  0.88077  0.30988  1.0000
  C   C12       1.0  0.11914999999999999  0.55422  0.19016999999999995  1.0000
  C   C13       1.0  0.003950000000000005  0.5143  0.018739999999999993  1.0000
  C   C14       1.0  0.51794  0.01094  0.48010999999999987  1.0000
  C   C15       1.0  0.5045  0.49157  0.02042  1.0000
  C   C16       1.0  0.01132  0.5178  0.4820399999999999  1.0000
  C   C17       1.0  0.52459  0.03943  0.02231  1.0000
  C   C18       1.0  0.49736999999999987  0.49869  0.48111  1.0000
  C   C19       1.0  0.51769  0.01132  0.5179599999999998  1.0000
  C   C20       1.0  0.0035699999999999985  0.51489  0.9808899999999998  1.0000
  C   C21       1.0  0.49857  0.49745  0.5188999999999998  1.0000
  C   C22       1.0  0.52585  0.04627  0.9845799999999998  1.0000
  C   C23       1.0  0.01084999999999999  0.51798  0.5198899999999997  1.0000
  C   C24       1.0  0.50629  0.49084  0.9826299999999998  1.0000
  C   C25       1.0  0.9484  0.48115  0.84935  1.0000
  C   C26       1.0  0.53327  0.05298  0.65042  1.0000
  C   C27       1.0  0.52128  0.46581999999999996  0.8500599999999998  1.0000
  C   C28       1.0  0.94966  0.48146  0.65104  1.0000
  C   C29       1.0  0.53573  0.06024  0.8510099999999998  1.0000
  C   C30       1.0  0.51946  0.46696  0.65074  1.0000
  C   C31       1.0  0.48154  0.9498  0.34896  1.0000
  C   C32       1.0  0.05134999999999999  0.53235  0.15086  1.0000
  C   C33       1.0  0.4670499999999999  0.51952  0.3492499999999999  1.0000
  C   C34       1.0  0.48268999999999995  0.9510199999999999  0.15139  1.0000
  C   C35       1.0  0.053090000000000005  0.53339  0.3495799999999999  1.0000
  C   C36       1.0  0.46777  0.51739  0.15145999999999996  1.0000
  C   C37       1.0  0.95086  0.57249  0.87057  1.0000
  C   C38       1.0  0.62232  0.05163  0.62889  1.0000
  C   C39       1.0  0.43757  0.37529  0.8733199999999998  1.0000
  C   C40       1.0  0.95322  0.57311  0.6297  1.0000
  C   C41       1.0  0.62804  0.07027  0.8735499999999998  1.0000
  C   C42       1.0  0.4349799999999999  0.37714999999999993  0.6273699999999998  1.0000
  C   C43       1.0  0.57317  0.95336  0.37031999999999987  1.0000
  C   C44       1.0  0.048700000000000056  0.62086  0.12949999999999995  1.0000
  C   C45       1.0  0.3772899999999999  0.4349199999999999  0.37256  1.0000
  C   C46       1.0  0.5672899999999997  0.9463599999999998  0.12772999999999995  1.0000
  C   C47       1.0  0.05186000000000005  0.6225  0.3711299999999999  1.0000
  C   C48       1.0  0.37839  0.43308  0.12783999999999995  1.0000
  C   C49       1.0  0.9766299999999998  0.58882  0.91403  1.0000
  C   C50       1.0  0.61497  0.03257  0.58494  1.0000
  C   C51       1.0  0.43056999999999995  0.3852  0.9173599999999997  1.0000
  C   C52       1.0  0.9830699999999999  0.5912  0.5865999999999998  1.0000
  C   C53       1.0  0.6285  0.0782  0.9180299999999998  1.0000
  C   C54       1.0  0.4252  0.38917  0.5836699999999998  1.0000
  C   C55       1.0  0.59124  0.9832399999999998  0.4134199999999999  1.0000
  C   C56       1.0  0.02716999999999998  0.61247  0.08573  1.0000
  C   C57       1.0  0.3892499999999999  0.42517999999999995  0.41627  1.0000
  C   C58       1.0  0.58599  0.9818099999999998  0.08529  1.0000
  C   C59       1.0  0.032820000000000016  0.61518  0.4150699999999999  1.0000
  C   C60       1.0  0.39273  0.42084999999999995  0.08451999999999997  1.0000
  C   C61       1.0  0.0009599999999999787  0.51486  0.9354499999999998  1.0000
  C   C62       1.0  0.51805  0.01227  0.5633799999999998  1.0000
  C   C63       1.0  0.5044399999999999  0.48625999999999997  0.9372899999999997  1.0000
  C   C64       1.0  0.00747999999999999  0.51701  0.5652799999999998  1.0000
  C   C65       1.0  0.52816  0.04933  0.9392199999999998  1.0000
  C   C66       1.0  0.49719999999999986  0.49143999999999993  0.5642  1.0000
  C   C67       1.0  0.51705  0.00765  0.4347199999999999  1.0000
  C   C68       1.0  0.005680000000000006  0.51506  0.06417999999999997  1.0000
  C   C69       1.0  0.4914199999999999  0.49733  0.4357999999999999  1.0000
  C   C70       1.0  0.52256  0.02457  0.06728999999999997  1.0000
  C   C71       1.0  0.012369999999999983  0.51819  0.4366099999999999  1.0000
  C   C72       1.0  0.49658  0.49035999999999996  0.06567  1.0000
  C   C73       1.0  0.021019999999999994  0.43934999999999996  0.91292  1.0000
  C   C74       1.0  0.42214  0.99199  0.58585  1.0000
  C   C75       1.0  0.57299  0.58198  0.9133199999999998  1.0000
  C   C76       1.0  0.023249999999999976  0.43877999999999995  0.5879199999999998  1.0000
  C   C77       1.0  0.42847  0.0126  0.9163999999999998  1.0000
  C   C78       1.0  0.5661  0.58625  0.58856  1.0000
  C   C79       1.0  0.43887  0.02346  0.41205999999999987  1.0000
  C   C80       1.0  0.9861399999999999  0.41953999999999997  0.0867  1.0000
  C   C81       1.0  0.58623  0.56637  0.41149999999999987  1.0000
  C   C82       1.0  0.45336999999999994  0.04797  0.09244999999999998  1.0000
  C   C83       1.0  0.9920199999999998  0.42225  0.41411  1.0000
  C   C84       1.0  0.59047  0.55844  0.09056  1.0000
  C   C85       1.0  0.99743  0.42443  0.8692299999999997  1.0000
  C   C86       1.0  0.42866  0.00735  0.63003  1.0000
  C   C87       1.0  0.577  0.57245  0.8690699999999998  1.0000
  C   C88       1.0  0.99909  0.42466999999999994  0.63151  1.0000
  C   C89       1.0  0.43223  0.01711  0.87187  1.0000
  C   C90       1.0  0.57325  0.57458  0.63253  1.0000
  C   C91       1.0  0.4248  0.9993099999999999  0.3684599999999999  1.0000
  C   C92       1.0  0.004539999999999988  0.4272  0.13069999999999996  1.0000
  C   C93       1.0  0.5746199999999999  0.57347  0.36753  1.0000
  C   C94       1.0  0.43452  0.0126  0.13499  1.0000
  C   C95       1.0  0.007410000000000009  0.42875  0.3699499999999999  1.0000
  C   C96       1.0  0.57646  0.56816  0.13419999999999996  1.0000
  Cr  Cr1       1.0  0.50424  0.2492  0.7499999999999998  1.0000
  Cr  Cr2       1.0  0.7449599999999998  0.49576  0.7499999999999998  1.0000
  Cr  Cr3       1.0  0.7508  0.25504  0.7499999999999998  1.0000
  Cr  Cr4       1.0  0.2492  0.50424  0.24999999999999994  1.0000
  Cr  Cr5       1.0  0.49575999999999987  0.7449599999999998  0.24999999999999994  1.0000
  Cr  Cr6       1.0  0.25504  0.7508  0.24999999999999994  1.0000
  O   O1        1.0  0.48035  0.14077  0.79633  1.0000
  O   O2        1.0  0.66042  0.51965  0.70367  1.0000
  O   O3        1.0  0.8592299999999999  0.33957999999999994  0.79633  1.0000
  O   O4        1.0  0.48035  0.14077  0.70367  1.0000
  O   O5        1.0  0.66042  0.51965  0.79633  1.0000
  O   O6        1.0  0.8592299999999999  0.33957999999999994  0.70367  1.0000
  O   O7        1.0  0.14076999999999995  0.4803499999999999  0.29632999999999987  1.0000
  O   O8        1.0  0.51965  0.66042  0.20366999999999993  1.0000
  O   O9        1.0  0.33958000000000005  0.85923  0.29632999999999987  1.0000
  O   O10       1.0  0.14076999999999995  0.4803499999999999  0.20366999999999993  1.0000
  O   O11       1.0  0.51965  0.66042  0.29632999999999987  1.0000
  O   O12       1.0  0.33958000000000005  0.85923  0.20366999999999993  1.0000
  O   O13       1.0  0.51493  0.34853  0.7932499999999998  1.0000
  O   O14       1.0  0.8335999999999999  0.48506999999999995  0.7067499999999998  1.0000
  O   O15       1.0  0.65147  0.16639999999999996  0.7932499999999998  1.0000
  O   O16       1.0  0.51493  0.34853  0.7067499999999998  1.0000
  O   O17       1.0  0.8335999999999999  0.48506999999999995  0.7932499999999998  1.0000
  O   O18       1.0  0.65147  0.16639999999999996  0.7067499999999998  1.0000
  O   O19       1.0  0.34853  0.51493  0.2932499999999999  1.0000
  O   O20       1.0  0.48507  0.8336  0.20675  1.0000
  O   O21       1.0  0.16639999999999994  0.65147  0.2932499999999999  1.0000
  O   O22       1.0  0.34853  0.51493  0.20675  1.0000
  O   O23       1.0  0.48507  0.8336  0.2932499999999999  1.0000
  O   O24       1.0  0.16639999999999994  0.65147  0.20675  1.0000
  O   O25       1.0  0.66667  0.33333  0.7499999999999998  1.0000
  O   O26       1.0  0.33333  0.66667  0.24999999999999994  1.0000
  C   C97       1.0  0.9313100000000001  0.65329  0.84682  1.0000
  H   H1        1.0  0.9664699999999999  0.6793799999999999  0.8155699999999998  1.0000
  O   O27       1.0  0.8737499999999999  0.6887699999999999  0.8611699999999998  1.0000
  C   C98       1.0  0.72308  0.07047  0.6518799999999998  1.0000
  H   H2        1.0  0.80489  0.12919  0.6400399999999998  1.0000
  O   O28       1.0  0.71498  0.01868  0.6839799999999998  1.0000
  C   C99       1.0  0.35752  0.27051  0.8520299999999997  1.0000
  H   H3        1.0  0.34362999999999994  0.19148  0.8637799999999998  1.0000
  O   O29       1.0  0.30525  0.2721199999999999  0.8214299999999998  1.0000
  C   C100      1.0  0.92997  0.65229  0.65284  1.0000
  H   H4        1.0  0.9634399999999999  0.67937  0.6842599999999998  1.0000
  O   O30       1.0  0.87121  0.6853499999999999  0.6377099999999998  1.0000
  C   C101      1.0  0.7173399999999998  0.06315999999999998  0.8498799999999997  1.0000
  H   H5        1.0  0.7024299999999999  0.03307  0.81766  1.0000
  O   O31       1.0  0.8059899999999999  0.08602  0.86574  1.0000
  C   C102      1.0  0.3573099999999999  0.2706  0.6480899999999998  1.0000
  H   H6        1.0  0.3449599999999999  0.19294  0.63534  1.0000
  O   O32       1.0  0.30498  0.26916  0.6791899999999997  1.0000
  C   C103      1.0  0.65232  0.93008  0.3472  1.0000
  H   H7        1.0  0.67936  0.9634699999999999  0.3157799999999999  1.0000
  O   O33       1.0  0.68543  0.87138  0.36235  1.0000
  C   C104      1.0  0.06884999999999995  0.7222299999999999  0.15243999999999994  1.0000
  H   H8        1.0  0.1273499999999999  0.8037499999999999  0.14027999999999993  1.0000
  O   O34       1.0  0.01833999999999996  0.71494  0.18483999999999998  1.0000
  C   C105      1.0  0.27088999999999996  0.3570499999999999  0.3517599999999999  1.0000
  H   H9        1.0  0.19310999999999995  0.34442  0.36446  1.0000
  O   O35       1.0  0.2697  0.30488  0.3206299999999999  1.0000
  C   C106      1.0  0.6387999999999999  0.90779  0.14757  1.0000
  H   H10       1.0  0.67551  0.9396699999999999  0.17821999999999993  1.0000
  O   O36       1.0  0.65521  0.8387599999999998  0.13047  1.0000
  C   C107      1.0  0.07078999999999992  0.7232999999999999  0.34816999999999987  1.0000
  H   H11       1.0  0.12962  0.8051  0.3600099999999999  1.0000
  O   O37       1.0  0.018949999999999936  0.7152399999999999  0.31607  1.0000
  C   C108      1.0  0.26965999999999996  0.35840999999999995  0.14772999999999994  1.0000
  H   H12       1.0  0.19401  0.34884  0.13404999999999995  1.0000
  O   O38       1.0  0.26404  0.30506  0.17906999999999995  1.0000
  C   C109      1.0  0.02668000000000001  0.70582  0.061139999999999986  1.0000
  H   H13       1.0  0.02726999999999996  0.7714099999999999  0.08099999999999997  1.0000
  H   H14       1.0  0.09998000000000004  0.74488  0.040019999999999986  1.0000
  H   H15       1.0  0.9499299999999999  0.6719599999999999  0.041919999999999985  1.0000
  C   C110      1.0  0.68962  0.9891399999999999  0.4364699999999999  1.0000
  H   H16       1.0  0.76619  0.03564  0.4174099999999999  1.0000
  H   H17       1.0  0.70726  0.03416999999999999  0.4667699999999999  1.0000
  H   H18       1.0  0.6742  0.9041499999999999  0.4427199999999999  1.0000
  C   C111      1.0  0.29878  0.33493  0.05747999999999999  1.0000
  H   H19       1.0  0.22433999999999996  0.27552  0.07532  1.0000
  H   H20       1.0  0.27314  0.37742  0.03427  1.0000
  H   H21       1.0  0.32759  0.28429  0.04045  1.0000
  C   C112      1.0  0.03393999999999995  0.70921  0.43986  1.0000
  H   H22       1.0  0.034249999999999975  0.7748  0.4201499999999999  1.0000
  H   H23       1.0  0.9579999999999999  0.67604  0.4595399999999999  1.0000
  H   H24       1.0  0.1081  0.74821  0.4605499999999999  1.0000
  C   C113      1.0  0.67399  0.97388  0.05958999999999998  1.0000
  H   H25       1.0  0.7540599999999998  0.014019999999999998  0.07684999999999999  1.0000
  H   H26       1.0  0.6474899999999998  0.88557  0.05348999999999999  1.0000
  H   H27       1.0  0.69097  0.01614  0.028779999999999993  1.0000
  C   C114      1.0  0.2947699999999999  0.33881  0.4429599999999999  1.0000
  H   H28       1.0  0.22129999999999994  0.27857  0.4248599999999999  1.0000
  H   H29       1.0  0.32388999999999996  0.28918  0.46045999999999987  1.0000
  H   H30       1.0  0.2673799999999999  0.3808  0.4657499999999999  1.0000
  C   C115      1.0  0.70892  0.03355  0.56018  1.0000
  H   H31       1.0  0.77434  0.03354  0.57991  1.0000
  H   H32       1.0  0.67565  0.95769  0.5404199999999998  1.0000
  H   H33       1.0  0.7481399999999998  0.10783  0.53957  1.0000
  C   C116      1.0  0.9796199999999998  0.68582  0.9371499999999998  1.0000
  H   H34       1.0  0.030090000000000023  0.76373  0.9192299999999998  1.0000
  H   H35       1.0  0.89407  0.67088  0.9412799999999998  1.0000
  H   H36       1.0  0.018869999999999908  0.7006099999999998  0.9685399999999997  1.0000
  C   C117      1.0  0.3389499999999999  0.29465  0.5569199999999997  1.0000
  H   H37       1.0  0.2788  0.22109  0.57497  1.0000
  H   H38       1.0  0.28924  0.32367  0.5394199999999998  1.0000
  H   H39       1.0  0.38105  0.2674  0.53412  1.0000
  C   C118      1.0  0.7360499999999999  0.12079  0.9424  1.0000
  H   H40       1.0  0.8029199999999999  0.19576  0.9267399999999998  1.0000
  H   H41       1.0  0.73187  0.14829  0.9747499999999998  1.0000
  H   H42       1.0  0.75925  0.0554  0.9443799999999998  1.0000
  C   C119      1.0  0.9889499999999999  0.6896  0.5636  1.0000
  H   H43       1.0  0.035499999999999955  0.76618  0.5826799999999998  1.0000
  H   H44       1.0  0.033900000000000034  0.70722  0.5332899999999998  1.0000
  H   H45       1.0  0.9039699999999999  0.6742  0.55735  1.0000
  C   C120      1.0  0.3450099999999999  0.28989  0.9439499999999997  1.0000
  H   H46       1.0  0.28423  0.21693  0.9257699999999998  1.0000
  H   H47       1.0  0.38761  0.26178  0.9661099999999998  1.0000
  H   H48       1.0  0.29593  0.31852  0.9621399999999998  1.0000
  C   C121      1.0  0.9708799999999999  0.32431  0.15542999999999996  1.0000
  H   H49       1.0  0.97616  0.25559  0.14188  1.0000
  O   O39       1.0  0.93251  0.31376  0.19083999999999995  1.0000
  C   C122      1.0  0.35344  0.02972  0.34348  1.0000
  H   H50       1.0  0.2788  0.02296  0.3570199999999999  1.0000
  O   O40       1.0  0.38021999999999995  0.06718  0.30792  1.0000
  C   C123      1.0  0.67591  0.62824  0.16170999999999994  1.0000
  H   H51       1.0  0.75199  0.69732  0.14966999999999994  1.0000
  O   O41       1.0  0.6749799999999998  0.59806  0.19788999999999995  1.0000
  C   C124      1.0  0.97179  0.32525  0.3452599999999999  1.0000
  H   H52       1.0  0.9766099999999998  0.25619  0.35865999999999987  1.0000
  O   O42       1.0  0.9322999999999999  0.31459  0.3100599999999999  1.0000
  C   C125      1.0  0.36495999999999995  0.04052  0.16213  1.0000
  H   H53       1.0  0.28663  0.029269999999999997  0.15067999999999995  1.0000
  O   O43       1.0  0.39581  0.07787  0.19749999999999995  1.0000
  C   C126      1.0  0.67553  0.63405  0.34078999999999987  1.0000
  H   H54       1.0  0.75013  0.70456  0.3530599999999999  1.0000
  O   O44       1.0  0.67753  0.60267  0.3050199999999999  1.0000
  C   C127      1.0  0.32517  0.97176  0.65468  1.0000
  H   H55       1.0  0.2561199999999999  0.97656  0.64128  1.0000
  O   O45       1.0  0.3145399999999999  0.9323  0.68988  1.0000
  C   C128      1.0  0.025060000000000002  0.35087  0.8444599999999998  1.0000
  H   H56       1.0  0.007110000000000011  0.27098  0.8567099999999997  1.0000
  O   O46       1.0  0.07004999999999997  0.38028  0.8101299999999998  1.0000
  C   C129      1.0  0.63373  0.67547  0.6593299999999997  1.0000
  H   H57       1.0  0.70414  0.75017  0.6471  1.0000
  O   O47       1.0  0.60238  0.67735  0.69511  1.0000
  C   C130      1.0  0.3272499999999999  0.9714499999999998  0.8472499999999997  1.0000
  H   H58       1.0  0.2552299999999999  0.97178  0.8600399999999998  1.0000
  O   O48       1.0  0.3190799999999999  0.92917  0.8127299999999997  1.0000
  C   C131      1.0  0.029430000000000026  0.3532  0.6564499999999998  1.0000
  H   H59       1.0  0.02253000000000001  0.27851  0.64289  1.0000
  O   O49       1.0  0.06697999999999997  0.37998  0.6920199999999997  1.0000
  C   C132      1.0  0.63606  0.6744799999999999  0.8428199999999998  1.0000
  H   H60       1.0  0.70663  0.74895  0.8551299999999997  1.0000
  O   O50       1.0  0.60335  0.67756  0.8074199999999998  1.0000
  C   C133      1.0  0.9449399999999999  0.30915  0.06440999999999997  1.0000
  H   H61       1.0  0.92723  0.31107  0.030509999999999992  1.0000
  H   H62       1.0  0.008110000000000003  0.28304  0.06700999999999997  1.0000
  H   H63       1.0  0.86621  0.24525  0.07899  1.0000
  C   C134      1.0  0.37062  0.06664  0.4337999999999999  1.0000
  H   H64       1.0  0.28144  0.00248  0.43262  1.0000
  H   H65       1.0  0.39308  0.08924999999999998  0.4672699999999999  1.0000
  H   H66       1.0  0.3831499999999999  0.14291  0.4177599999999999  1.0000
  C   C135      1.0  0.7054599999999999  0.62037  0.07114999999999998  1.0000
  H   H67       1.0  0.70724  0.60287  0.03718999999999999  1.0000
  H   H68       1.0  0.73954  0.71106  0.07459  1.0000
  H   H69       1.0  0.76106  0.5963  0.08724999999999997  1.0000
  C   C136      1.0  0.95311  0.31258  0.4365799999999999  1.0000
  H   H70       1.0  0.93917  0.31541  0.4708  1.0000
  H   H71       1.0  0.8728999999999997  0.24845999999999993  0.4230399999999999  1.0000
  H   H72       1.0  0.01584999999999998  0.28625  0.43269999999999986  1.0000
  C   C137      1.0  0.40171999999999997  0.11126  0.07293  1.0000
  H   H73       1.0  0.33732  0.05749  0.04978999999999999  1.0000
  H   H74       1.0  0.36381  0.14211  0.09595999999999998  1.0000
  H   H75       1.0  0.46656  0.18586  0.05636  1.0000
  C   C138      1.0  0.6997599999999999  0.63216  0.43186999999999987  1.0000
  H   H76       1.0  0.69999  0.61734  0.4661399999999999  1.0000
  H   H77       1.0  0.75802  0.6093  0.41722  1.0000
  H   H78       1.0  0.73173  0.72221  0.4274199999999999  1.0000
  C   C139      1.0  0.31250999999999995  0.9531799999999998  0.5633599999999997  1.0000
  H   H79       1.0  0.31534  0.9392799999999999  0.5291299999999998  1.0000
  H   H80       1.0  0.24834999999999996  0.8729699999999999  0.5768499999999998  1.0000
  H   H81       1.0  0.28626  0.01597  0.5672599999999998  1.0000
  C   C140      1.0  0.06855000000000001  0.37731  0.93637  1.0000
  H   H82       1.0  0.004120000000000001  0.31401  0.9572499999999998  1.0000
  H   H83       1.0  0.10083999999999997  0.33592999999999995  0.9157099999999998  1.0000
  H   H84       1.0  0.13996999999999996  0.4363  0.9559699999999998  1.0000
  C   C141      1.0  0.63171  0.6998599999999999  0.5682699999999998  1.0000
  H   H85       1.0  0.6168499999999998  0.7001299999999999  0.5339999999999998  1.0000
  H   H86       1.0  0.60873  0.758  0.5829599999999998  1.0000
  H   H87       1.0  0.72178  0.73197  0.5727199999999998  1.0000
  C   C142      1.0  0.31800999999999996  0.96952  0.9388499999999997  1.0000
  H   H88       1.0  0.3231299999999999  0.9659  0.9735699999999998  1.0000
  H   H89       1.0  0.28334  0.02423  0.9317899999999998  1.0000
  H   H90       1.0  0.25912  0.88395  0.92802  1.0000
  C   C143      1.0  0.06641  0.37052  0.5661599999999998  1.0000
  H   H91       1.0  0.002210000000000007  0.28135  0.5672599999999998  1.0000
  H   H92       1.0  0.08911999999999998  0.39309  0.53271  1.0000
  H   H93       1.0  0.14262  0.38296  0.58223  1.0000
  C   C144      1.0  0.6414999999999998  0.69432  0.9343299999999998  1.0000
  H   H94       1.0  0.63026  0.69295  0.9689099999999998  1.0000
  H   H95       1.0  0.7309  0.72579  0.9283599999999997  1.0000
  H   H96       1.0  0.61805  0.75383  0.9213999999999998  1.0000
