data_image0
_chemical_formula_structural       C100Cr12H44O52I4OCH2CH3OCH2CH3OCH2CH3OCH2CH3
_chemical_formula_sum              "C108 Cr12 H64 O56 I4"
_cell_length_a       18.79277
_cell_length_b       10.93799
_cell_length_c       18.71714
_cell_angle_alpha    89.9839
_cell_angle_beta     90.75585
_cell_angle_gamma    89.35389000000002

_space_group_name_H-M_alt    "P 1"
_space_group_IT_number       1

loop_
  _space_group_symop_operation_xyz
  'x, y, z'

loop_
  _atom_site_type_symbol
  _atom_site_label
  _atom_site_symmetry_multiplicity
  _atom_site_fract_x
  _atom_site_fract_y
  _atom_site_fract_z
  _atom_site_occupancy
  C   C1        1.0  0.2719  0.04258  0.85351  1.0000
  C   C2        1.0  0.71057  0.99853  0.13873  1.0000
  C   C3        1.0  0.7719000000000001  0.54258  0.85351  1.0000
  C   C4        1.0  0.21057  0.4985299999999999  0.13873  1.0000
  C   C5        1.0  0.52886  0.72843  0.97309  1.0000
  C   C6        1.0  0.46921  0.72588  0.028980000000000002  1.0000
  C   C7        1.0  0.02886  0.22843  0.97309  1.0000
  C   C8        1.0  0.96921  0.22588  0.028980000000000002  1.0000
  C   C9        1.0  0.29904  0.51653  0.9592999999999999  1.0000
  C   C10       1.0  0.69639  0.53357  0.03711  1.0000
  C   C11       1.0  0.7990400000000001  0.01653  0.9592999999999999  1.0000
  C   C12       1.0  0.19639  0.03357  0.03711  1.0000
  C   C13       1.0  0.28801000000000004  0.48806  0.03091  1.0000
  C   C14       1.0  0.7002400000000001  0.52001  0.96327  1.0000
  C   C15       1.0  0.78801  0.98806  0.03091  1.0000
  C   C16       1.0  0.20024  0.02001  0.96327  1.0000
  C   C17       1.0  0.22383999999999998  0.52246  0.0635  1.0000
  C   C18       1.0  0.75404  0.57935  0.9255800000000001  1.0000
  C   C19       1.0  0.7238400000000001  0.02246  0.0635  1.0000
  C   C20       1.0  0.25404  0.07935  0.9255800000000001  1.0000
  C   C21       1.0  0.1699  0.57916  0.02313  1.0000
  C   C22       1.0  0.80231  0.65417  0.96183  1.0000
  C   C23       1.0  0.6699  0.07916  0.02313  1.0000
  C   C24       1.0  0.30231  0.15417  0.96183  1.0000
  C   C25       1.0  0.18035000000000007  0.60567  0.9521700000000001  1.0000
  C   C26       1.0  0.80088  0.66205  0.03477  1.0000
  C   C27       1.0  0.68034  0.10567  0.9521700000000001  1.0000
  C   C28       1.0  0.30088  0.16204999999999997  0.03477  1.0000
  C   C29       1.0  0.24561000000000002  0.57826  0.92012  1.0000
  C   C30       1.0  0.7476  0.60339  0.07323  1.0000
  C   C31       1.0  0.74561  0.07826  0.92012  1.0000
  C   C32       1.0  0.2476  0.10339  0.07323  1.0000
  C   C33       1.0  0.55549  0.79454  0.54962  1.0000
  C   C34       1.0  0.5685  0.7942699999999999  0.47686000000000006  1.0000
  C   C35       1.0  0.05549  0.29453  0.54962  1.0000
  C   C36       1.0  0.0685  0.29426  0.47686000000000006  1.0000
  C   C37       1.0  0.51478  0.8305099999999999  0.42817  1.0000
  C   C38       1.0  0.48922999999999994  0.83405  0.57331  1.0000
  C   C39       1.0  0.01478  0.33051  0.42817  1.0000
  C   C40       1.0  0.9892300000000002  0.33405  0.57331  1.0000
  C   C41       1.0  0.44809000000000004  0.86719  0.45172  1.0000
  C   C42       1.0  0.43561  0.87063  0.52458  1.0000
  C   C43       1.0  0.9480900000000001  0.3672  0.45172  1.0000
  C   C44       1.0  0.9356100000000002  0.37064  0.52458  1.0000
  C   C45       1.0  0.46992000000000006  0.82116  0.85586  1.0000
  C   C46       1.0  0.52818  0.82208  0.14519  1.0000
  C   C47       1.0  0.96992  0.32116  0.85586  1.0000
  C   C48       1.0  0.02818  0.32208  0.14519  1.0000
  C   C49       1.0  0.1702  0.57424  0.55018  1.0000
  C   C50       1.0  0.8149  0.62358  0.46342  1.0000
  C   C51       1.0  0.6702  0.07425  0.55018  1.0000
  C   C52       1.0  0.3149  0.12357  0.46342  1.0000
  C   C53       1.0  0.16020000000000004  0.5499  0.47828000000000004  1.0000
  C   C54       1.0  0.8128500000000001  0.6318  0.53588  1.0000
  C   C55       1.0  0.6602  0.0499  0.47828000000000004  1.0000
  C   C56       1.0  0.31285  0.13179  0.53588  1.0000
  C   C57       1.0  0.21595  0.50311  0.43814  1.0000
  C   C58       1.0  0.75661  0.58106  0.57348  1.0000
  C   C59       1.0  0.71595  0.0031099999999999995  0.43814  1.0000
  C   C60       1.0  0.25661  0.08105  0.57348  1.0000
  C   C61       1.0  0.27871  0.46393  0.47226999999999997  1.0000
  C   C62       1.0  0.6981200000000001  0.53242  0.53752  1.0000
  C   C63       1.0  0.77871  0.9639299999999997  0.47226999999999997  1.0000
  C   C64       1.0  0.19812  0.03241  0.53752  1.0000
  C   C65       1.0  0.29265  0.49707  0.54309  1.0000
  C   C66       1.0  0.69573  0.53438  0.46359999999999996  1.0000
  C   C67       1.0  0.7926500000000001  0.9970699999999999  0.54309  1.0000
  C   C68       1.0  0.19573000000000002  0.03437  0.46359999999999996  1.0000
  C   C69       1.0  0.23933  0.56066  0.58119  1.0000
  C   C70       1.0  0.7532  0.58565  0.42613  1.0000
  C   C71       1.0  0.73933  0.06066  0.58119  1.0000
  C   C72       1.0  0.25321000000000005  0.08564  0.42613  1.0000
  C   C73       1.0  0.26007  0.63438  0.85123  1.0000
  C   C74       1.0  0.73902  0.63863  0.14738  1.0000
  C   C75       1.0  0.76007  0.13439  0.85123  1.0000
  C   C76       1.0  0.23902  0.13863  0.14738  1.0000
  C   C77       1.0  0.27132  0.046509999999999996  0.64602  1.0000
  C   C78       1.0  0.70763  0.9931499999999998  0.36111  1.0000
  C   C79       1.0  0.77131  0.54651  0.64602  1.0000
  C   C80       1.0  0.20763  0.4931499999999999  0.36111  1.0000
  C   C81       1.0  0.47024999999999995  0.8236499999999998  0.64723  1.0000
  C   C82       1.0  0.5304500000000001  0.8236499999999998  0.35328  1.0000
  C   C83       1.0  0.97025  0.32365  0.64723  1.0000
  C   C84       1.0  0.03045  0.32365  0.35328  1.0000
  C   C85       1.0  0.25796  0.63058  0.64563  1.0000
  C   C86       1.0  0.7412  0.63401  0.35537  1.0000
  C   C87       1.0  0.75796  0.13058  0.64563  1.0000
  C   C88       1.0  0.2412  0.13401  0.35537  1.0000
  C   C89       1.0  0.46462  0.92747  0.02894  1.0000
  C   C90       1.0  0.52411  0.9299299999999998  0.97245  1.0000
  C   C91       1.0  0.96462  0.42746999999999996  0.02894  1.0000
  C   C92       1.0  0.024109999999999996  0.42993  0.97245  1.0000
  C   C93       1.0  0.42694  0.8246199999999998  0.9867099999999999  1.0000
  C   C94       1.0  0.5665099999999998  0.83113  0.01471  1.0000
  C   C95       1.0  0.92694  0.32462  0.9867099999999999  1.0000
  C   C96       1.0  0.06651  0.33113999999999993  0.01471  1.0000
  C   C97       1.0  0.48728  0.8270999999999998  0.93182  1.0000
  C   C98       1.0  0.50653  0.8286199999999999  0.07004  1.0000
  C   C99       1.0  0.98728  0.3271  0.93182  1.0000
  C   C100      1.0  0.0065400000000000015  0.32862  0.07004  1.0000
  Cr  Cr1       1.0  0.22963  0.8359  0.74735  1.0000
  Cr  Cr2       1.0  0.77037  0.8359  0.25265  1.0000
  Cr  Cr3       1.0  0.72963  0.3358999999999999  0.74735  1.0000
  Cr  Cr4       1.0  0.27037  0.3358999999999999  0.25265  1.0000
  Cr  Cr5       1.0  0.38741  0.98985  0.75085  1.0000
  Cr  Cr6       1.0  0.61259  0.98985  0.24915  1.0000
  Cr  Cr7       1.0  0.8874100000000001  0.48985  0.75085  1.0000
  Cr  Cr8       1.0  0.11259  0.48985  0.24915  1.0000
  Cr  Cr9       1.0  0.3858  0.67712  0.74934  1.0000
  Cr  Cr10      1.0  0.6142  0.67712  0.25066  1.0000
  Cr  Cr11      1.0  0.8858  0.17712  0.74934  1.0000
  Cr  Cr12      1.0  0.11420000000000001  0.17712  0.25066  1.0000
  H   H1        1.0  0.36924  0.82182  0.97319  1.0000
  H   H2        1.0  0.6243200000000001  0.8313999999999999  0.02758  1.0000
  H   H3        1.0  0.86924  0.32182  0.97319  1.0000
  H   H4        1.0  0.12432000000000001  0.3313999999999999  0.02758  1.0000
  H   H5        1.0  0.10884  0.56885  0.45344  1.0000
  H   H6        1.0  0.8595400000000001  0.6676999999999998  0.56279  1.0000
  H   H7        1.0  0.60884  0.06885  0.45344  1.0000
  H   H8        1.0  0.35955000000000004  0.16769  0.56278  1.0000
  H   H9        1.0  0.3182400000000001  0.41281  0.44293  1.0000
  H   H10       1.0  0.65506  0.49123999999999995  0.56654  1.0000
  H   H11       1.0  0.81824  0.91281  0.44293  1.0000
  H   H12       1.0  0.15507  0.9912299999999999  0.56654  1.0000
  H   H13       1.0  0.43807000000000007  0.0081  0.05334  1.0000
  H   H14       1.0  0.5443200000000001  0.012669999999999999  0.9458800000000002  1.0000
  H   H15       1.0  0.93807  0.5081  0.05334  1.0000
  H   H16       1.0  0.04432  0.51267  0.9458800000000002  1.0000
  H   H17       1.0  0.55559  0.64778  0.94889  1.0000
  H   H18       1.0  0.44593000000000005  0.643  0.05322  1.0000
  H   H19       1.0  0.05559  0.14778  0.94889  1.0000
  H   H20       1.0  0.94593  0.143  0.05322  1.0000
  H   H21       1.0  0.35012000000000004  0.49566  0.93581  1.0000
  H   H22       1.0  0.65374  0.49022999999999994  0.0657  1.0000
  H   H23       1.0  0.8501199999999999  0.99566  0.93581  1.0000
  H   H24       1.0  0.15374  0.9902299999999999  0.0657  1.0000
  H   H25       1.0  0.33033  0.44332  0.06114  1.0000
  H   H26       1.0  0.66287  0.46059  0.93623  1.0000
  H   H27       1.0  0.83033  0.94332  0.06114  1.0000
  H   H28       1.0  0.16287000000000001  0.9605899999999999  0.93623  1.0000
  H   H29       1.0  0.11947  0.6045  0.04669  1.0000
  H   H30       1.0  0.8443600000000001  0.70147  0.9344400000000002  1.0000
  H   H31       1.0  0.61947  0.1045  0.04669  1.0000
  H   H32       1.0  0.34436  0.20146999999999998  0.9344400000000002  1.0000
  H   H33       1.0  0.13814  0.65376  0.9234999999999999  1.0000
  H   H34       1.0  0.8407700000000001  0.71816  0.06055  1.0000
  H   H35       1.0  0.63814  0.15376  0.9234999999999999  1.0000
  H   H36       1.0  0.34077  0.21816  0.06055  1.0000
  H   H37       1.0  0.59639  0.7637099999999999  0.58699  1.0000
  H   H38       1.0  0.62033  0.7652999999999999  0.45822000000000007  1.0000
  H   H39       1.0  0.09639  0.26369  0.58699  1.0000
  H   H40       1.0  0.12032999999999999  0.26528  0.45822000000000007  1.0000
  H   H41       1.0  0.40595  0.8910899999999999  0.41407  1.0000
  H   H42       1.0  0.38315  0.89635  0.54303  1.0000
  H   H43       1.0  0.90595  0.3910999999999999  0.41407  1.0000
  H   H44       1.0  0.88315  0.39637  0.54303  1.0000
  O   O1        1.0  0.21427000000000002  0.709  0.82747  1.0000
  O   O2        1.0  0.78573  0.709  0.17253  1.0000
  O   O3        1.0  0.71427  0.209  0.82747  1.0000
  O   O4        1.0  0.28573  0.209  0.17253  1.0000
  O   O5        1.0  0.44595  0.91944  0.67652  1.0000
  O   O6        1.0  0.5540500000000002  0.91944  0.32348  1.0000
  O   O7        1.0  0.94595  0.41944  0.67652  1.0000
  O   O8        1.0  0.05405000000000001  0.41944  0.32348  1.0000
  O   O9        1.0  0.45673  0.71763  0.66984  1.0000
  O   O10       1.0  0.54327  0.71763  0.33016  1.0000
  O   O11       1.0  0.9567300000000001  0.21762999999999993  0.66984  1.0000
  O   O12       1.0  0.04327  0.21762999999999993  0.33016  1.0000
  O   O13       1.0  0.32062  0.62564  0.67292  1.0000
  O   O14       1.0  0.6793800000000001  0.62564  0.32708  1.0000
  O   O15       1.0  0.82062  0.12564  0.67292  1.0000
  O   O16       1.0  0.17938  0.12564  0.32708  1.0000
  O   O17       1.0  0.33428  0.8342899999999999  0.74918  1.0000
  O   O18       1.0  0.66572  0.8342899999999999  0.25082  1.0000
  O   O19       1.0  0.83428  0.33429  0.74918  1.0000
  O   O20       1.0  0.16572  0.33429  0.25082  1.0000
  O   O21       1.0  0.23616000000000004  0.95849  0.82313  1.0000
  O   O22       1.0  0.76384  0.95849  0.17687  1.0000
  O   O23       1.0  0.73616  0.4584899999999999  0.82313  1.0000
  O   O24       1.0  0.26384  0.4584899999999999  0.17687  1.0000
  O   O25       1.0  0.33208  0.07546999999999998  0.83128  1.0000
  O   O26       1.0  0.66792  0.07546999999999998  0.16872  1.0000
  O   O27       1.0  0.83208  0.57547  0.83128  1.0000
  O   O28       1.0  0.16792  0.57547  0.16872  1.0000
  O   O29       1.0  0.44630000000000003  0.9181099999999998  0.82662  1.0000
  O   O30       1.0  0.5537  0.9181099999999998  0.17338  1.0000
  O   O31       1.0  0.9463  0.4181099999999999  0.82662  1.0000
  O   O32       1.0  0.053700000000000005  0.4181099999999999  0.17338  1.0000
  O   O33       1.0  0.45711  0.7162  0.83176  1.0000
  O   O34       1.0  0.54289  0.7162  0.16824  1.0000
  O   O35       1.0  0.95711  0.2162  0.83176  1.0000
  O   O36       1.0  0.04289  0.2162  0.16824  1.0000
  O   O37       1.0  0.32098  0.62431  0.82303  1.0000
  O   O38       1.0  0.67902  0.62431  0.17697  1.0000
  O   O39       1.0  0.82098  0.12431  0.82303  1.0000
  O   O40       1.0  0.17902  0.12431  0.17697  1.0000
  O   O41       1.0  0.21389  0.71043  0.66554  1.0000
  O   O42       1.0  0.78611  0.71043  0.33446  1.0000
  O   O43       1.0  0.71389  0.21043  0.66554  1.0000
  O   O44       1.0  0.28611  0.21043  0.33446  1.0000
  O   O45       1.0  0.23581  0.9598199999999999  0.67302  1.0000
  O   O46       1.0  0.76419  0.9598199999999999  0.32698  1.0000
  O   O47       1.0  0.73581  0.45981999999999995  0.67302  1.0000
  O   O48       1.0  0.26419  0.45981999999999995  0.32698  1.0000
  O   O49       1.0  0.3317  0.0769  0.66935  1.0000
  O   O50       1.0  0.6683000000000001  0.0769  0.33065  1.0000
  O   O51       1.0  0.8317  0.5769  0.66935  1.0000
  O   O52       1.0  0.1683  0.5769  0.33065  1.0000
  I   I1        1.0  0.07642000000000002  0.6317  0.6046  1.0000
  I   I2        1.0  0.9147900000000001  0.67582  0.41912  1.0000
  I   I3        1.0  0.57642  0.13171  0.6046  1.0000
  I   I4        1.0  0.41479000000000005  0.1758  0.41911  1.0000
  O   O53       1.0  0.3558700000000001  0.46113999999999994  0.5764  1.0000
  C   C101      1.0  0.41414  0.51659  0.54255  1.0000
  H   H45       1.0  0.41034  0.61753  0.5478  1.0000
  H   H46       1.0  0.41738  0.49293  0.48495  1.0000
  C   C102      1.0  0.48300000000000004  0.47187  0.57761  1.0000
  H   H47       1.0  0.49023  0.37266999999999995  0.5673  1.0000
  H   H48       1.0  0.52847  0.52167  0.55473  1.0000
  H   H49       1.0  0.48183  0.48745  0.63617  1.0000
  O   O54       1.0  0.63361  0.50095  0.42897  1.0000
  C   C103      1.0  0.6327  0.37279  0.42158  1.0000
  H   H50       1.0  0.6190300000000001  0.32968  0.47338  1.0000
  H   H51       1.0  0.6846700000000001  0.33509  0.40286  1.0000
  C   C104      1.0  0.57604  0.34043  0.36635  1.0000
  H   H52       1.0  0.59115  0.37585  0.3131  1.0000
  H   H53       1.0  0.57039  0.23979999999999999  0.36312  1.0000
  H   H54       1.0  0.5242  0.38199  0.38149  1.0000
  O   O55       1.0  0.85587  0.96114  0.5764  1.0000
  C   C105      1.0  0.91414  0.01659  0.54255  1.0000
  H   H55       1.0  0.9103400000000001  0.11753  0.5478  1.0000
  H   H56       1.0  0.91738  0.99293  0.48495  1.0000
  C   C106      1.0  0.98299  0.97187  0.57761  1.0000
  H   H57       1.0  0.99022  0.8726699999999998  0.5673  1.0000
  H   H58       1.0  0.02847  0.02166  0.55473  1.0000
  H   H59       1.0  0.9818300000000001  0.9874499999999999  0.63617  1.0000
  O   O56       1.0  0.13361  0.0009399999999999999  0.42897  1.0000
  C   C107      1.0  0.13267999999999996  0.87278  0.42161  1.0000
  H   H60       1.0  0.11898  0.8297099999999998  0.47341  1.0000
  H   H61       1.0  0.18466  0.83503  0.40293  1.0000
  C   C108      1.0  0.07605000000000002  0.8403999999999999  0.36636  1.0000
  H   H62       1.0  0.09119  0.87577  0.31311  1.0000
  H   H63       1.0  0.07039  0.73977  0.36314  1.0000
  H   H64       1.0  0.02421  0.88199  0.38145  1.0000
