data_image0
_chemical_formula_structural       C42Cu2H16N4O24
_chemical_formula_sum              "C42 Cu2 H16 N4 O24"
_cell_length_a       23.52606
_cell_length_b       8.686559999999998
_cell_length_c       7.56739
_cell_angle_alpha    103.47551000000001
_cell_angle_beta     95.62709999999998
_cell_angle_gamma    94.78176

_space_group_name_H-M_alt    "P 1"
_space_group_IT_number       1

loop_
  _space_group_symop_operation_xyz
  'x, y, z'

loop_
  _atom_site_type_symbol
  _atom_site_label
  _atom_site_symmetry_multiplicity
  _atom_site_fract_x
  _atom_site_fract_y
  _atom_site_fract_z
  _atom_site_occupancy
  C   C1        1.0  0.4981800000000001  0.19976  0.45279  1.0000
  C   C2        1.0  0.69617  0.56366  0.36584  1.0000
  C   C3        1.0  0.23416  0.45336  0.31184  1.0000
  C   C4        1.0  0.75517  0.5704400000000001  0.35443000000000013  1.0000
  C   C5        1.0  0.20771  0.5034599999999998  0.4719300000000001  1.0000
  C   C6        1.0  0.79049  0.5139999999999998  0.48188  1.0000
  C   C7        1.0  0.49746  0.031100000000000013  0.4272400000000001  1.0000
  C   C8        1.0  0.50269  0.96895  0.57279  1.0000
  C   C9        1.0  0.39111000000000007  0.50314  0.50064  1.0000
  C   C10       1.0  0.60874  0.49755  0.4996500000000001  1.0000
  C   C11       1.0  0.88626  0.6518  0.55038  1.0000
  C   C12       1.0  0.50188  0.80026  0.54722  1.0000
  C   C13       1.0  0.11177  0.3664  0.4260200000000001  1.0000
  C   C14       1.0  0.8718500000000001  0.3774999999999999  0.3929100000000001  1.0000
  C   C15       1.0  0.12498000000000001  0.6493  0.50079  1.0000
  C   C16       1.0  0.9312000000000001  0.37417  0.3782900000000001  1.0000
  C   C17       1.0  0.06596  0.65683  0.52001  1.0000
  C   C18       1.0  0.96858  0.51585  0.45639  1.0000
  C   C19       1.0  0.028550000000000002  0.51327  0.4572600000000001  1.0000
  C   C20       1.0  0.94591  0.6595199999999998  0.53431  1.0000
  C   C21       1.0  0.05144  0.36629  0.39778  1.0000
  C   C22       1.0  0.95389  0.23358  0.2900300000000001  1.0000
  C   C23       1.0  0.24128000000000002  0.55621  0.6421  1.0000
  C   C24       1.0  0.04347000000000001  0.80212  0.59357  1.0000
  C   C25       1.0  0.014010000000000007  0.22632000000000002  0.3102800000000001  1.0000
  C   C26       1.0  0.98341  0.80373  0.59823  1.0000
  C   C27       1.0  0.9153100000000001  0.1038  0.15722000000000005  1.0000
  C   C28       1.0  0.08299  0.9505800000000001  0.67721  1.0000
  C   C29       1.0  0.03763  0.07756  0.22223000000000007  1.0000
  C   C30       1.0  0.9604900000000001  0.9581099999999999  0.66739  1.0000
  C   C31       1.0  0.33402  0.6413400000000002  0.8393300000000002  1.0000
  C   C32       1.0  0.683  0.3524  0.75201  1.0000
  C   C33       1.0  0.20203000000000002  0.40604  0.12487000000000001  1.0000
  C   C34       1.0  0.76631  0.44998  0.61446  1.0000
  C   C35       1.0  0.77737  0.63511  0.20593  1.0000
  C   C36       1.0  0.44054  0.33726  0.93499  1.0000
  C   C37       1.0  0.55937  0.66295  0.06498  1.0000
  C   C38       1.0  0.30134  0.5638699999999999  0.6577500000000002  1.0000
  C   C39       1.0  0.70684  0.4379799999999999  0.62218  1.0000
  C   C40       1.0  0.32814  0.50705  0.49828  1.0000
  C   C41       1.0  0.67139  0.49863999999999997  0.4976600000000001  1.0000
  C   C42       1.0  0.29376  0.45171  0.32816000000000006  1.0000
  Cu  Cu1       1.0  0.50634  0.51738  0.6843800000000002  1.0000
  Cu  Cu2       1.0  0.49366  0.48261999999999994  0.31562000000000007  1.0000
  H   H1        1.0  0.21996  0.59765  0.76232  1.0000
  H   H2        1.0  0.90967  0.12180999999999999  0.61508  1.0000
  H   H3        1.0  0.37659  0.7033  0.85035  1.0000
  H   H4        1.0  0.6381  0.30561  0.73281  1.0000
  H   H5        1.0  0.22334  0.34885  0.01004  1.0000
  H   H6        1.0  0.7484500000000001  0.68569  0.11960000000000001  1.0000
  H   H7        1.0  0.43084000000000006  0.31133  0.79007  1.0000
  H   H8        1.0  0.56888  0.68931  0.20994000000000004  1.0000
  H   H9        1.0  0.79436  0.40422999999999987  0.7077500000000002  1.0000
  H   H10       1.0  0.3136  0.40918000000000004  0.20511000000000004  1.0000
  H   H11       1.0  0.66916  0.60943  0.27000000000000013  1.0000
  H   H12       1.0  0.49264  0.95786  0.28782  1.0000
  H   H13       1.0  0.50752  0.04219000000000002  0.71221  1.0000
  H   H14       1.0  0.8846  0.13446  0.05773  1.0000
  H   H15       1.0  0.12225  0.94541  0.7624900000000002  1.0000
  H   H16       1.0  0.0922  0.9750299999999998  0.055140000000000015  1.0000
  N   N1        1.0  0.85119  0.5148  0.47424  1.0000
  N   N2        1.0  0.14659  0.50615  0.46501  1.0000
  N   N3        1.0  0.48411  0.4564199999999999  0.03852  1.0000
  N   N4        1.0  0.51589  0.54358  0.9614800000000002  1.0000
  O   O1        1.0  0.50412  0.28613  0.61977  1.0000
  O   O2        1.0  0.13592000000000004  0.22962000000000002  0.4155900000000001  1.0000
  O   O3        1.0  0.8347900000000001  0.24389000000000002  0.33303  1.0000
  O   O4        1.0  0.16069  0.78216  0.5132  1.0000
  O   O5        1.0  0.91587  0.9641799999999999  0.16048  1.0000
  O   O6        1.0  0.07257  0.07931  0.6510400000000001  1.0000
  O   O7        1.0  0.02458  0.95339  0.26531  1.0000
  O   O8        1.0  0.07634  0.08103  0.09436000000000001  1.0000
  O   O9        1.0  0.97532  0.03455000000000005  0.8246100000000002  1.0000
  O   O10       1.0  0.92232  0.016150000000000057  0.5519800000000002  1.0000
  O   O11       1.0  0.31278  0.64109  0.98023  1.0000
  O   O12       1.0  0.49588000000000004  0.7138700000000002  0.3802300000000001  1.0000
  O   O13       1.0  0.71381  0.3295899999999999  0.88093  1.0000
  O   O14       1.0  0.1525  0.43398  0.09474000000000002  1.0000
  O   O15       1.0  0.82725  0.63099  0.17516000000000007  1.0000
  O   O16       1.0  0.41172  0.25792  0.014000000000000004  1.0000
  O   O17       1.0  0.58835  0.74185  0.9859  1.0000
  O   O18       1.0  0.49341  0.25677000000000005  0.30836000000000013  1.0000
  O   O19       1.0  0.50659  0.7432300000000001  0.6916400000000003  1.0000
  O   O20       1.0  0.42323000000000005  0.51463  0.6557300000000003  1.0000
  O   O21       1.0  0.57677  0.48537  0.34427000000000013  1.0000
  O   O22       1.0  0.41253  0.48528  0.3443200000000001  1.0000
  O   O23       1.0  0.58747  0.51472  0.6556800000000002  1.0000
  O   O24       1.0  0.86299  0.77756  0.64498  1.0000
