data_image0
_chemical_formula_structural       C36Cr6H8O26CNC2H5CNCN
_chemical_formula_sum              "C41 Cr6 H13 O26 N3"
_cell_length_a       10.55831
_cell_length_b       10.63566
_cell_length_c       16.93311
_cell_angle_alpha    80.78375
_cell_angle_beta     89.64568
_cell_angle_gamma    119.44368999999999

_symmetry_space_group_name_H-M    'P 1'
_symmetry_Int_Tables_number       1

loop_
  _symmetry_equiv_pos_as_xyz
  'x,y,z'

loop_
  _atom_site_type_symbol
  _atom_site_label
  _atom_site_symmetry_multiplicity
  _atom_site_fract_x
  _atom_site_fract_y
  _atom_site_fract_z
  _atom_site_occupancy
  C   C1        1.0  0.2798900000000001  0.8898400000000001  0.13271  1.0000
  C   C2        1.0  0.71429  0.2403  0.30923  1.0000
  C   C3        1.0  0.70191  0.20753999999999997  0.23311  1.0000
  C   C4        1.0  0.60291  0.22607  0.18533  1.0000
  C   C5        1.0  0.66964  0.8489800000000001  0.20522  1.0000
  C   C6        1.0  0.6801800000000001  0.8401100000000001  0.27507  1.0000
  C   C7        1.0  0.22975000000000012  0.85555  0.21572999999999995  1.0000
  C   C8        1.0  0.18095  0.83541  0.28362  1.0000
  C   C9        1.0  0.62047  0.2650800000000001  0.7752599999999998  1.0000
  C   C10       1.0  0.6338900000000001  0.3087600000000001  0.70473  1.0000
  C   C11       1.0  0.48687  0.80305  0.76946  1.0000
  C   C12       1.0  0.6080800000000001  0.20689  0.10213  1.0000
  C   C13       1.0  0.49957000000000007  0.7853400000000001  0.69106  1.0000
  C   C14       1.0  0.6386900000000001  0.8641800000000001  0.6468  1.0000
  C   C15       1.0  0.75209  0.98314  0.67489  1.0000
  C   C16       1.0  0.73639  0.0031700000000000183  0.75273  1.0000
  C   C17       1.0  0.6084599999999999  0.9025  0.80272  1.0000
  C   C18       1.0  0.0618700000000001  0.8855600000000001  0.7962999999999998  1.0000
  C   C19       1.0  0.03337000000000002  0.8759900000000002  0.71738  1.0000
  C   C20       1.0  0.04241000000000014  0.7707300000000001  0.68265  1.0000
  C   C21       1.0  0.05590000000000008  0.6590000000000003  0.73149  1.0000
  C   C22       1.0  0.09061000000000008  0.6686800000000002  0.8113499999999999  1.0000
  C   C23       1.0  0.64164  0.85789  0.12488999999999999  1.0000
  C   C24       1.0  0.11371000000000014  0.7967800000000002  0.83965  1.0000
  C   C25       1.0  0.68584  0.81118  0.3577  1.0000
  C   C26       1.0  0.68066  0.3806999999999999  0.4011  1.0000
  C   C27       1.0  0.10945999999999995  0.81295  0.36036  1.0000
  C   C28       1.0  0.67295  0.8073  0.58131  1.0000
  C   C29       1.0  0.67502  0.3753500000000001  0.62304  1.0000
  C   C30       1.0  0.02639000000000002  0.77359  0.59681  1.0000
  C   C31       1.0  0.20934000000000005  0.8543799999999999  0.90426  1.0000
  C   C32       1.0  0.61359  0.22072000000000003  0.85897  1.0000
  C   C33       1.0  0.5983200000000001  0.8966800000000003  0.8893  1.0000
  C   C34       1.0  0.5011100000000002  0.2590700000000001  0.21942999999999993  1.0000
  C   C35       1.0  0.5172  0.29499  0.29533  1.0000
  C   C36       1.0  0.63035  0.29613999999999996  0.33748  1.0000
  Cr  Cr1       1.0  0.40224  0.78389  0.01945  1.0000
  Cr  Cr2       1.0  0.38236  0.09790000000000001  0.9918  1.0000
  Cr  Cr3       1.0  0.71538  0.11817000000000001  0.9886999999999999  1.0000
  Cr  Cr4       1.0  0.9366499999999999  0.88242  0.46551  1.0000
  Cr  Cr5       1.0  0.60577  0.5656199999999999  0.4933600000000001  1.0000
  Cr  Cr6       1.0  0.92134  0.55049  0.49638  1.0000
  H   H1        1.0  0.0072099999999999925  0.95316  0.68227  1.0000
  H   H2        1.0  0.04123  0.56665  0.70606  1.0000
  H   H3        1.0  0.44846  0.3326200000000001  0.31881  1.0000
  H   H4        1.0  0.79867  0.23416000000000003  0.34287  1.0000
  H   H5        1.0  0.77468  0.17423999999999998  0.21016  1.0000
  H   H6        1.0  0.3842600000000002  0.7341400000000002  0.80588  1.0000
  H   H7        1.0  0.8564800000000001  0.05313  0.63941  1.0000
  H   H8        1.0  0.8271000000000002  0.0906900000000001  0.7750099999999998  1.0000
  O   O1        1.0  0.52178  0.75711  0.1089  1.0000
  O   O2        1.0  0.51333  0.22833  0.89866  1.0000
  O   O3        1.0  0.73923  0.2661299999999999  0.88805  1.0000
  O   O4        1.0  0.71258  0.9918500000000001  0.91877  1.0000
  O   O5        1.0  0.4999900000000001  0.9999800000000002  0.9999799999999999  1.0000
  O   O6        1.0  0.08377000000000005  0.9111700000000001  0.3760299999999999  1.0000
  O   O7        1.0  0.8087700000000001  0.88034  0.38389  1.0000
  O   O8        1.0  0.58434  0.68946  0.3941599999999999  1.0000
  O   O9        1.0  0.61432  0.44394  0.42359  1.0000
  O   O10       1.0  0.80502  0.41004000000000007  0.42134  1.0000
  O   O11       1.0  0.04924  0.68545  0.40328999999999987  1.0000
  O   O12       1.0  0.27516  0.78381  0.10112  1.0000
  O   O13       1.0  0.07752000000000003  0.9030099999999999  0.5518  1.0000
  O   O14       1.0  0.80298  0.87278  0.54683  1.0000
  O   O15       1.0  0.5780900000000001  0.6813000000000001  0.5699199999999998  1.0000
  O   O16       1.0  0.60853  0.43637  0.58653  1.0000
  O   O17       1.0  0.79877  0.40188000000000007  0.5971  1.0000
  O   O18       1.0  0.04345  0.67789  0.56623  1.0000
  O   O19       1.0  0.82125  0.66618  0.48508999999999997  1.0000
  O   O20       1.0  0.2379  0.9726  0.09098  1.0000
  O   O21       1.0  0.51119  0.22054000000000004  0.06162  1.0000
  O   O22       1.0  0.73692  0.25772000000000006  0.06384  1.0000
  O   O23       1.0  0.7104500000000001  0.98405  0.08171999999999997  1.0000
  O   O24       1.0  0.52409  0.76552  0.9331099999999998  1.0000
  O   O25       1.0  0.2773  0.7916000000000001  0.93816  1.0000
  O   O26       1.0  0.24021  0.98101  0.9151899999999997  1.0000
  C   C37       1.0  0.38475999999999994  0.26659  0.1782  1.0000
  N   N1        1.0  0.29143  0.27283  0.14556  1.0000
  C   C38       1.0  0.09022999999999998  0.54064  0.8677199999999998  1.0000
  C   C39       1.0  0.06792000000000004  0.4106600000000001  0.83008  1.0000
  H   H9        1.0  0.9660600000000001  0.36453  0.79993  1.0000
  H   H10       1.0  0.16255  0.44394  0.7864399999999998  1.0000
  H   H11       1.0  0.06037999999999998  0.32321999999999995  0.8786  1.0000
  H   H12       1.0  0.19410999999999998  0.5754  0.89489  1.0000
  H   H13       1.0  0.0026399999999999544  0.49974999999999997  0.91757  1.0000
  C   C40       1.0  0.37167000000000006  0.6787000000000001  0.65968  1.0000
  N   N2        1.0  0.27119000000000004  0.5931800000000002  0.63335  1.0000
  C   C41       1.0  0.03988000000000009  0.9901100000000003  0.8304799999999998  1.0000
  N   N3        1.0  0.02336000000000001  0.07346000000000003  0.85888  1.0000
