data_image0
_chemical_formula_structural       O16C8O4V4C72H40
_chemical_formula_sum              "O20 C80 V4 H40"
_cell_length_a       7.22342
_cell_length_b       12.139169999999998
_cell_length_c       29.09888
_cell_angle_alpha    90.00219
_cell_angle_beta     89.96233000000001
_cell_angle_gamma    89.76679

_space_group_name_H-M_alt    "P 1"
_space_group_IT_number       1

loop_
  _space_group_symop_operation_xyz
  'x, y, z'

loop_
  _atom_site_type_symbol
  _atom_site_label
  _atom_site_symmetry_multiplicity
  _atom_site_fract_x
  _atom_site_fract_y
  _atom_site_fract_z
  _atom_site_occupancy
  O   O1        1.0  0.64717  0.84918  0.20122000000000007  1.0000
  O   O2        1.0  0.35283  0.15082  0.79878  1.0000
  O   O3        1.0  0.35283  0.15082  0.70122  1.0000
  O   O4        1.0  0.64717  0.84918  0.29878  1.0000
  O   O5        1.0  0.14717  0.65082  0.29878  1.0000
  O   O6        1.0  0.8528300000000002  0.34918  0.70122  1.0000
  O   O7        1.0  0.8528300000000002  0.34918  0.79878  1.0000
  O   O8        1.0  0.14717  0.65082  0.20122000000000007  1.0000
  O   O9        1.0  0.31743  0.8622099999999999  0.29845  1.0000
  O   O10       1.0  0.68257  0.13779  0.7015500000000002  1.0000
  O   O11       1.0  0.68257  0.13779  0.7984500000000002  1.0000
  O   O12       1.0  0.31743  0.8622099999999999  0.20155  1.0000
  O   O13       1.0  0.8174300000000002  0.63779  0.20155  1.0000
  O   O14       1.0  0.18256999999999998  0.36221  0.7984500000000002  1.0000
  O   O15       1.0  0.18256999999999998  0.36221  0.7015500000000002  1.0000
  O   O16       1.0  0.8174300000000002  0.63779  0.29845  1.0000
  C   C1        1.0  0.4854000000000001  0.8878  0.3133400000000001  1.0000
  C   C2        1.0  0.5146  0.11219999999999998  0.6866600000000002  1.0000
  C   C3        1.0  0.51451  0.11219999999999998  0.8133400000000002  1.0000
  C   C4        1.0  0.48548000000000013  0.8878  0.18666  1.0000
  C   C5        1.0  0.9861  0.61223  0.18667  1.0000
  C   C6        1.0  0.013900000000000001  0.38777  0.81333  1.0000
  C   C7        1.0  0.014  0.38775  0.68667  1.0000
  C   C8        1.0  0.986  0.61225  0.31333  1.0000
  O   O17       1.0  0.48063  0.68063  0.25  1.0000
  O   O18       1.0  0.51937  0.31937  0.75  1.0000
  O   O19       1.0  0.9806300000000002  0.81937  0.25  1.0000
  O   O20       1.0  0.01937  0.18062999999999999  0.75  1.0000
  V   V1        1.0  0.2058  0.76286  0.25  1.0000
  V   V2        1.0  0.7942  0.23714  0.75  1.0000
  V   V3        1.0  0.7058000000000002  0.73714  0.25  1.0000
  V   V4        1.0  0.2942  0.26286  0.75  1.0000
  C   C9        1.0  0.9947800000000001  0.53469  0.3517300000000001  1.0000
  C   C10       1.0  0.005219999999999999  0.46531  0.6482700000000002  1.0000
  C   C11       1.0  0.004729999999999999  0.46532  0.8517300000000002  1.0000
  C   C12       1.0  0.99527  0.53468  0.14827000000000007  1.0000
  C   C13       1.0  0.4914800000000001  0.9655499999999999  0.14829000000000006  1.0000
  C   C14       1.0  0.50852  0.03445  0.85171  1.0000
  C   C15       1.0  0.50892  0.03442  0.64829  1.0000
  C   C16       1.0  0.49108  0.9655799999999999  0.35171000000000013  1.0000
  C   C17       1.0  0.01927  0.34861999999999993  0.3802300000000001  1.0000
  C   C18       1.0  0.98073  0.65138  0.6197700000000002  1.0000
  C   C19       1.0  0.9764  0.65121  0.88025  1.0000
  C   C20       1.0  0.0236  0.3488  0.11975  1.0000
  C   C21       1.0  0.47355  0.15174  0.11959000000000003  1.0000
  C   C22       1.0  0.52645  0.84826  0.88041  1.0000
  C   C23       1.0  0.52942  0.8483399999999999  0.6195600000000002  1.0000
  C   C24       1.0  0.47058  0.15166  0.38044000000000006  1.0000
  C   C25       1.0  0.009900000000000003  0.42185  0.34349000000000013  1.0000
  C   C26       1.0  0.9901  0.57815  0.65651  1.0000
  C   C27       1.0  0.98687  0.57804  0.8435000000000002  1.0000
  C   C28       1.0  0.01313  0.42196  0.15650000000000006  1.0000
  C   C29       1.0  0.47635  0.07847  0.15638000000000002  1.0000
  C   C30       1.0  0.52365  0.92153  0.84362  1.0000
  C   C31       1.0  0.5259  0.92158  0.65635  1.0000
  C   C32       1.0  0.47410000000000013  0.07842  0.3436500000000001  1.0000
  C   C33       1.0  0.9892600000000003  0.57466  0.39682  1.0000
  C   C34       1.0  0.01074  0.42534  0.60318  1.0000
  C   C35       1.0  0.01176  0.42543  0.89681  1.0000
  C   C36       1.0  0.9882400000000002  0.57457  0.10319  1.0000
  C   C37       1.0  0.50278  0.92556  0.10326  1.0000
  C   C38       1.0  0.49722000000000005  0.07444  0.89674  1.0000
  C   C39       1.0  0.49655  0.07438  0.6032800000000003  1.0000
  C   C40       1.0  0.50345  0.92562  0.39672  1.0000
  C   C41       1.0  0.99894  0.50215  0.43494000000000005  1.0000
  C   C42       1.0  0.0010599999999999997  0.49785  0.5650600000000002  1.0000
  C   C43       1.0  0.0007499999999999995  0.49786  0.9349400000000002  1.0000
  C   C44       1.0  0.99925  0.50214  0.06506  1.0000
  C   C45       1.0  0.49739000000000005  0.9980299999999999  0.06507  1.0000
  C   C46       1.0  0.50261  0.00197  0.9349300000000003  1.0000
  C   C47       1.0  0.50284  0.00195  0.56507  1.0000
  C   C48       1.0  0.49716  0.9980499999999999  0.43493  1.0000
  C   C49       1.0  0.01386  0.38757  0.42567  1.0000
  C   C50       1.0  0.98614  0.61243  0.5743300000000002  1.0000
  C   C51       1.0  0.98318  0.61232  0.9256800000000001  1.0000
  C   C52       1.0  0.01682  0.38768  0.07432  1.0000
  C   C53       1.0  0.4833  0.1127  0.07422  1.0000
  C   C54       1.0  0.5167  0.8873  0.9257800000000003  1.0000
  C   C55       1.0  0.51873  0.88735  0.5742  1.0000
  C   C56       1.0  0.48127  0.11265  0.4258000000000001  1.0000
  C   C57       1.0  0.99464  0.53931  0.4816800000000001  1.0000
  C   C58       1.0  0.00536  0.46069  0.51832  1.0000
  C   C59       1.0  0.00611  0.4607399999999999  0.98168  1.0000
  C   C60       1.0  0.99388  0.53926  0.018320000000000006  1.0000
  C   C61       1.0  0.50373  0.96072  0.01836  1.0000
  C   C62       1.0  0.4962700000000001  0.03928  0.98164  1.0000
  C   C63       1.0  0.49575000000000014  0.03925  0.51836  1.0000
  C   C64       1.0  0.50425  0.96075  0.4816400000000001  1.0000
  C   C65       1.0  0.01977  0.34768  0.50698  1.0000
  C   C66       1.0  0.98023  0.65232  0.4930200000000001  1.0000
  C   C67       1.0  0.977  0.65217  0.007  1.0000
  C   C68       1.0  0.023  0.3478299999999999  0.9929900000000003  1.0000
  C   C69       1.0  0.48342  0.15241  0.9928700000000003  1.0000
  C   C70       1.0  0.51658  0.84759  0.007130000000000001  1.0000
  C   C71       1.0  0.51881  0.8476899999999999  0.4928400000000001  1.0000
  C   C72       1.0  0.48119  0.15231  0.50716  1.0000
  C   C73       1.0  0.0236  0.31233  0.4616800000000001  1.0000
  C   C74       1.0  0.9764  0.68767  0.53833  1.0000
  C   C75       1.0  0.97211  0.6874799999999999  0.9617000000000002  1.0000
  C   C76       1.0  0.02789  0.31252  0.038300000000000015  1.0000
  C   C77       1.0  0.4775  0.18791  0.03815000000000002  1.0000
  C   C78       1.0  0.5225  0.81209  0.96185  1.0000
  C   C79       1.0  0.52548  0.8122  0.5381100000000001  1.0000
  C   C80       1.0  0.47452  0.1878  0.46189  1.0000
  H   H1        1.0  0.03491  0.22476  0.45476000000000005  1.0000
  H   H2        1.0  0.9650900000000001  0.7752400000000002  0.5452400000000001  1.0000
  H   H3        1.0  0.95886  0.7749699999999999  0.9548  1.0000
  H   H4        1.0  0.04114000000000001  0.22503  0.0452  1.0000
  H   H5        1.0  0.46703  0.27555  0.04498  1.0000
  H   H6        1.0  0.53297  0.72445  0.9550200000000002  1.0000
  H   H7        1.0  0.53732  0.72461  0.54492  1.0000
  H   H8        1.0  0.46268  0.27539  0.4550800000000001  1.0000
  H   H9        1.0  0.98542  0.6094  0.69137  1.0000
  H   H10       1.0  0.014580000000000001  0.3906  0.30862  1.0000
  H   H11       1.0  0.01913  0.39077999999999996  0.19136000000000006  1.0000
  H   H12       1.0  0.98087  0.60922  0.8086400000000002  1.0000
  H   H13       1.0  0.53402  0.89027  0.80883  1.0000
  H   H14       1.0  0.4659800000000001  0.10972999999999998  0.19117000000000006  1.0000
  H   H15       1.0  0.4628200000000001  0.10964  0.3088700000000001  1.0000
  H   H16       1.0  0.53718  0.89036  0.69113  1.0000
  H   H17       1.0  0.0311  0.2612  0.3731300000000001  1.0000
  H   H18       1.0  0.9689  0.7388  0.62687  1.0000
  H   H19       1.0  0.96249  0.73852  0.8731600000000002  1.0000
  H   H20       1.0  0.03751  0.26148  0.12684  1.0000
  H   H21       1.0  0.46183  0.23921  0.1266  1.0000
  H   H22       1.0  0.53817  0.76079  0.8734000000000002  1.0000
  H   H23       1.0  0.54258  0.76094  0.62655  1.0000
  H   H24       1.0  0.45742  0.23905999999999997  0.3734500000000001  1.0000
  H   H25       1.0  0.02229  0.33735  0.59937  1.0000
  H   H26       1.0  0.97771  0.66265  0.40063  1.0000
  H   H27       1.0  0.9747400000000003  0.66247  0.09939000000000003  1.0000
  H   H28       1.0  0.02526  0.33753  0.9006100000000002  1.0000
  H   H29       1.0  0.48737000000000014  0.16252  0.9004700000000002  1.0000
  H   H30       1.0  0.51263  0.83748  0.09953  1.0000
  H   H31       1.0  0.51469  0.8376  0.40044000000000013  1.0000
  H   H32       1.0  0.48531000000000013  0.1624  0.5995600000000002  1.0000
  H   H33       1.0  0.02862  0.2834  0.5323400000000001  1.0000
  H   H34       1.0  0.97138  0.7165999999999999  0.46766  1.0000
  H   H35       1.0  0.9669500000000002  0.71639  0.03237  1.0000
  H   H36       1.0  0.03304999999999999  0.28361  0.96763  1.0000
  H   H37       1.0  0.47714  0.21667  0.9674600000000002  1.0000
  H   H38       1.0  0.52285  0.78333  0.032540000000000006  1.0000
  H   H39       1.0  0.52591  0.78349  0.46742  1.0000
  H   H40       1.0  0.47409  0.21651  0.5325800000000002  1.0000
