data_image0
_chemical_formula_structural       C48Cr6H16O26NHCH3CH3
_chemical_formula_sum              "C50 Cr6 H23 O26 N1"
_cell_length_a       10.73986
_cell_length_b       10.71419
_cell_length_c       17.12762
_cell_angle_alpha    99.56882999999999
_cell_angle_beta     99.90822
_cell_angle_gamma    60.67771

_space_group_name_H-M_alt    "P 1"
_space_group_IT_number       1

loop_
  _space_group_symop_operation_xyz
  'x, y, z'

loop_
  _atom_site_type_symbol
  _atom_site_label
  _atom_site_symmetry_multiplicity
  _atom_site_fract_x
  _atom_site_fract_y
  _atom_site_fract_z
  _atom_site_occupancy
  C   C1        1.0  0.35592000000000007  0.7698000000000002  0.39826  1.0000
  C   C2        1.0  0.8595800000000001  0.20295000000000005  0.1998  1.0000
  C   C3        1.0  0.8720899999999999  0.20959000000000005  0.28376  1.0000
  C   C4        1.0  0.82808  0.45764  0.29236  1.0000
  C   C5        1.0  0.8156800000000001  0.45112  0.21082000000000004  1.0000
  C   C6        1.0  0.87057  0.07442  0.15549  1.0000
  C   C7        1.0  0.9164700000000001  0.9508100000000002  0.19298  1.0000
  C   C8        1.0  0.94357  0.95459  0.2754700000000001  1.0000
  C   C9        1.0  0.91863  0.08342  0.3208  1.0000
  C   C10       1.0  0.8410400000000001  0.3417299999999999  0.32894  1.0000
  C   C11       1.0  0.3533800000000001  0.82083  0.15905  1.0000
  C   C12       1.0  0.36954  0.3466000000000001  0.3573600000000001  1.0000
  C   C13       1.0  0.4434800000000001  0.8580500000000001  0.21832000000000004  1.0000
  C   C14       1.0  0.4296400000000001  0.8616400000000001  0.29936000000000007  1.0000
  C   C15       1.0  0.28028  0.74421  0.25791000000000003  1.0000
  C   C16       1.0  0.28198000000000006  0.75409  0.17937  1.0000
  C   C17       1.0  0.5446900000000002  0.89413  0.19996  1.0000
  C   C18       1.0  0.61706  0.9468800000000002  0.25939  1.0000
  C   C19       1.0  0.59801  0.95697  0.33858  1.0000
  C   C20       1.0  0.50209  0.91886  0.3586600000000001  1.0000
  C   C21       1.0  0.34626  0.80459  0.31853  1.0000
  C   C22       1.0  0.2927399999999999  0.2672400000000001  0.79764  1.0000
  C   C23       1.0  0.7789  0.37648  0.40438000000000013  1.0000
  C   C24       1.0  0.4217800000000001  0.17208  0.7627200000000002  1.0000
  C   C25       1.0  0.46861000000000014  0.22637000000000002  0.7123000000000003  1.0000
  C   C26       1.0  0.22731  0.4360200000000001  0.70114  1.0000
  C   C27       1.0  0.19538999999999998  0.3950200000000001  0.7647700000000002  1.0000
  C   C28       1.0  0.51129  0.02823000000000004  0.7813900000000003  1.0000
  C   C29       1.0  0.6523400000000001  0.9507900000000002  0.76241  1.0000
  C   C30       1.0  0.7073200000000001  0.016270000000000003  0.72562  1.0000
  C   C31       1.0  0.6167700000000002  0.15319000000000005  0.7013400000000002  1.0000
  C   C32       1.0  0.36608  0.35002  0.67363  1.0000
  C   C33       1.0  0.8458699999999999  0.32909  0.7057  1.0000
  C   C34       1.0  0.35829999999999995  0.7688600000000001  0.6275700000000001  1.0000
  C   C35       1.0  0.8924  0.29427  0.77229  1.0000
  C   C36       1.0  0.33915  0.8096000000000002  0.7095300000000002  1.0000
  C   C37       1.0  0.3127400000000002  0.8376800000000001  0.7773900000000002  1.0000
  C   C38       1.0  0.8923800000000002  0.30822  0.08788000000000003  1.0000
  C   C39       1.0  0.31915  0.29975  0.12020000000000002  1.0000
  C   C40       1.0  0.29795000000000016  0.8882100000000002  0.08454000000000003  1.0000
  C   C41       1.0  0.94262  0.27377  0.85457  1.0000
  C   C42       1.0  0.27702  0.24942000000000003  0.87758  1.0000
  C   C43       1.0  0.2787099999999999  0.8850000000000001  0.85711  1.0000
  C   C44       1.0  0.40175999999999995  0.3727800000000001  0.59986  1.0000
  C   C45       1.0  0.77766  0.37842000000000003  0.62916  1.0000
  C   C46       1.0  0.34296  0.33672000000000013  0.2740800000000001  1.0000
  C   C47       1.0  0.33173  0.3264700000000001  0.20340000000000005  1.0000
  C   C48       1.0  0.83915  0.32413  0.16398  1.0000
  Cr  Cr1       1.0  0.6081000000000005  0.61086  0.52225  1.0000
  Cr  Cr2       1.0  0.2888899999999999  0.59999  0.48842  1.0000
  Cr  Cr3       1.0  0.60304  0.28919000000000006  0.48939000000000005  1.0000
  Cr  Cr4       1.0  0.05396000000000002  0.052250000000000026  0.96738  1.0000
  Cr  Cr5       1.0  0.05989000000000001  0.37316  0.99271  1.0000
  Cr  Cr6       1.0  0.37337  0.06168999999999999  0.99171  1.0000
  H   H1        1.0  0.6879699999999999  0.9800300000000002  0.24363000000000004  1.0000
  H   H2        1.0  0.6588899999999998  0.9931900000000001  0.3847100000000001  1.0000
  H   H3        1.0  0.48587999999999987  0.9349700000000002  0.42084  1.0000
  H   H4        1.0  0.47456  0.9757600000000001  0.81232  1.0000
  H   H5        1.0  0.09498000000000002  0.46482  0.79022  1.0000
  H   H6        1.0  0.7202700000000002  0.84236  0.7791  1.0000
  H   H7        1.0  0.81909  0.9602700000000001  0.7145000000000002  1.0000
  H   H8        1.0  0.66364  0.20088000000000006  0.6739700000000002  1.0000
  H   H9        1.0  0.84074  0.06777000000000001  0.09207  1.0000
  H   H10       1.0  0.8019099999999999  0.5431900000000002  0.18466  1.0000
  H   H11       1.0  0.92816  0.8524  0.15804  1.0000
  H   H12       1.0  0.97823  0.8588000000000001  0.3045500000000001  1.0000
  H   H13       1.0  0.93995  0.08273  0.38488  1.0000
  H   H14       1.0  0.22567999999999983  0.6889000000000002  0.27094  1.0000
  H   H15       1.0  0.5751800000000002  0.87641  0.14070000000000005  1.0000
  H   H16       1.0  0.21922000000000005  0.71764  0.13458000000000003  1.0000
  O   O1        1.0  0.74981  0.49979000000000007  0.43804  1.0000
  O   O2        1.0  0.29897  0.4688  0.5573900000000003  1.0000
  O   O3        1.0  0.4894  0.25593  0.56191  1.0000
  O   O4        1.0  0.7238900000000001  0.3060500000000001  0.58461  1.0000
  O   O5        1.0  0.5000100000000001  0.50001  0.5000200000000002  1.0000
  O   O6        1.0  0.1711  0.91468  0.0531  1.0000
  O   O7        1.0  0.9416799999999997  0.18484000000000003  0.05071000000000001  1.0000
  O   O8        1.0  0.92208  0.4034200000000001  0.07261  1.0000
  O   O9        1.0  0.19687999999999997  0.36915  0.08385000000000002  1.0000
  O   O10       1.0  0.41173000000000004  0.18102  0.09153  1.0000
  O   O11       1.0  0.3650100000000001  0.94436  0.06332  1.0000
  O   O12       1.0  0.4776600000000001  0.72626  0.4392900000000001  1.0000
  O   O13       1.0  0.1593799999999999  0.9066700000000001  0.87621  1.0000
  O   O14       1.0  0.9308200000000002  0.17742000000000008  0.8867300000000002  1.0000
  O   O15       1.0  0.91036  0.3954200000000001  0.89572  1.0000
  O   O16       1.0  0.18601000000000004  0.36173000000000005  0.9198700000000002  1.0000
  O   O17       1.0  0.39999999999999997  0.17301000000000008  0.9146300000000003  1.0000
  O   O18       1.0  0.35414  0.93694  0.8993400000000003  1.0000
  O   O19       1.0  0.16241000000000003  0.16237000000000004  0.9839300000000001  1.0000
  O   O20       1.0  0.26015000000000005  0.743  0.41227  1.0000
  O   O21       1.0  0.2977400000000001  0.46655  0.3947200000000001  1.0000
  O   O22       1.0  0.48808  0.2535  0.38643  1.0000
  O   O23       1.0  0.7226699999999999  0.30380000000000007  0.42194  1.0000
  O   O24       1.0  0.75113  0.50222  0.61352  1.0000
  O   O25       1.0  0.4788899999999999  0.7285100000000001  0.6019600000000003  1.0000
  O   O26       1.0  0.26146999999999987  0.7454300000000003  0.58775  1.0000
  N   N1        1.0  0.8278800000000001  0.5824400000000001  0.3371300000000001  1.0000
  H   H17       1.0  0.7747200000000001  0.67328  0.30717  1.0000
  C   C49       1.0  0.96796  0.5607699999999999  0.37331  1.0000
  H   H18       1.0  0.03771000000000004  0.5375199999999999  0.32616  1.0000
  H   H19       1.0  0.018260000000000037  0.47053000000000006  0.4116500000000001  1.0000
  H   H20       1.0  0.95729  0.65983  0.4109100000000001  1.0000
  C   C50       1.0  0.11298  0.57452  0.66805  1.0000
  H   H21       1.0  0.07071999999999987  0.5524200000000002  0.60648  1.0000
  H   H22       1.0  0.019380000000000022  0.63139  0.70339  1.0000
  H   H23       1.0  0.15742  0.6490100000000002  0.6699000000000003  1.0000
