data_image0
_chemical_formula_structural       C59Cr6H27NO28
_chemical_formula_sum              "C59 Cr6 H27 N1 O28"
_cell_length_a       10.83897
_cell_length_b       10.984500000000002
_cell_length_c       18.8515
_cell_angle_alpha    90.55434999999999
_cell_angle_beta     90.28808
_cell_angle_gamma    119.49291000000001

_space_group_name_H-M_alt    "P 1"
_space_group_IT_number       1

loop_
  _space_group_symop_operation_xyz
  'x, y, z'

loop_
  _atom_site_type_symbol
  _atom_site_label
  _atom_site_symmetry_multiplicity
  _atom_site_fract_x
  _atom_site_fract_y
  _atom_site_fract_z
  _atom_site_occupancy
  C   C1        1.0  0.8670800000000002  0.63783  0.60445  1.0000
  C   C2        1.0  0.9701700000000002  0.22670000000000004  0.7246599999999999  1.0000
  C   C3        1.0  0.9309600000000001  0.13463  0.78226  1.0000
  C   C4        1.0  0.27299000000000007  0.63394  0.60313  1.0000
  C   C5        1.0  0.73228  0.1986  0.71886  1.0000
  C   C6        1.0  0.6915600000000001  0.1049  0.7749899999999998  1.0000
  C   C7        1.0  0.63261  0.23654000000000003  0.69298  1.0000
  C   C8        1.0  0.48788  0.15319  0.70494  1.0000
  C   C9        1.0  0.44515000000000005  0.05088999999999999  0.7559199999999998  1.0000
  C   C10       1.0  0.54665  0.03353  0.7926499999999997  1.0000
  C   C11       1.0  0.86712  0.24594000000000002  0.6876099999999998  1.0000
  C   C12       1.0  0.47184000000000004  0.71166  0.77438  1.0000
  C   C13       1.0  0.70657  0.56892  0.70888  1.0000
  C   C14       1.0  0.69391  0.56767  0.78249  1.0000
  C   C15       1.0  0.8130400000000001  0.65402  0.82495  1.0000
  C   C16       1.0  0.8859600000000001  0.28969  0.61179  1.0000
  C   C17       1.0  0.9444900000000002  0.73671  0.79338  1.0000
  C   C18       1.0  0.95527  0.74256  0.721  1.0000
  C   C19       1.0  0.83829  0.655  0.67801  1.0000
  C   C20       1.0  0.19474000000000005  0.57654  0.27186999999999995  1.0000
  C   C21       1.0  0.22017  0.59797  0.19945999999999997  1.0000
  C   C22       1.0  0.35411  0.70051  0.17712  1.0000
  C   C23       1.0  0.44601  0.69883  0.70176  1.0000
  C   C24       1.0  0.45859000000000005  0.78645  0.22703999999999996  1.0000
  C   C25       1.0  0.4321800000000001  0.76598  0.2993  1.0000
  C   C26       1.0  0.30186  0.65825  0.32149999999999995  1.0000
  C   C27       1.0  0.7564500000000002  0.21424000000000004  0.27876  1.0000
  C   C28       1.0  0.87015  0.6352  0.39516  1.0000
  C   C29       1.0  0.7597800000000002  0.20664  0.20644  1.0000
  C   C30       1.0  0.8523  0.16957  0.17342  1.0000
  C   C31       1.0  0.95756  0.15982  0.21425999999999998  1.0000
  C   C32       1.0  0.9539800000000002  0.1698  0.2881899999999999  1.0000
  C   C33       1.0  0.8515200000000002  0.19358  0.32035  1.0000
  C   C34       1.0  0.31175  0.6654  0.67701  1.0000
  C   C35       1.0  0.96623  0.72132  0.27802  1.0000
  C   C36       1.0  0.9521500000000002  0.72465  0.20564999999999994  1.0000
  C   C37       1.0  0.81777  0.65277  0.17421  1.0000
  C   C38       1.0  0.6989000000000001  0.56596  0.21525999999999998  1.0000
  C   C39       1.0  0.71367  0.5604  0.28829  1.0000
  C   C40       1.0  0.2691100000000001  0.63217  0.39597  1.0000
  C   C41       1.0  0.84666  0.64294  0.3200699999999999  1.0000
  C   C42       1.0  0.7679700000000002  0.04095  0.88712  1.0000
  C   C43       1.0  0.39568000000000003  0.70066  0.8964799999999999  1.0000
  C   C44       1.0  0.79691  0.69056  0.89724  1.0000
  C   C45       1.0  0.7946700000000001  0.08388  0.81183  1.0000
  C   C46       1.0  0.8104  0.10936999999999998  0.10216999999999998  1.0000
  C   C47       1.0  0.39742000000000005  0.70683  0.10395  1.0000
  C   C48       1.0  0.79861  0.69397  0.104  1.0000
  C   C49       1.0  0.86298  0.23173  0.3947  1.0000
  C   C50       1.0  0.20336  0.64283  0.72456  1.0000
  C   C51       1.0  0.22896  0.6554  0.7971399999999998  1.0000
  C   C52       1.0  0.36321000000000003  0.68946  0.82179  1.0000
  C   C53       1.0  0.38112  0.16445  0.6607599999999999  1.0000
  C   C54       1.0  0.10806000000000007  0.51905  0.14862999999999996  1.0000
  C   C55       1.0  0.07427  0.14545  0.18167  1.0000
  C   C56       1.0  0.032410000000000015  0.1005  0.8092399999999997  1.0000
  C   C57       1.0  0.17489000000000002  0.17957  0.79218  1.0000
  C   C58       1.0  0.21677000000000005  0.28763  0.74455  1.0000
  C   C59       1.0  0.11429000000000002  0.30529  0.70896  1.0000
  Cr  Cr1       1.0  0.7916600000000001  0.39025  0.49993  1.0000
  Cr  Cr2       1.0  0.09852000000000005  0.70829  0.50054  1.0000
  Cr  Cr3       1.0  0.10977  0.40143  0.4994799999999999  1.0000
  Cr  Cr4       1.0  0.8747900000000001  0.92589  6.999999999999997e-05  1.0000
  Cr  Cr5       1.0  0.5741200000000001  0.94867  0.9992999999999997  1.0000
  Cr  Cr6       1.0  0.55142  0.62532  0.0009199999999999999  1.0000
  H   H1        1.0  0.09674000000000005  0.60656  0.7051499999999999  1.0000
  H   H2        1.0  0.14438000000000006  0.63502  0.83369  1.0000
  H   H3        1.0  0.5138400000000002  0.8310700000000001  0.3375  1.0000
  H   H4        1.0  0.6811000000000001  0.2407  0.30176999999999987  1.0000
  H   H5        1.0  0.68234  0.22117999999999996  0.17662  1.0000
  H   H6        1.0  0.03377  0.16407  0.32064  1.0000
  H   H7        1.0  0.07179000000000009  0.78014  0.3009  1.0000
  H   H8        1.0  0.045489999999999954  0.79016  0.17488999999999993  1.0000
  H   H9        1.0  0.59376  0.50932  0.19177  1.0000
  H   H10       1.0  0.62165  0.4953000000000001  0.31991  1.0000
  H   H11       1.0  0.57685  0.74034  0.794  1.0000
  H   H12       1.0  0.66489  0.32445  0.6588999999999999  1.0000
  H   H13       1.0  0.52907  0.71339  0.66536  1.0000
  H   H14       1.0  0.25259  0.15792999999999993  0.8164999999999998  1.0000
  H   H15       1.0  0.32794  0.35501  0.73341  1.0000
  H   H16       1.0  0.004149999999999999  0.013159999999999998  0.84327  1.0000
  H   H17       1.0  0.14797000000000002  0.3875  0.67315  1.0000
  H   H18       1.0  0.50904  0.95833  0.8323399999999999  1.0000
  H   H19       1.0  0.26924  0.09129  0.6678499999999998  1.0000
  H   H20       1.0  0.1046  0.17589  0.12724999999999997  1.0000
  H   H21       1.0  0.3338800000000001  0.9852  0.76786  1.0000
  H   H22       1.0  0.6143800000000001  0.50362  0.6762699999999999  1.0000
  H   H23       1.0  0.59034  0.50553  0.80567  1.0000
  H   H24       1.0  0.03853000000000001  0.8043  0.82451  1.0000
  H   H25       1.0  0.05894  0.81074  0.6991999999999999  1.0000
  H   H26       1.0  0.09144000000000004  0.49709  0.28981999999999997  1.0000
  H   H27       1.0  0.5627800000000001  0.8653500000000001  0.20996999999999993  1.0000
  N   N1        1.0  0.019040000000000026  0.45791  0.10712999999999999  1.0000
  O   O1        1.0  0.7665000000000001  0.25004  0.5797899999999999  1.0000
  O   O2        1.0  0.41333  0.60336  0.92044  1.0000
  O   O3        1.0  0.6761100000000001  0.62625  0.9267499999999999  1.0000
  O   O4        1.0  0.79857  0.51678  0.57478  1.0000
  O   O5        1.0  0.89535  0.80987  0.08095  1.0000
  O   O6        1.0  0.87249  0.04976  0.0738  1.0000
  O   O7        1.0  0.69168  0.08807  0.07907  1.0000
  O   O8        1.0  0.45172000000000007  0.82525  0.07405  1.0000
  O   O9        1.0  0.4135800000000001  0.60637  0.08096  1.0000
  O   O10       1.0  0.6763400000000002  0.62904  0.07554999999999998  1.0000
  O   O11       1.0  0.66678  0.83329  9e-05  1.0000
  O   O12       1.0  0.21869000000000002  0.7019  0.42595999999999995  1.0000
  O   O13       1.0  0.9840000000000002  0.73295  0.5810899999999999  1.0000
  O   O14       1.0  0.21860000000000004  0.70089  0.5747599999999998  1.0000
  O   O15       1.0  0.24939000000000003  0.51535  0.5799399999999999  1.0000
  O   O16       1.0  0.9827900000000003  0.2808999999999999  0.5737  1.0000
  O   O17       1.0  0.7666  0.25113  0.41925999999999997  1.0000
  O   O18       1.0  0.7986600000000001  0.51779  0.4259799999999999  1.0000
  O   O19       1.0  0.9841  0.73404  0.42056999999999994  1.0000
  O   O20       1.0  0.41624  0.2532  0.61507  1.0000
  O   O21       1.0  0.14046000000000003  0.1023  0.21589999999999998  1.0000
  O   O22       1.0  0.24949  0.51644  0.41942  1.0000
  O   O23       1.0  0.9828800000000001  0.28191  0.42488999999999993  1.0000
  O   O24       1.0  0.99998  0.49999  0.4999799999999999  1.0000
  O   O25       1.0  0.8951100000000002  0.80686  0.92043  1.0000
  O   O26       1.0  0.8722600000000001  0.04697  0.925  1.0000
  O   O27       1.0  0.69143  0.08506  0.91855  1.0000
  O   O28       1.0  0.45149000000000006  0.82246  0.92525  1.0000
