data_image0
_chemical_formula_structural       C42Cr6H14O26CHOC6H5CHOCHO
_chemical_formula_sum              "C51 Cr6 H22 O29"
_cell_length_a       10.68448
_cell_length_b       10.62625
_cell_length_c       16.883550000000003
_cell_angle_alpha    98.17008
_cell_angle_beta     98.61438
_cell_angle_gamma    61.94249

_space_group_name_H-M_alt    "P 1"
_space_group_IT_number       1

loop_
  _space_group_symop_operation_xyz
  'x, y, z'

loop_
  _atom_site_type_symbol
  _atom_site_label
  _atom_site_symmetry_multiplicity
  _atom_site_fract_x
  _atom_site_fract_y
  _atom_site_fract_z
  _atom_site_occupancy
  C   C1        1.0  0.35271  0.77965  0.40077  1.0000
  C   C2        1.0  0.68762  0.4162  0.2511099999999999  1.0000
  C   C3        1.0  0.8104399999999998  0.35884999999999995  0.3191699999999999  1.0000
  C   C4        1.0  0.88222  0.21469999999999997  0.27103  1.0000
  C   C5        1.0  0.96788  0.27404  0.23519  1.0000
  C   C6        1.0  0.8948399999999997  0.41857  0.28353  1.0000
  C   C7        1.0  0.77346  0.47387999999999997  0.21524999999999994  1.0000
  C   C8        1.0  0.8459799999999998  0.32909  0.16784  1.0000
  C   C9        1.0  0.39705  0.7788999999999999  0.20683999999999994  1.0000
  C   C10       1.0  0.2864900000000001  0.77033  0.25151  1.0000
  C   C11       1.0  0.33078  0.84492  0.3272599999999999  1.0000
  C   C12       1.0  0.37306  0.34922  0.35808  1.0000
  C   C13       1.0  0.44010000000000005  0.8542999999999998  0.28317  1.0000
  C   C14       1.0  0.3261799999999999  0.0014599999999999828  0.25724999999999987  1.0000
  C   C15       1.0  0.2164300000000001  0.99097  0.30321  1.0000
  C   C16       1.0  0.17175999999999986  0.91702  0.22640999999999994  1.0000
  C   C17       1.0  0.28296000000000004  0.9254399999999999  0.18226  1.0000
  C   C18       1.0  0.42749  0.26973  0.77305  1.0000
  C   C19       1.0  0.34184000000000003  0.40905999999999987  0.73197  1.0000
  C   C20       1.0  0.32487  0.31964  0.65517  1.0000
  C   C21       1.0  0.41139  0.18017  0.69647  1.0000
  C   C22       1.0  0.27059  0.19631  0.72138  1.0000
  C   C23       1.0  0.77456  0.3791999999999999  0.40089999999999987  1.0000
  C   C24       1.0  0.18419999999999997  0.33649  0.67836  1.0000
  C   C25       1.0  0.20161999999999994  0.42443  0.75703  1.0000
  C   C26       1.0  0.2893  0.28459  0.79835  1.0000
  C   C27       1.0  0.8463699999999998  0.32866  0.70573  1.0000
  C   C28       1.0  0.8926099999999999  0.29568999999999995  0.77314  1.0000
  C   C29       1.0  0.3394  0.80984  0.71015  1.0000
  C   C30       1.0  0.3140699999999999  0.8374600000000001  0.77892  1.0000
  C   C31       1.0  0.88829  0.31161  0.08864999999999998  1.0000
  C   C32       1.0  0.3203  0.3008  0.1194  1.0000
  C   C33       1.0  0.25561000000000006  0.9608999999999999  0.09894  1.0000
  C   C34       1.0  0.35730999999999996  0.77015  0.62742  1.0000
  C   C35       1.0  0.9419799999999998  0.27664999999999995  0.8560099999999999  1.0000
  C   C36       1.0  0.2786999999999999  0.25466999999999995  0.8776799999999998  1.0000
  C   C37       1.0  0.2801  0.88439  0.85924  1.0000
  C   C38       1.0  0.36569  0.34337  0.58313  1.0000
  C   C39       1.0  0.7788299999999998  0.37714999999999993  0.62865  1.0000
  C   C40       1.0  0.34790999999999994  0.34192  0.27407  1.0000
  C   C41       1.0  0.33568  0.33107999999999993  0.20272  1.0000
  C   C42       1.0  0.7615999999999999  0.27032  0.20213999999999993  1.0000
  Cr  Cr1       1.0  0.60834  0.61104  0.52043  1.0000
  Cr  Cr2       1.0  0.28765  0.60112  0.48935  1.0000
  Cr  Cr3       1.0  0.60404  0.28787  0.49028  1.0000
  Cr  Cr4       1.0  0.05401999999999998  0.05270000000000002  0.97085  1.0000
  Cr  Cr5       1.0  0.059230000000000026  0.37511999999999995  0.99339  1.0000
  Cr  Cr6       1.0  0.37495  0.06120000000000002  0.99234  1.0000
  H   H1        1.0  0.5727399999999999  0.47536  0.26076  1.0000
  H   H2        1.0  0.34362  0.09571999999999999  0.25751  1.0000
  H   H3        1.0  0.15049  0.07482999999999997  0.3475699999999999  1.0000
  H   H4        1.0  0.062360000000000096  0.9395599999999998  0.20024  1.0000
  H   H5        1.0  0.37172999999999995  0.49678  0.73508  1.0000
  H   H6        1.0  0.49691999999999986  0.07961  0.67077  1.0000
  H   H7        1.0  0.23876  0.11036  0.71868  1.0000
  H   H8        1.0  0.08562999999999997  0.36361  0.63697  1.0000
  H   H9        1.0  0.11603999999999999  0.52407  0.78336  1.0000
  H   H10       1.0  0.70781  0.21049  0.16623  1.0000
  H   H11       1.0  0.91964  0.11186  0.29753  1.0000
  H   H12       1.0  0.08035  0.22372  0.22233  1.0000
  H   H13       1.0  0.27045  0.67391  0.24977  1.0000
  H   H14       1.0  0.45181  0.68927  0.16286  1.0000
  O   O1        1.0  0.75122  0.49922999999999995  0.4351699999999999  1.0000
  O   O2        1.0  0.2978799999999999  0.46908  0.56005  1.0000
  O   O3        1.0  0.48972  0.25459  0.56481  1.0000
  O   O4        1.0  0.72522  0.30423  0.58508  1.0000
  O   O5        1.0  0.50001  0.50001  0.50002  1.0000
  O   O6        1.0  0.17182999999999993  0.91388  0.057509999999999985  1.0000
  O   O7        1.0  0.9406899999999998  0.18605  0.05473  1.0000
  O   O8        1.0  0.9204699999999999  0.40571999999999997  0.07501  1.0000
  O   O9        1.0  0.19668999999999998  0.37046  0.08412  1.0000
  O   O10       1.0  0.4129899999999999  0.18075  0.09161  1.0000
  O   O11       1.0  0.36662  0.94313  0.06575999999999999  1.0000
  O   O12       1.0  0.4772199999999999  0.7275999999999999  0.43686999999999987  1.0000
  O   O13       1.0  0.16050999999999996  0.90633  0.87921  1.0000
  O   O14       1.0  0.93019  0.17904999999999996  0.88945  1.0000
  O   O15       1.0  0.9091399999999998  0.39816999999999997  0.89671  1.0000
  O   O16       1.0  0.18618999999999997  0.36346  0.91883  1.0000
  O   O17       1.0  0.40167  0.1732  0.91331  1.0000
  O   O18       1.0  0.3561200000000001  0.9361299999999999  0.90047  1.0000
  O   O19       1.0  0.16274  0.16301  0.9855299999999999  1.0000
  O   O20       1.0  0.25865  0.74512  0.41147  1.0000
  O   O21       1.0  0.29706999999999995  0.46724  0.39596  1.0000
  O   O22       1.0  0.4888300000000001  0.25261  0.3877899999999999  1.0000
  O   O23       1.0  0.7243999999999999  0.30239  0.4209799999999999  1.0000
  O   O24       1.0  0.7521  0.50121  0.61219  1.0000
  O   O25       1.0  0.47804  0.72944  0.60097  1.0000
  O   O26       1.0  0.25953  0.74711  0.58849  1.0000
  C   C43       1.0  0.5661899999999999  0.23612999999999998  0.82291  1.0000
  H   H15       1.0  0.6601499999999999  0.13656  0.80992  1.0000
  O   O27       1.0  0.5735899999999999  0.31983999999999996  0.8786399999999999  1.0000
  C   C44       1.0  0.96881  0.50311  0.32862  1.0000
  C   C45       1.0  0.98806  0.59874  0.2884699999999999  1.0000
  C   C46       1.0  0.9976999999999998  0.71695  0.3314  1.0000
  C   C47       1.0  0.9979799999999999  0.7343  0.4150499999999999  1.0000
  C   C48       1.0  0.004060000000000022  0.62604  0.45598  1.0000
  C   C49       1.0  0.99594  0.50737  0.41276  1.0000
  H   H16       1.0  0.9867199999999999  0.5869799999999998  0.22372  1.0000
  H   H17       1.0  0.001979999999999998  0.79639  0.29979  1.0000
  H   H18       1.0  0.0005600000000000288  0.8280499999999998  0.44835999999999987  1.0000
  H   H19       1.0  0.01351  0.63471  0.5210199999999999  1.0000
  H   H20       1.0  0.003090000000000024  0.42352999999999996  0.44545  1.0000
  C   C50       1.0  0.7120499999999998  0.60252  0.16679  1.0000
  H   H21       1.0  0.65251  0.59968  0.10914999999999997  1.0000
  O   O28       1.0  0.7334899999999999  0.70571  0.18745  1.0000
  C   C51       1.0  0.58153  0.8413599999999999  0.32013  1.0000
  H   H22       1.0  0.6082599999999998  0.92721  0.31735  1.0000
  O   O29       1.0  0.66824  0.73452  0.35237  1.0000
