data_image0
_chemical_formula_structural       O8C4O8C4O8C4O8C4O8C4O8C4Cr12O4C8H8C32H16C16H12C32H24NO2NO2NO2NO2NO2NO2NO2NO2
_chemical_formula_sum              "O68 C112 Cr12 H60 N8"
_cell_length_a       19.20438
_cell_length_b       10.99026
_cell_length_c       18.79762
_cell_angle_alpha    90.01372000000002
_cell_angle_beta     89.69244
_cell_angle_gamma    90.02144999999999

_space_group_name_H-M_alt    "P 1"
_space_group_IT_number       1

loop_
  _space_group_symop_operation_xyz
  'x, y, z'

loop_
  _atom_site_type_symbol
  _atom_site_label
  _atom_site_symmetry_multiplicity
  _atom_site_fract_x
  _atom_site_fract_y
  _atom_site_fract_z
  _atom_site_occupancy
  O   O1        1.0  0.7842899999999999  0.29036  0.83054  1.0000
  O   O2        1.0  0.21571  0.29036  0.16946  1.0000
  O   O3        1.0  0.28429  0.79036  0.83054  1.0000
  O   O4        1.0  0.71571  0.79036  0.16946  1.0000
  O   O5        1.0  0.7626099999999999  0.04107  0.8252299999999999  1.0000
  O   O6        1.0  0.23739  0.04107  0.17477  1.0000
  O   O7        1.0  0.26260999999999995  0.5410700000000002  0.8252299999999999  1.0000
  O   O8        1.0  0.73739  0.5410700000000002  0.17477  1.0000
  C   C1        1.0  0.7243399999999999  0.96119  0.85538  1.0000
  C   C2        1.0  0.27566  0.9612000000000002  0.14462  1.0000
  C   C3        1.0  0.22433999999999996  0.4612000000000001  0.85538  1.0000
  C   C4        1.0  0.77566  0.46119  0.14462  1.0000
  O   O9        1.0  0.66739  0.92416  0.8299699999999999  1.0000
  O   O10       1.0  0.33261  0.92416  0.17003  1.0000
  O   O11       1.0  0.16739  0.42416000000000004  0.8299699999999999  1.0000
  O   O12       1.0  0.83261  0.42416000000000004  0.17003  1.0000
  O   O13       1.0  0.55398  0.08142000000000002  0.82178  1.0000
  O   O14       1.0  0.44601999999999997  0.08142000000000002  0.17822  1.0000
  O   O15       1.0  0.05397999999999999  0.5814200000000002  0.82178  1.0000
  O   O16       1.0  0.94602  0.5814200000000002  0.17822  1.0000
  C   C5        1.0  0.5295699999999998  0.17749000000000004  0.85069  1.0000
  C   C6        1.0  0.47043  0.1775  0.14931999999999998  1.0000
  C   C7        1.0  0.029569999999999996  0.6774900000000001  0.85068  1.0000
  C   C8        1.0  0.97043  0.6775000000000001  0.14931  1.0000
  O   O17       1.0  0.54321  0.28317  0.8267399999999999  1.0000
  O   O18       1.0  0.4567899999999999  0.28317  0.17326  1.0000
  O   O19       1.0  0.04321  0.78317  0.8267399999999999  1.0000
  O   O20       1.0  0.95679  0.78317  0.17326  1.0000
  O   O21       1.0  0.6783499999999999  0.375  0.82272  1.0000
  O   O22       1.0  0.32165  0.375  0.17728  1.0000
  O   O23       1.0  0.17835  0.875  0.82272  1.0000
  O   O24       1.0  0.82165  0.875  0.17728  1.0000
  C   C9        1.0  0.7375099999999999  0.36406  0.8523099999999999  1.0000
  C   C10       1.0  0.2625  0.36406  0.14769  1.0000
  C   C11       1.0  0.23750999999999997  0.86405  0.8523099999999999  1.0000
  C   C12       1.0  0.7624999999999998  0.8640600000000003  0.14769  1.0000
  O   O25       1.0  0.78506  0.2893  0.67058  1.0000
  O   O26       1.0  0.21493999999999996  0.2893  0.32942  1.0000
  O   O27       1.0  0.28506  0.7893000000000002  0.67058  1.0000
  O   O28       1.0  0.71494  0.7893000000000002  0.32942  1.0000
  O   O29       1.0  0.76333  0.04009000000000001  0.67694  1.0000
  O   O30       1.0  0.23666999999999994  0.04009000000000001  0.32306  1.0000
  O   O31       1.0  0.26333  0.54009  0.67694  1.0000
  O   O32       1.0  0.7366699999999999  0.54009  0.32306  1.0000
  C   C13       1.0  0.72841  0.95298  0.64843  1.0000
  C   C14       1.0  0.27218  0.9555700000000001  0.35248999999999997  1.0000
  C   C15       1.0  0.22769  0.4551000000000001  0.64763  1.0000
  C   C16       1.0  0.7736299999999999  0.45913000000000004  0.35408  1.0000
  O   O33       1.0  0.66816  0.92311  0.67  1.0000
  O   O34       1.0  0.33184  0.92311  0.33  1.0000
  O   O35       1.0  0.16816  0.42311  0.67  1.0000
  O   O36       1.0  0.8318399999999998  0.42311  0.33  1.0000
  O   O37       1.0  0.5546899999999998  0.08044  0.67348  1.0000
  O   O38       1.0  0.44531  0.08044  0.32652  1.0000
  O   O39       1.0  0.054689999999999996  0.58044  0.67348  1.0000
  O   O40       1.0  0.94531  0.58044  0.32652  1.0000
  C   C17       1.0  0.53222  0.17664  0.64324  1.0000
  C   C18       1.0  0.47139  0.17635000000000003  0.35406  1.0000
  C   C19       1.0  0.028469999999999995  0.67652  0.64606  1.0000
  C   C20       1.0  0.96637  0.67642  0.3574899999999999  1.0000
  O   O41       1.0  0.5439799999999999  0.28211  0.66677  1.0000
  O   O42       1.0  0.45602  0.28211  0.33323  1.0000
  O   O43       1.0  0.043979999999999984  0.78211  0.66677  1.0000
  O   O44       1.0  0.95602  0.78211  0.33323  1.0000
  O   O45       1.0  0.67907  0.37403000000000003  0.6744299999999999  1.0000
  O   O46       1.0  0.32093  0.37403000000000003  0.32557  1.0000
  O   O47       1.0  0.17906999999999998  0.87403  0.6744299999999999  1.0000
  O   O48       1.0  0.8209299999999999  0.87403  0.32557  1.0000
  C   C21       1.0  0.7398199999999999  0.36271000000000003  0.6467699999999998  1.0000
  C   C22       1.0  0.26119  0.35937  0.35466  1.0000
  C   C23       1.0  0.23892999999999998  0.8597700000000003  0.6455199999999999  1.0000
  C   C24       1.0  0.7627299999999998  0.85422  0.35654  1.0000
  Cr  Cr1       1.0  0.7692599999999999  0.16375  0.75073  1.0000
  Cr  Cr2       1.0  0.23073999999999995  0.16375  0.24927  1.0000
  Cr  Cr3       1.0  0.26926  0.66375  0.75073  1.0000
  Cr  Cr4       1.0  0.73074  0.66375  0.24927  1.0000
  Cr  Cr5       1.0  0.61264  0.00991  0.74878  1.0000
  Cr  Cr6       1.0  0.3873599999999999  0.00991  0.25122  1.0000
  Cr  Cr7       1.0  0.11263999999999998  0.50991  0.74878  1.0000
  Cr  Cr8       1.0  0.8873599999999998  0.50991  0.25122  1.0000
  Cr  Cr9       1.0  0.6141899999999998  0.3224  0.74771  1.0000
  Cr  Cr10      1.0  0.38580999999999993  0.3224  0.25229  1.0000
  Cr  Cr11      1.0  0.11419  0.8224  0.74771  1.0000
  Cr  Cr12      1.0  0.88581  0.8224  0.25229  1.0000
  O   O49       1.0  0.6653599999999998  0.16535000000000002  0.7490699999999999  1.0000
  O   O50       1.0  0.3346399999999999  0.16535000000000002  0.25093  1.0000
  O   O51       1.0  0.16536  0.6653500000000001  0.7490699999999999  1.0000
  O   O52       1.0  0.83464  0.6653500000000001  0.25093  1.0000
  C   C25       1.0  0.4975899999999999  0.16872  0.92143  1.0000
  C   C26       1.0  0.50241  0.16874  0.07858  1.0000
  C   C27       1.0  0.9975799999999998  0.66872  0.92142  1.0000
  C   C28       1.0  0.0024000000000000002  0.66874  0.07856999999999999  1.0000
  C   C29       1.0  0.49612  0.06747  0.039099999999999996  1.0000
  C   C30       1.0  0.5038999999999999  0.06747  0.9608799999999998  1.0000
  C   C31       1.0  0.99611  0.5674700000000001  0.039099999999999996  1.0000
  C   C32       1.0  0.0038900000000000007  0.5674700000000001  0.9608799999999998  1.0000
  H   H1        1.0  0.48394  0.9814500000000002  0.06455  1.0000
  H   H2        1.0  0.5160999999999999  0.9814700000000001  0.9354299999999999  1.0000
  H   H3        1.0  0.9839399999999999  0.48145000000000004  0.06454  1.0000
  H   H4        1.0  0.016089999999999993  0.48147000000000006  0.93542  1.0000
  H   H5        1.0  0.52057  0.25225000000000003  0.05444  1.0000
  H   H6        1.0  0.47940999999999995  0.25221  0.9455699999999999  1.0000
  H   H7        1.0  0.02055999999999999  0.7522500000000001  0.05443  1.0000
  H   H8        1.0  0.9794  0.7522000000000001  0.94556  1.0000
  C   C33       1.0  0.764  0.43364  0.07065  1.0000
  C   C34       1.0  0.236  0.43368000000000007  0.9293499999999999  1.0000
  C   C35       1.0  0.264  0.93365  0.07065  1.0000
  C   C36       1.0  0.7359999999999998  0.93366  0.9293499999999999  1.0000
  C   C37       1.0  0.69798  0.4153  0.04327  1.0000
  C   C38       1.0  0.30202  0.41533  0.95672  1.0000
  C   C39       1.0  0.19797999999999996  0.91529  0.04327  1.0000
  C   C40       1.0  0.8020199999999997  0.9153100000000002  0.95672  1.0000
  C   C41       1.0  0.6883799999999998  0.3947700000000001  0.97122  1.0000
  C   C42       1.0  0.31160999999999994  0.39481  0.02877  1.0000
  C   C43       1.0  0.18838999999999995  0.89476  0.97122  1.0000
  C   C44       1.0  0.81162  0.8948  0.02877  1.0000
  C   C45       1.0  0.8110899999999999  0.43152  0.9505499999999999  1.0000
  C   C46       1.0  0.18893  0.43152  0.04946999999999999  1.0000
  C   C47       1.0  0.3110899999999999  0.93154  0.9505499999999999  1.0000
  C   C48       1.0  0.68893  0.9315100000000002  0.04946  1.0000
  C   C49       1.0  0.82086  0.43933  0.02357  1.0000
  C   C50       1.0  0.17915999999999999  0.43935  0.97644  1.0000
  C   C51       1.0  0.32085  0.93936  0.02357  1.0000
  C   C52       1.0  0.67916  0.9393300000000001  0.97644  1.0000
  C   C53       1.0  0.6341699999999999  0.49295000000000005  0.04861  1.0000
  C   C54       1.0  0.3658599999999999  0.4929700000000001  0.9513999999999999  1.0000
  C   C55       1.0  0.13417  0.9929300000000001  0.04859999999999999  1.0000
  C   C56       1.0  0.8658599999999997  0.99294  0.9513800000000001  1.0000
  C   C57       1.0  0.6195999999999998  0.45885  0.97174  1.0000
  C   C58       1.0  0.38042  0.4588900000000001  0.02826  1.0000
  C   C59       1.0  0.11959999999999998  0.95883  0.97174  1.0000
  C   C60       1.0  0.8804199999999999  0.95888  0.02824  1.0000
  C   C61       1.0  0.7443499999999998  0.41057000000000005  0.9236  1.0000
  C   C62       1.0  0.25566  0.41058  0.0764  1.0000
  C   C63       1.0  0.24435  0.91057  0.9236  1.0000
  C   C64       1.0  0.75566  0.91058  0.0764  1.0000
  H   H9        1.0  0.85589  0.43667000000000006  0.91538  1.0000
  H   H10       1.0  0.14413  0.43665  0.08463999999999999  1.0000
  H   H11       1.0  0.35588999999999993  0.9367  0.91538  1.0000
  H   H12       1.0  0.64414  0.93665  0.08463999999999999  1.0000
  H   H13       1.0  0.8725099999999999  0.45428000000000013  0.043239999999999994  1.0000
  H   H14       1.0  0.12751  0.4543  0.95678  1.0000
  H   H15       1.0  0.3725  0.95433  0.043239999999999994  1.0000
  H   H16       1.0  0.62751  0.95428  0.95678  1.0000
  H   H17       1.0  0.57641  0.39274  0.9658299999999999  1.0000
  H   H18       1.0  0.42358  0.39278  0.03417  1.0000
  H   H19       1.0  0.07641  0.8927000000000002  0.9658299999999999  1.0000
  H   H20       1.0  0.92359  0.8927700000000001  0.03415  1.0000
  H   H21       1.0  0.61791  0.5370700000000002  0.9342300000000001  1.0000
  H   H22       1.0  0.38214  0.5371200000000002  0.06579  1.0000
  H   H23       1.0  0.11789999999999999  0.037040000000000003  0.9342300000000001  1.0000
  H   H24       1.0  0.88215  0.03712  0.06576  1.0000
  C   C65       1.0  0.50833  0.1676  0.42049  1.0000
  C   C66       1.0  0.51658  0.17136000000000004  0.56848  1.0000
  C   C67       1.0  0.97964  0.6697600000000001  0.43266  1.0000
  C   C68       1.0  0.99043  0.6699000000000002  0.58019  1.0000
  C   C69       1.0  0.52897  0.27371  0.4557999999999999  1.0000
  C   C70       1.0  0.53253  0.27459000000000006  0.5284  1.0000
  C   C71       1.0  0.9717599999999997  0.77695  0.47119  1.0000
  C   C72       1.0  0.97611  0.77801  0.54354  1.0000
  C   C73       1.0  0.5075699999999999  0.06044000000000001  0.53308  1.0000
  C   C74       1.0  0.5062  0.05797000000000001  0.45884  1.0000
  C   C75       1.0  0.98349  0.5586800000000001  0.54403  1.0000
  C   C76       1.0  0.97911  0.55862  0.46975999999999996  1.0000
  C   C77       1.0  0.50122  0.40166  0.45485  1.0000
  C   C78       1.0  0.5041699999999999  0.40034  0.535  1.0000
  C   C79       1.0  0.00768  0.8960800000000002  0.46191  1.0000
  C   C80       1.0  0.0124  0.89953  0.54192  1.0000
  H   H25       1.0  0.49954  0.97733  0.56268  1.0000
  H   H26       1.0  0.49700999999999995  0.9727800000000001  0.43204999999999993  1.0000
  H   H27       1.0  0.9881799999999998  0.47304  0.57193  1.0000
  H   H28       1.0  0.9781699999999999  0.4729600000000001  0.44155999999999995  1.0000
  H   H29       1.0  0.97353  0.96792  0.43979999999999997  1.0000
  H   H30       1.0  0.06701  0.8956000000000002  0.5601  1.0000
  H   H31       1.0  0.44715999999999995  0.4091  0.43561999999999995  1.0000
  H   H32       1.0  0.54202  0.4660400000000001  0.5570699999999998  1.0000
  H   H33       1.0  0.5384399999999998  0.46683  0.43022999999999995  1.0000
  H   H34       1.0  0.45201999999999987  0.40200000000000014  0.56088  1.0000
  H   H35       1.0  0.05908999999999999  0.88676  0.43499  1.0000
  H   H36       1.0  0.98048  0.973  0.56635  1.0000
  C   C81       1.0  0.7618199999999998  0.43636  0.42919  1.0000
  C   C82       1.0  0.24806999999999998  0.4086  0.57823  1.0000
  C   C83       1.0  0.25063  0.9110900000000001  0.42203  1.0000
  C   C84       1.0  0.7513899999999998  0.89822  0.58148  1.0000
  C   C85       1.0  0.8184299999999998  0.39531000000000005  0.46863  1.0000
  C   C86       1.0  0.20291999999999996  0.3306700000000001  0.54159  1.0000
  C   C87       1.0  0.29091  0.82369  0.45703999999999995  1.0000
  C   C88       1.0  0.70693  0.8186200000000001  0.54493  1.0000
  C   C89       1.0  0.81529  0.3866000000000001  0.54135  1.0000
  C   C90       1.0  0.20596000000000003  0.3221  0.46881  1.0000
  C   C91       1.0  0.28892999999999996  0.8149600000000001  0.52998  1.0000
  C   C92       1.0  0.7104699999999998  0.80938  0.47208999999999995  1.0000
  C   C93       1.0  0.7012299999999999  0.47781000000000007  0.54036  1.0000
  C   C94       1.0  0.30484  0.45626000000000005  0.46578  1.0000
  C   C95       1.0  0.19939999999999997  0.9676300000000001  0.53618  1.0000
  C   C96       1.0  0.8123599999999997  0.9355700000000001  0.46998999999999996  1.0000
  C   C97       1.0  0.70462  0.48566  0.46598999999999996  1.0000
  C   C98       1.0  0.30279  0.46355  0.54015  1.0000
  C   C99       1.0  0.20093  0.97679  0.4618999999999999  1.0000
  C   C100      1.0  0.80943  0.9444800000000001  0.54449  1.0000
  C   C101      1.0  0.8588  0.2803  0.46032999999999996  1.0000
  C   C102      1.0  0.12485999999999998  0.32426  0.54102  1.0000
  C   C103      1.0  0.36804  0.8026800000000001  0.45582  1.0000
  C   C104      1.0  0.6290799999999999  0.8084000000000001  0.54368  1.0000
  C   C105      1.0  0.85594  0.27021  0.54037  1.0000
  C   C106      1.0  0.12882  0.3158500000000001  0.46097  1.0000
  C   C107      1.0  0.36555  0.79648  0.53589  1.0000
  C   C108      1.0  0.6336099999999998  0.8010200000000002  0.46356  1.0000
  C   C109      1.0  0.75428  0.41787  0.57799  1.0000
  C   C110      1.0  0.2536  0.39013000000000003  0.42927  1.0000
  C   C111      1.0  0.24651  0.8906400000000001  0.57096  1.0000
  C   C112      1.0  0.7586299999999998  0.8763600000000002  0.43275  1.0000
  H   H37       1.0  0.6550899999999997  0.50934  0.56763  1.0000
  H   H38       1.0  0.3447099999999999  0.50506  0.43682000000000004  1.0000
  H   H39       1.0  0.16319  0.023060000000000004  0.56633  1.0000
  H   H40       1.0  0.8546  0.97896  0.44158  1.0000
  H   H41       1.0  0.66195  0.52571  0.4372  1.0000
  H   H42       1.0  0.3403199999999999  0.51954  0.5672499999999999  1.0000
  H   H43       1.0  0.16761  0.04275000000000001  0.43654  1.0000
  H   H44       1.0  0.84889  0.9960600000000002  0.57205  1.0000
  H   H45       1.0  0.91223  0.29534000000000005  0.43933999999999995  1.0000
  H   H46       1.0  0.10018999999999997  0.40997  0.55905  1.0000
  H   H47       1.0  0.39741999999999994  0.88247  0.4367  1.0000
  H   H48       1.0  0.60311  0.89215  0.56202  1.0000
  H   H49       1.0  0.8287399999999999  0.20808000000000001  0.43265  1.0000
  H   H50       1.0  0.10466999999999999  0.24003  0.56657  1.0000
  H   H51       1.0  0.38237999999999994  0.71501  0.43026999999999993  1.0000
  H   H52       1.0  0.6100499999999998  0.7230800000000001  0.56885  1.0000
  H   H53       1.0  0.8242199999999997  0.19200000000000003  0.55836  1.0000
  H   H54       1.0  0.11052999999999999  0.22713000000000003  0.43999  1.0000
  H   H55       1.0  0.3801  0.70637  0.55727  1.0000
  H   H56       1.0  0.61592  0.71257  0.44198000000000004  1.0000
  H   H57       1.0  0.90769  0.27958000000000005  0.566  1.0000
  H   H58       1.0  0.10715999999999998  0.39696  0.4335  1.0000
  H   H59       1.0  0.39162  0.8744500000000001  0.56228  1.0000
  H   H60       1.0  0.61202  0.88194  0.43607  1.0000
  N   N1        1.0  0.14924  0.12296000000000001  0.05625  1.0000
  O   O53       1.0  0.1049  0.19434000000000004  0.08811  1.0000
  O   O54       1.0  0.20036  0.17088000000000003  0.02017  1.0000
  N   N2        1.0  0.85084  0.12297000000000002  0.94374  1.0000
  O   O55       1.0  0.89517  0.19431  0.91183  1.0000
  O   O56       1.0  0.7997499999999998  0.17091000000000003  0.97982  1.0000
  N   N3        1.0  0.64926  0.6229800000000001  0.05625  1.0000
  O   O57       1.0  0.6048399999999999  0.69441  0.08794999999999999  1.0000
  O   O58       1.0  0.7004199999999998  0.6708500000000001  0.02023  1.0000
  N   N4        1.0  0.35083  0.62299  0.94377  1.0000
  O   O59       1.0  0.39515  0.69434  0.9118399999999999  1.0000
  O   O60       1.0  0.29974999999999996  0.67093  0.97986  1.0000
  N   N5        1.0  0.58313  0.44855000000000006  0.10054  1.0000
  O   O61       1.0  0.60255  0.37838  0.15258  1.0000
  O   O62       1.0  0.5209199999999999  0.49498  0.1019  1.0000
  N   N6        1.0  0.41689  0.44852  0.8994700000000001  1.0000
  O   O63       1.0  0.39745  0.3783  0.84744  1.0000
  O   O64       1.0  0.47911999999999993  0.4949700000000001  0.89812  1.0000
  N   N7        1.0  0.08313  0.94851  0.10054  1.0000
  O   O65       1.0  0.10255  0.87836  0.15258  1.0000
  O   O66       1.0  0.020909999999999995  0.9949500000000001  0.10188999999999998  1.0000
  N   N8        1.0  0.9168799999999999  0.94849  0.89944  1.0000
  O   O67       1.0  0.8974299999999998  0.87828  0.8474  1.0000
  O   O68       1.0  0.97912  0.99492  0.89809  1.0000
