data_image0
_chemical_formula_structural       C120Cr12H140O52NHCH3NHCH3NHCH3NHCH3
_chemical_formula_sum              "C124 Cr12 H156 O52 N4"
_cell_length_a       19.80738
_cell_length_b       11.28812
_cell_length_c       18.70904
_cell_angle_alpha    90.04156
_cell_angle_beta     90.75051
_cell_angle_gamma    90.06509

_space_group_name_H-M_alt    "P 1"
_space_group_IT_number       1

loop_
  _space_group_symop_operation_xyz
  'x, y, z'

loop_
  _atom_site_type_symbol
  _atom_site_label
  _atom_site_symmetry_multiplicity
  _atom_site_fract_x
  _atom_site_fract_y
  _atom_site_fract_z
  _atom_site_occupancy
  C   C1        1.0  0.7615799999999999  0.52197  0.63859  1.0000
  C   C2        1.0  0.23950999999999997  0.52454  0.35998  1.0000
  C   C3        1.0  0.2615799999999999  0.02197  0.63859  1.0000
  C   C4        1.0  0.73951  0.02454  0.35998  1.0000
  C   C5        1.0  0.8140299999999999  0.12909999999999996  0.44813000000000003  1.0000
  C   C6        1.0  0.19166999999999998  0.13244999999999998  0.54943  1.0000
  C   C7        1.0  0.3140299999999999  0.6291  0.44813000000000003  1.0000
  C   C8        1.0  0.69167  0.63245  0.54943  1.0000
  C   C9        1.0  0.7502599999999998  0.056699999999999987  0.43545999999999996  1.0000
  C   C10       1.0  0.2529  0.05379  0.56209  1.0000
  C   C11       1.0  0.25026  0.5567  0.43545999999999996  1.0000
  C   C12       1.0  0.7529  0.55379  0.56209  1.0000
  C   C13       1.0  0.7626999999999998  0.09033  0.57309  1.0000
  C   C14       1.0  0.23829  0.08778  0.42473  1.0000
  C   C15       1.0  0.2627  0.59033  0.57309  1.0000
  C   C16       1.0  0.7382899999999999  0.58778  0.42473  1.0000
  C   C17       1.0  0.7618  0.95685  0.55973  1.0000
  C   C18       1.0  0.23284  0.9554  0.4374  1.0000
  C   C19       1.0  0.2618  0.45685  0.55973  1.0000
  C   C20       1.0  0.73284  0.4554  0.4374  1.0000
  C   C21       1.0  0.82447  0.13778  0.52984  1.0000
  C   C22       1.0  0.17911  0.13891  0.46863  1.0000
  C   C23       1.0  0.3244699999999999  0.63778  0.52984  1.0000
  C   C24       1.0  0.67911  0.63891  0.46863  1.0000
  C   C25       1.0  0.00837  0.21114  0.46121  1.0000
  C   C26       1.0  0.99926  0.20858  0.54215  1.0000
  C   C27       1.0  0.50837  0.71114  0.46121  1.0000
  C   C28       1.0  0.49925999999999987  0.7085799999999999  0.54215  1.0000
  C   C29       1.0  0.07846  0.40152999999999994  0.48903  1.0000
  C   C30       1.0  0.9422699999999999  0.41129  0.52394  1.0000
  C   C31       1.0  0.57846  0.90153  0.48903  1.0000
  C   C32       1.0  0.44226999999999994  0.9112899999999999  0.52394  1.0000
  C   C33       1.0  0.96018  0.41080999999999995  0.44366  1.0000
  C   C34       1.0  0.05872  0.40188  0.56853  1.0000
  C   C35       1.0  0.4601799999999999  0.91081  0.44366  1.0000
  C   C36       1.0  0.55873  0.90187  0.56853  1.0000
  C   C37       1.0  0.026009999999999995  0.33862  0.43698  1.0000
  C   C38       1.0  0.99165  0.3367  0.57169  1.0000
  C   C39       1.0  0.52601  0.83862  0.43698  1.0000
  C   C40       1.0  0.49165  0.8367  0.57169  1.0000
  C   C41       1.0  0.8192599999999999  0.03069  0.04865  1.0000
  C   C42       1.0  0.18744  0.01049  0.95543  1.0000
  C   C43       1.0  0.31926  0.53069  0.04865  1.0000
  C   C44       1.0  0.68744  0.5104899999999999  0.95543  1.0000
  C   C45       1.0  0.7747899999999999  0.12156  0.64897  1.0000
  C   C46       1.0  0.22577999999999998  0.12008999999999997  0.34985  1.0000
  C   C47       1.0  0.27479  0.62156  0.64897  1.0000
  C   C48       1.0  0.7257799999999999  0.62009  0.34985  1.0000
  C   C49       1.0  0.8219799999999999  0.03653  0.9684199999999998  1.0000
  C   C50       1.0  0.18465999999999996  0.01646  0.0356  1.0000
  C   C51       1.0  0.32197999999999993  0.53653  0.9684199999999998  1.0000
  C   C52       1.0  0.68466  0.51646  0.0356  1.0000
  C   C53       1.0  0.69275  0.01303  0.0305  1.0000
  C   C54       1.0  0.31773  0.03408  0.97038  1.0000
  C   C55       1.0  0.19274999999999995  0.51303  0.0305  1.0000
  C   C56       1.0  0.8177299999999998  0.53409  0.97038  1.0000
  C   C57       1.0  0.7446199999999997  0.20469999999999997  0.06122999999999999  1.0000
  C   C58       1.0  0.24514999999999998  0.20032999999999998  0.9378  1.0000
  C   C59       1.0  0.24461999999999998  0.7047  0.06122999999999999  1.0000
  C   C60       1.0  0.74515  0.70033  0.9378  1.0000
  C   C61       1.0  0.74908  0.07273  0.07553  1.0000
  C   C62       1.0  0.25333  0.06823  0.92595  1.0000
  C   C63       1.0  0.24907999999999997  0.57273  0.07553  1.0000
  C   C64       1.0  0.7533299999999999  0.56823  0.92595  1.0000
  C   C65       1.0  0.7610199999999999  0.1061  0.93639  1.0000
  C   C66       1.0  0.23964  0.10227  0.06462  1.0000
  C   C67       1.0  0.2610199999999999  0.6061  0.93639  1.0000
  C   C68       1.0  0.7396399999999997  0.60227  0.06462  1.0000
  C   C69       1.0  0.6997  0.027439999999999996  0.9484099999999999  1.0000
  C   C70       1.0  0.30785  0.0443  0.05216  1.0000
  C   C71       1.0  0.19969999999999993  0.52744  0.9484099999999999  1.0000
  C   C72       1.0  0.8078499999999998  0.5443  0.05216  1.0000
  C   C73       1.0  0.7460499999999999  0.22246999999999995  0.979  1.0000
  C   C74       1.0  0.23789  0.21768999999999997  0.01956  1.0000
  C   C75       1.0  0.24605  0.7224699999999997  0.979  1.0000
  C   C76       1.0  0.7378899999999998  0.7176899999999999  0.01956  1.0000
  C   C77       1.0  0.9948599999999999  0.47976999999999986  0.04247  1.0000
  C   C78       1.0  0.9912999999999998  0.47992  0.9615799999999999  1.0000
  C   C79       1.0  0.49485999999999997  0.97977  0.04247  1.0000
  C   C80       1.0  0.4913  0.97993  0.9615799999999999  1.0000
  C   C81       1.0  0.06672  0.2963  0.027979999999999998  1.0000
  C   C82       1.0  0.93785  0.27018  0.97247  1.0000
  C   C83       1.0  0.56672  0.7963  0.027979999999999998  1.0000
  C   C84       1.0  0.43784999999999996  0.77018  0.97247  1.0000
  C   C85       1.0  0.9455899999999999  0.27874999999999994  0.054479999999999994  1.0000
  C   C86       1.0  0.05762  0.29878  0.94581  1.0000
  C   C87       1.0  0.44558999999999993  0.77875  0.054479999999999994  1.0000
  C   C88       1.0  0.55762  0.79878  0.94581  1.0000
  C   C89       1.0  0.96627  0.34277  0.64438  1.0000
  C   C90       1.0  0.05211999999999999  0.34507  0.36273999999999995  1.0000
  C   C91       1.0  0.46627  0.84277  0.64438  1.0000
  C   C92       1.0  0.55212  0.8450699999999999  0.36273999999999995  1.0000
  C   C93       1.0  0.00826  0.35206  0.07029  1.0000
  C   C94       1.0  0.9882199999999999  0.35141  0.93128  1.0000
  C   C95       1.0  0.50826  0.8520599999999999  0.07029  1.0000
  C   C96       1.0  0.48822  0.8514  0.93128  1.0000
  C   C97       1.0  0.76127  0.53241  0.8493799999999999  1.0000
  C   C98       1.0  0.23993  0.53576  0.15202  1.0000
  C   C99       1.0  0.26127  0.03241  0.8493799999999999  1.0000
  C   C100      1.0  0.73993  0.03576  0.15202  1.0000
  C   C101      1.0  0.77487  0.13376999999999997  0.8591900000000001  1.0000
  C   C102      1.0  0.22554  0.13218  0.14140999999999998  1.0000
  C   C103      1.0  0.27487  0.63377  0.8591900000000001  1.0000
  C   C104      1.0  0.7255399999999997  0.63218  0.14140999999999998  1.0000
  C   C105      1.0  0.9680199999999999  0.35331  0.85438  1.0000
  C   C106      1.0  0.02998  0.35316  0.1469  1.0000
  C   C107      1.0  0.46802  0.8533099999999999  0.85438  1.0000
  C   C108      1.0  0.5299699999999999  0.85316  0.1469  1.0000
  C   C109      1.0  0.69216  0.13539  0.46361  1.0000
  C   C110      1.0  0.31322  0.12446  0.53318  1.0000
  C   C111      1.0  0.19215999999999997  0.6354  0.4636199999999999  1.0000
  C   C112      1.0  0.81322  0.62446  0.53318  1.0000
  C   C113      1.0  0.69408  0.1385  0.54473  1.0000
  C   C114      1.0  0.30851  0.13221  0.45197  1.0000
  C   C115      1.0  0.19408  0.6385  0.54473  1.0000
  C   C116      1.0  0.80851  0.63221  0.45197  1.0000
  C   C117      1.0  0.7624  0.93836  0.47837  1.0000
  C   C118      1.0  0.24120999999999998  0.9359899999999999  0.51869  1.0000
  C   C119      1.0  0.26239999999999997  0.4383599999999999  0.47837  1.0000
  C   C120      1.0  0.7412099999999998  0.43599  0.51869  1.0000
  Cr  Cr1       1.0  0.8856899999999999  0.49286  0.74531  1.0000
  Cr  Cr2       1.0  0.11431  0.49286  0.25469  1.0000
  Cr  Cr3       1.0  0.38569  0.99286  0.74531  1.0000
  Cr  Cr4       1.0  0.6143099999999999  0.99286  0.25469  1.0000
  Cr  Cr5       1.0  0.72988  0.33227  0.74819  1.0000
  Cr  Cr6       1.0  0.27012  0.33227  0.25181  1.0000
  Cr  Cr7       1.0  0.22987999999999997  0.8322699999999997  0.74819  1.0000
  Cr  Cr8       1.0  0.77012  0.8322699999999997  0.25181  1.0000
  Cr  Cr9       1.0  0.8881199999999999  0.17859  0.75301  1.0000
  Cr  Cr10      1.0  0.11188  0.17859  0.24698999999999996  1.0000
  Cr  Cr11      1.0  0.38811999999999997  0.67859  0.75301  1.0000
  Cr  Cr12      1.0  0.6118799999999999  0.67859  0.24698999999999996  1.0000
  H   H1        1.0  0.64231  0.11370999999999999  0.44229  1.0000
  H   H2        1.0  0.36051  0.08598  0.55005  1.0000
  H   H3        1.0  0.14231  0.61371  0.44229  1.0000
  H   H4        1.0  0.86051  0.58599  0.55005  1.0000
  H   H5        1.0  0.8661299999999998  0.07592  0.5423  1.0000
  H   H6        1.0  0.13547  0.08081  0.45901999999999993  1.0000
  H   H7        1.0  0.36612  0.57592  0.5423  1.0000
  H   H8        1.0  0.6354699999999999  0.58081  0.45901999999999993  1.0000
  H   H9        1.0  0.81397  0.90654  0.46588999999999997  1.0000
  H   H10       1.0  0.19239999999999996  0.90045  0.5366  1.0000
  H   H11       1.0  0.31397  0.40653999999999996  0.46588999999999997  1.0000
  H   H12       1.0  0.6924  0.40045  0.5366  1.0000
  H   H13       1.0  0.80636  0.91331  0.58518  1.0000
  H   H14       1.0  0.18236  0.92181  0.41983  1.0000
  H   H15       1.0  0.30636  0.41331  0.58518  1.0000
  H   H16       1.0  0.68236  0.42181  0.41983  1.0000
  H   H17       1.0  0.0439  0.14524  0.4431899999999999  1.0000
  H   H18       1.0  0.95605  0.15495  0.55585  1.0000
  H   H19       1.0  0.5439  0.64524  0.4431899999999999  1.0000
  H   H20       1.0  0.4560499999999999  0.65495  0.55585  1.0000
  H   H21       1.0  0.96109  0.18006  0.43513  1.0000
  H   H22       1.0  0.041509999999999984  0.15974  0.56677  1.0000
  H   H23       1.0  0.46109  0.68006  0.43513  1.0000
  H   H24       1.0  0.5415  0.65974  0.56677  1.0000
  H   H25       1.0  0.6301899999999999  0.87764  0.48379  1.0000
  H   H26       1.0  0.3896499999999999  0.88911  0.53485  1.0000
  H   H27       1.0  0.13019  0.37762999999999997  0.48379  1.0000
  H   H28       1.0  0.8896499999999999  0.38909999999999995  0.53484  1.0000
  H   H29       1.0  0.96801  0.50511  0.42776000000000003  1.0000
  H   H30       1.0  0.051  0.49667  0.58349  1.0000
  H   H31       1.0  0.46801  0.00511  0.42776000000000003  1.0000
  H   H32       1.0  0.551  0.9966599999999999  0.5835  1.0000
  H   H33       1.0  0.9491099999999999  0.50454  0.54043  1.0000
  H   H34       1.0  0.07596  0.49427  0.47307  1.0000
  H   H35       1.0  0.44910999999999995  0.00454  0.54043  1.0000
  H   H36       1.0  0.57596  0.99427  0.47307999999999995  1.0000
  H   H37       1.0  0.83243  0.9387499999999999  0.0638  1.0000
  H   H38       1.0  0.18007  0.91906  0.9388900000000001  1.0000
  H   H39       1.0  0.33243  0.43874  0.0638  1.0000
  H   H40       1.0  0.68007  0.41906  0.9388900000000001  1.0000
  H   H41       1.0  0.69804  0.22655  0.44338000000000005  1.0000
  H   H42       1.0  0.31461  0.21483999999999998  0.55649  1.0000
  H   H43       1.0  0.19803999999999994  0.72655  0.44338000000000005  1.0000
  H   H44       1.0  0.8146099999999998  0.7148399999999999  0.55649  1.0000
  H   H45       1.0  0.8591799999999999  0.08641  0.07312  1.0000
  H   H46       1.0  0.14263999999999996  0.05675  0.93231  1.0000
  H   H47       1.0  0.35918  0.5864099999999999  0.07312  1.0000
  H   H48       1.0  0.64264  0.55675  0.93231  1.0000
  H   H49       1.0  0.8704999999999999  0.07247  0.9534499999999999  1.0000
  H   H50       1.0  0.13264  0.0424  0.04955  1.0000
  H   H51       1.0  0.37049999999999994  0.57247  0.9534499999999999  1.0000
  H   H52       1.0  0.6326399999999999  0.5424  0.04955  1.0000
  H   H53       1.0  0.8224299999999999  0.94507  0.9462199999999998  1.0000
  H   H54       1.0  0.19217  0.92789  0.05917  1.0000
  H   H55       1.0  0.32242999999999994  0.44507  0.9462199999999998  1.0000
  H   H56       1.0  0.69217  0.42789  0.05917  1.0000
  H   H57       1.0  0.69953  0.92241  0.04426  1.0000
  H   H58       1.0  0.33813  0.9484  0.95498  1.0000
  H   H59       1.0  0.19953  0.42240999999999995  0.04426  1.0000
  H   H60       1.0  0.83813  0.44839999999999997  0.95498  1.0000
  H   H61       1.0  0.70627  0.9403799999999999  0.92199  1.0000
  H   H62       1.0  0.31021  0.95588  0.07778  1.0000
  H   H63       1.0  0.20626999999999998  0.44038  0.92199  1.0000
  H   H64       1.0  0.8102099999999999  0.45588  0.07778  1.0000
  H   H65       1.0  0.6966699999999999  0.23862  0.0836  1.0000
  H   H66       1.0  0.28935999999999995  0.25027  0.9175999999999999  1.0000
  H   H67       1.0  0.19667  0.73862  0.0836  1.0000
  H   H68       1.0  0.7893599999999998  0.75027  0.9175999999999999  1.0000
  H   H69       1.0  0.78705  0.25225  0.08783  1.0000
  H   H70       1.0  0.19999999999999998  0.23369  0.9082200000000001  1.0000
  H   H71       1.0  0.28705  0.75225  0.08783  1.0000
  H   H72       1.0  0.7  0.7336899999999998  0.9082200000000001  1.0000
  H   H73       1.0  0.77945  0.29489  0.9645199999999999  1.0000
  H   H74       1.0  0.18792  0.24864  0.026799999999999997  1.0000
  H   H75       1.0  0.27945  0.79488  0.9645199999999999  1.0000
  H   H76       1.0  0.6879199999999999  0.74864  0.026799999999999997  1.0000
  H   H77       1.0  0.6942099999999999  0.24776999999999996  0.96331  1.0000
  H   H78       1.0  0.27654  0.28023  0.03951  1.0000
  H   H79       1.0  0.19421  0.7477699999999999  0.96331  1.0000
  H   H80       1.0  0.77654  0.78023  0.03951  1.0000
  H   H81       1.0  0.6428  0.045399999999999996  0.04731  1.0000
  H   H82       1.0  0.35615  0.10094999999999997  0.95674  1.0000
  H   H83       1.0  0.1428  0.5454  0.04731  1.0000
  H   H84       1.0  0.8561499999999999  0.60095  0.95674  1.0000
  H   H85       1.0  0.68255  0.22727  0.56424  1.0000
  H   H86       1.0  0.31901  0.224  0.43572  1.0000
  H   H87       1.0  0.18255  0.72727  0.56424  1.0000
  H   H88       1.0  0.81901  0.724  0.43572  1.0000
  H   H89       1.0  0.65337  0.06811  0.925  1.0000
  H   H90       1.0  0.34805  0.10055999999999998  0.07654  1.0000
  H   H91       1.0  0.15337  0.56811  0.925  1.0000
  H   H92       1.0  0.84805  0.60056  0.07654  1.0000
  H   H93       1.0  0.03424  0.54414  0.05903  1.0000
  H   H94       1.0  0.94944  0.53473  0.94361  1.0000
  H   H95       1.0  0.53424  0.04414  0.05903  1.0000
  H   H96       1.0  0.44943  0.03473  0.94361  1.0000
  H   H97       1.0  0.94724  0.51341  0.06488  1.0000
  H   H98       1.0  0.03647999999999999  0.52626  0.94048  1.0000
  H   H99       1.0  0.44724  0.01341  0.06488  1.0000
  H   H100      1.0  0.53648  0.02626  0.94048  1.0000
  H   H101      1.0  0.60789  0.8519699999999999  0.04271  1.0000
  H   H102      1.0  0.38557  0.78229  0.95483  1.0000
  H   H103      1.0  0.10788999999999999  0.35197  0.04271  1.0000
  H   H104      1.0  0.8855699999999999  0.28229  0.95483  1.0000
  H   H105      1.0  0.5975699999999999  0.85264  0.9204099999999998  1.0000
  H   H106      1.0  0.40037  0.8198  0.07843  1.0000
  H   H107      1.0  0.09756999999999999  0.35264  0.9204099999999998  1.0000
  H   H108      1.0  0.90036  0.31979  0.07843  1.0000
  H   H109      1.0  0.9524099999999998  0.18915999999999997  0.07796  1.0000
  H   H110      1.0  0.06132  0.20785  0.9234  1.0000
  H   H111      1.0  0.4524099999999999  0.68916  0.07796  1.0000
  H   H112      1.0  0.56132  0.7078499999999999  0.9234  1.0000
  H   H113      1.0  0.9521699999999998  0.17867999999999998  0.9580199999999999  1.0000
  H   H114      1.0  0.0756  0.20426  0.0457  1.0000
  H   H115      1.0  0.45217  0.67868  0.9580199999999999  1.0000
  H   H116      1.0  0.5756  0.70426  0.0457  1.0000
  H   H117      1.0  0.65242  0.08386  0.56494  1.0000
  H   H118      1.0  0.34892  0.07833  0.42788  1.0000
  H   H119      1.0  0.15241999999999997  0.58386  0.56494  1.0000
  H   H120      1.0  0.84892  0.57833  0.42788  1.0000
  H   H121      1.0  0.73012  0.8663  0.46052  1.0000
  H   H122      1.0  0.28077  0.87174  0.52973  1.0000
  H   H123      1.0  0.23011999999999996  0.3663  0.46052  1.0000
  H   H124      1.0  0.78077  0.37173999999999996  0.52973  1.0000
  H   H125      1.0  0.71728  0.91629  0.5829  1.0000
  H   H126      1.0  0.266  0.90515  0.40273  1.0000
  H   H127      1.0  0.21727999999999995  0.41629  0.5829  1.0000
  H   H128      1.0  0.76599  0.40514999999999995  0.40273  1.0000
  H   H129      1.0  0.8584699999999998  0.0867  0.42297  1.0000
  H   H130      1.0  0.14712  0.09413  0.5764  1.0000
  H   H131      1.0  0.35846999999999996  0.5867  0.42297  1.0000
  H   H132      1.0  0.6471199999999999  0.59412  0.5764  1.0000
  H   H133      1.0  0.8074799999999999  0.21603  0.42316  1.0000
  H   H134      1.0  0.20155999999999996  0.22169999999999998  0.57099  1.0000
  H   H135      1.0  0.30748  0.7160299999999999  0.42316  1.0000
  H   H136      1.0  0.70156  0.7217  0.57099  1.0000
  H   H137      1.0  0.84134  0.22503  0.5475999999999999  1.0000
  H   H138      1.0  0.16381  0.22404  0.44803  1.0000
  H   H139      1.0  0.3413399999999999  0.7250299999999998  0.5475999999999999  1.0000
  H   H140      1.0  0.66381  0.72404  0.44803  1.0000
  O   O1        1.0  0.95721  0.44940999999999987  0.66548  1.0000
  O   O2        1.0  0.04279  0.44940999999999987  0.33452  1.0000
  O   O3        1.0  0.45721  0.94941  0.66548  1.0000
  O   O4        1.0  0.54279  0.94941  0.33452  1.0000
  O   O5        1.0  0.73626  0.21201  0.82656  1.0000
  O   O6        1.0  0.26374  0.21201  0.17344  1.0000
  O   O7        1.0  0.23626  0.7120099999999998  0.82656  1.0000
  O   O8        1.0  0.76374  0.7120099999999998  0.17344  1.0000
  O   O9        1.0  0.83252  0.0953  0.836  1.0000
  O   O10       1.0  0.16748  0.0953  0.16399999999999998  1.0000
  O   O11       1.0  0.33252  0.5953  0.836  1.0000
  O   O12       1.0  0.6674799999999999  0.5953  0.16399999999999998  1.0000
  O   O13       1.0  0.94638  0.25394  0.82694  1.0000
  O   O14       1.0  0.05361999999999999  0.25394  0.17306  1.0000
  O   O15       1.0  0.4463799999999999  0.75394  0.82694  1.0000
  O   O16       1.0  0.55362  0.75394  0.17306  1.0000
  O   O17       1.0  0.83456  0.33457  0.74884  1.0000
  O   O18       1.0  0.16544  0.33457  0.25116  1.0000
  O   O19       1.0  0.33456  0.8345699999999999  0.74884  1.0000
  O   O20       1.0  0.66544  0.8345699999999999  0.25116  1.0000
  O   O21       1.0  0.82073  0.54124  0.66825  1.0000
  O   O22       1.0  0.17926999999999996  0.54124  0.33175  1.0000
  O   O23       1.0  0.32072999999999996  0.04124  0.66825  1.0000
  O   O24       1.0  0.6792699999999999  0.04124  0.33175  1.0000
  O   O25       1.0  0.71424  0.45506  0.66371  1.0000
  O   O26       1.0  0.28575999999999996  0.45506  0.33629  1.0000
  O   O27       1.0  0.21423999999999999  0.95506  0.66371  1.0000
  O   O28       1.0  0.7857599999999999  0.95506  0.33629  1.0000
  O   O29       1.0  0.73678  0.20487  0.67591  1.0000
  O   O30       1.0  0.26322  0.20487  0.32409  1.0000
  O   O31       1.0  0.23678  0.7048699999999999  0.67591  1.0000
  O   O32       1.0  0.76322  0.7048699999999999  0.32409  1.0000
  O   O33       1.0  0.83307  0.08759  0.67349  1.0000
  O   O34       1.0  0.16692999999999997  0.08759  0.32651  1.0000
  O   O35       1.0  0.33307  0.58759  0.67349  1.0000
  O   O36       1.0  0.66693  0.58759  0.32651  1.0000
  O   O37       1.0  0.9468899999999999  0.2468  0.6763  1.0000
  O   O38       1.0  0.05311  0.2468  0.3237  1.0000
  O   O39       1.0  0.44688999999999995  0.7468  0.6763  1.0000
  O   O40       1.0  0.55311  0.7468  0.3237  1.0000
  O   O41       1.0  0.9566499999999999  0.45711999999999997  0.82798  1.0000
  O   O42       1.0  0.043349999999999986  0.45711999999999997  0.17202  1.0000
  O   O43       1.0  0.45665  0.95712  0.82798  1.0000
  O   O44       1.0  0.54335  0.95712  0.17202  1.0000
  O   O45       1.0  0.8202199999999998  0.54839  0.81889  1.0000
  O   O46       1.0  0.17978  0.54839  0.18111  1.0000
  O   O47       1.0  0.32022  0.04839  0.81889  1.0000
  O   O48       1.0  0.67978  0.04839  0.18111  1.0000
  O   O49       1.0  0.71368  0.46276999999999996  0.82621  1.0000
  O   O50       1.0  0.28632  0.46276999999999996  0.17379  1.0000
  O   O51       1.0  0.21368  0.96277  0.82621  1.0000
  O   O52       1.0  0.7863199999999999  0.96277  0.17379  1.0000
  N   N1        1.0  0.60941  0.85327  0.61796  1.0000
  H   H141      1.0  0.6068499999999999  0.7641599999999998  0.62762  1.0000
  C   C121      1.0  0.62141  0.91658  0.68459  1.0000
  H   H142      1.0  0.66864  0.88335  0.71011  1.0000
  H   H143      1.0  0.5793999999999999  0.9014199999999999  0.72215  1.0000
  H   H144      1.0  0.6275  0.013019999999999999  0.67558  1.0000
  N   N2        1.0  0.40564999999999996  0.86186  0.40015  1.0000
  H   H145      1.0  0.36167  0.8723199999999999  0.42593  1.0000
  C   C122      1.0  0.39881  0.8983099999999999  0.32604  1.0000
  H   H146      1.0  0.34752  0.8753099999999998  0.30561  1.0000
  H   H147      1.0  0.43481999999999993  0.8496899999999997  0.29213  1.0000
  H   H148      1.0  0.40578  0.9954899999999998  0.32036  1.0000
  N   N3        1.0  0.10940999999999998  0.35329  0.61796  1.0000
  H   H149      1.0  0.10686  0.26417  0.62761  1.0000
  C   C123      1.0  0.12139999999999998  0.41658999999999996  0.68459  1.0000
  H   H150      1.0  0.16865999999999998  0.3834199999999999  0.71009  1.0000
  H   H151      1.0  0.07940999999999998  0.40136  0.7221699999999999  1.0000
  H   H152      1.0  0.12744  0.51304  0.67559  1.0000
  N   N4        1.0  0.9056499999999998  0.36186  0.40015  1.0000
  H   H153      1.0  0.86167  0.37232  0.42593  1.0000
  C   C124      1.0  0.89881  0.39831  0.32603  1.0000
  H   H154      1.0  0.84752  0.37533  0.30561  1.0000
  H   H155      1.0  0.93482  0.34968  0.29213  1.0000
  H   H156      1.0  0.9057899999999999  0.49548999999999993  0.32035  1.0000
