data_image0
_chemical_formula_structural       C116Cr12H76O64
_chemical_formula_sum              "C116 Cr12 H76 O64"
_cell_length_a       18.94909
_cell_length_b       10.894059999999998
_cell_length_c       18.77854
_cell_angle_alpha    89.99887
_cell_angle_beta     90.17108999999999
_cell_angle_gamma    89.87483

_space_group_name_H-M_alt    "P 1"
_space_group_IT_number       1

loop_
  _space_group_symop_operation_xyz
  'x, y, z'

loop_
  _atom_site_type_symbol
  _atom_site_label
  _atom_site_symmetry_multiplicity
  _atom_site_fract_x
  _atom_site_fract_y
  _atom_site_fract_z
  _atom_site_occupancy
  C   C1        1.0  0.73037  0.37793  0.14622  1.0000
  C   C2        1.0  0.98542  0.9957  0.03501  1.0000
  C   C3        1.0  0.9938  0.77219  0.03668  1.0000
  C   C4        1.0  0.50061  0.04733999999999999  0.03554  1.0000
  C   C5        1.0  0.50711  0.04849  0.96159  1.0000
  C   C6        1.0  0.0006100000000000001  0.54734  0.03554  1.0000
  C   C7        1.0  0.00711  0.54849  0.96159  1.0000
  C   C8        1.0  0.59528  0.7845899999999999  0.43306000000000006  1.0000
  C   C9        1.0  0.55804  0.6642799999999999  0.45026  1.0000
  C   C10       1.0  0.47859  0.6817299999999998  0.45531  1.0000
  C   C11       1.0  0.36917  0.72483  0.60981  1.0000
  C   C12       1.0  0.43887  0.72617  0.65136  1.0000
  C   C13       1.0  0.50884  0.49716  0.9650000000000001  1.0000
  C   C14       1.0  0.45055000000000006  0.60769  0.693  1.0000
  C   C15       1.0  0.09528  0.28458  0.43307  1.0000
  C   C16       1.0  0.05804999999999999  0.16427  0.45026  1.0000
  C   C17       1.0  0.9785999999999999  0.18172  0.45533999999999997  1.0000
  C   C18       1.0  0.86916  0.22482  0.60982  1.0000
  C   C19       1.0  0.9388399999999999  0.2262  0.65141  1.0000
  C   C20       1.0  0.95053  0.10769  0.69303  1.0000
  C   C21       1.0  0.48541999999999996  0.4957  0.03501  1.0000
  C   C22       1.0  0.69816  0.86513  0.03762  1.0000
  C   C23       1.0  0.30379  0.86845  0.96286  1.0000
  C   C24       1.0  0.19816  0.36513  0.03762  1.0000
  C   C25       1.0  0.80379  0.36844999999999994  0.96286  1.0000
  C   C26       1.0  0.70003  0.8526799999999999  0.9640000000000001  1.0000
  C   C27       1.0  0.30167  0.85697  0.03657  1.0000
  C   C28       1.0  0.20003  0.35268  0.9640000000000001  1.0000
  C   C29       1.0  0.26954  0.37783999999999995  0.85372  1.0000
  C   C30       1.0  0.80168  0.35697  0.03657  1.0000
  C   C31       1.0  0.75042  0.91797  0.92446  1.0000
  C   C32       1.0  0.24869  0.9177  0.07519  1.0000
  C   C33       1.0  0.25042  0.41796  0.92446  1.0000
  C   C34       1.0  0.74869  0.4177  0.07519  1.0000
  C   C35       1.0  0.79511  0.00163  0.95811  1.0000
  C   C36       1.0  0.20113  0.99558  0.04044  1.0000
  C   C37       1.0  0.29511  0.50163  0.95811  1.0000
  C   C38       1.0  0.70112  0.49557  0.04044  1.0000
  C   C39       1.0  0.79489  0.0107  0.03082  1.0000
  C   C40       1.0  0.23036999999999996  0.8779299999999999  0.14622  1.0000
  C   C41       1.0  0.20135  0.00275  0.96775  1.0000
  C   C42       1.0  0.29489  0.5107  0.03082  1.0000
  C   C43       1.0  0.70135  0.50275  0.96775  1.0000
  C   C44       1.0  0.747  0.942  0.07138  1.0000
  C   C45       1.0  0.25243  0.93944  0.92811  1.0000
  C   C46       1.0  0.24699999999999997  0.442  0.07138  1.0000
  C   C47       1.0  0.75243  0.43943999999999994  0.92811  1.0000
  C   C48       1.0  0.48495999999999995  0.055659999999999994  0.45805  1.0000
  C   C49       1.0  0.48212999999999995  0.05333  0.5309500000000001  1.0000
  C   C50       1.0  0.9849599999999998  0.55566  0.45805  1.0000
  C   C51       1.0  0.76954  0.8778399999999998  0.85372  1.0000
  C   C52       1.0  0.9821299999999998  0.55333  0.5309500000000001  1.0000
  C   C53       1.0  0.48572  0.16262  0.5702300000000001  1.0000
  C   C54       1.0  0.49833999999999995  0.16578  0.42261  1.0000
  C   C55       1.0  0.98572  0.66262  0.5702300000000001  1.0000
  C   C56       1.0  0.99834  0.6657799999999999  0.42261  1.0000
  C   C57       1.0  0.53045  0.15474  0.14658  1.0000
  C   C58       1.0  0.47028999999999993  0.15496  0.85279  1.0000
  C   C59       1.0  0.030449999999999998  0.65474  0.14658  1.0000
  C   C60       1.0  0.9702899999999999  0.65496  0.85279  1.0000
  C   C61       1.0  0.49276  0.27503  0.53459  1.0000
  C   C62       1.0  0.52065  0.38782999999999995  0.92822  1.0000
  C   C63       1.0  0.49789  0.2767  0.46052  1.0000
  C   C64       1.0  0.99276  0.77503  0.53459  1.0000
  C   C65       1.0  0.99789  0.7767  0.46052  1.0000
  C   C66       1.0  0.82234  0.93863  0.45544  1.0000
  C   C67       1.0  0.17641  0.9193299999999999  0.54831  1.0000
  C   C68       1.0  0.32234  0.43862999999999996  0.45544  1.0000
  C   C69       1.0  0.67641  0.41934  0.54831  1.0000
  C   C70       1.0  0.83231  0.90909  0.52603  1.0000
  C   C71       1.0  0.16654  0.89267  0.4771  1.0000
  C   C72       1.0  0.33231  0.40909  0.52603  1.0000
  C   C73       1.0  0.47651  0.38497999999999993  0.07118  1.0000
  C   C74       1.0  0.66654  0.3926799999999999  0.4771  1.0000
  C   C75       1.0  0.78064  0.8446999999999999  0.56325  1.0000
  C   C76       1.0  0.22191  0.84659  0.43631000000000003  1.0000
  C   C77       1.0  0.28064  0.3447  0.56325  1.0000
  C   C78       1.0  0.72191  0.34659999999999996  0.43632  1.0000
  C   C79       1.0  0.72374  0.79284  0.5255  1.0000
  C   C80       1.0  0.28629  0.81659  0.46932000000000007  1.0000
  C   C81       1.0  0.22375  0.29283  0.5255  1.0000
  C   C82       1.0  0.78629  0.31659  0.46932000000000007  1.0000
  C   C83       1.0  0.71371  0.8214999999999999  0.45298  1.0000
  C   C84       1.0  0.02065  0.8878299999999999  0.92822  1.0000
  C   C85       1.0  0.29726  0.84421  0.54109  1.0000
  C   C86       1.0  0.21372  0.3215  0.45297  1.0000
  C   C87       1.0  0.7972499999999999  0.3442  0.54109  1.0000
  C   C88       1.0  0.76061  0.9032199999999999  0.41981  1.0000
  C   C89       1.0  0.24303  0.90372  0.57958  1.0000
  C   C90       1.0  0.26061  0.40322  0.41981  1.0000
  C   C91       1.0  0.74303  0.40372  0.57958  1.0000
  C   C92       1.0  0.7406  0.97271  0.14605  1.0000
  C   C93       1.0  0.25926  0.97188  0.85372  1.0000
  C   C94       1.0  0.2406  0.47270999999999996  0.14605  1.0000
  C   C95       1.0  0.9765099999999999  0.88498  0.07118  1.0000
  C   C96       1.0  0.75926  0.47187999999999997  0.85372  1.0000
  C   C97       1.0  0.71112  0.33049  0.35977  1.0000
  C   C98       1.0  0.28944  0.32968  0.6403500000000001  1.0000
  C   C99       1.0  0.21112  0.83049  0.35977  1.0000
  C   C100      1.0  0.78944  0.82968  0.6403500000000001  1.0000
  C   C101      1.0  0.53029  0.15751  0.35246  1.0000
  C   C102      1.0  0.4659  0.15674  0.64494  1.0000
  C   C103      1.0  0.03028  0.65751  0.35246  1.0000
  C   C104      1.0  0.9659  0.65674  0.64494  1.0000
  C   C105      1.0  0.7431100000000002  0.96674  0.35302000000000006  1.0000
  C   C106      1.0  0.00884  0.99716  0.9650000000000001  1.0000
  C   C107      1.0  0.25779  0.9681299999999999  0.64633  1.0000
  C   C108      1.0  0.24311  0.46674  0.35302000000000006  1.0000
  C   C109      1.0  0.75779  0.4681299999999999  0.64633  1.0000
  C   C110      1.0  0.50357  0.16065  0.92423  1.0000
  C   C111      1.0  0.49959999999999993  0.15913  0.07392  1.0000
  C   C112      1.0  0.00357  0.66065  0.92423  1.0000
  C   C113      1.0  0.9996  0.65913  0.07392  1.0000
  C   C114      1.0  0.50655  0.27331  0.9621600000000001  1.0000
  C   C115      1.0  0.49379999999999996  0.27219  0.03668  1.0000
  C   C116      1.0  0.006549999999999999  0.77331  0.9621600000000001  1.0000
  Cr  Cr1       1.0  0.772  0.16964  0.25011  1.0000
  Cr  Cr2       1.0  0.38333  0.01062  0.74916  1.0000
  Cr  Cr3       1.0  0.11667  0.51062  0.25084  1.0000
  Cr  Cr4       1.0  0.88333  0.51062  0.74916  1.0000
  Cr  Cr5       1.0  0.228  0.16964  0.74989  1.0000
  Cr  Cr6       1.0  0.272  0.66964  0.25011  1.0000
  Cr  Cr7       1.0  0.728  0.66964  0.74989  1.0000
  Cr  Cr8       1.0  0.61496  0.32335  0.24926  1.0000
  Cr  Cr9       1.0  0.38503999999999994  0.32335  0.75074  1.0000
  Cr  Cr10      1.0  0.11496  0.8233499999999999  0.24926  1.0000
  Cr  Cr11      1.0  0.8850399999999999  0.8233499999999999  0.75074  1.0000
  Cr  Cr12      1.0  0.61667  0.01062  0.25084  1.0000
  H   H1        1.0  0.86157  0.99527  0.42987  1.0000
  H   H2        1.0  0.32944  0.7781099999999999  0.4389100000000001  1.0000
  H   H3        1.0  0.18742  0.23139  0.55194  1.0000
  H   H4        1.0  0.82944  0.2781  0.4389100000000001  1.0000
  H   H5        1.0  0.01814  0.08437  0.9390100000000001  1.0000
  H   H6        1.0  0.9737299999999999  0.0817  0.061450000000000005  1.0000
  H   H7        1.0  0.51814  0.58437  0.9390100000000001  1.0000
  H   H8        1.0  0.47373  0.5817  0.061450000000000005  1.0000
  H   H9        1.0  0.65934  0.81461  0.06796000000000002  1.0000
  H   H10       1.0  0.3451  0.8223999999999999  0.93329  1.0000
  H   H11       1.0  0.15933  0.31461  0.06796000000000002  1.0000
  H   H12       1.0  0.13321  0.96106  0.57728  1.0000
  H   H13       1.0  0.8450999999999999  0.3224  0.93329  1.0000
  H   H14       1.0  0.66471  0.788  0.93863  1.0000
  H   H15       1.0  0.33928  0.7971099999999999  0.06281  1.0000
  H   H16       1.0  0.1647  0.288  0.93863  1.0000
  H   H17       1.0  0.83928  0.29711  0.06281  1.0000
  H   H18       1.0  0.83386  0.05428  0.9288000000000001  1.0000
  H   H19       1.0  0.16023  0.04491  0.06887  1.0000
  H   H20       1.0  0.33386  0.55428  0.9288000000000001  1.0000
  H   H21       1.0  0.66022  0.54491  0.06887  1.0000
  H   H22       1.0  0.83178  0.07414  0.05489000000000001  1.0000
  H   H23       1.0  0.36156999999999995  0.49527  0.42987  1.0000
  H   H24       1.0  0.16215  0.06143  0.9430400000000001  1.0000
  H   H25       1.0  0.33178  0.57414  0.05489000000000001  1.0000
  H   H26       1.0  0.66215  0.56143  0.9430300000000001  1.0000
  H   H27       1.0  0.48158000000000006  0.96931  0.42986  1.0000
  H   H28       1.0  0.47552999999999995  0.96497  0.55623  1.0000
  H   H29       1.0  0.98158  0.46931  0.42986  1.0000
  H   H30       1.0  0.97553  0.46497  0.55623  1.0000
  H   H31       1.0  0.49398  0.36072  0.56373  1.0000
  H   H32       1.0  0.50425  0.36341  0.43324  1.0000
  H   H33       1.0  0.9939799999999999  0.86072  0.56373  1.0000
  H   H34       1.0  0.63321  0.46107  0.57728  1.0000
  H   H35       1.0  0.00424  0.86341  0.43324  1.0000
  H   H36       1.0  0.52908  0.8775  0.04989  1.0000
  H   H37       1.0  0.4837699999999999  0.8771699999999999  0.94514  1.0000
  H   H38       1.0  0.02908  0.3775  0.04989  1.0000
  H   H39       1.0  0.9837699999999999  0.37717  0.94514  1.0000
  H   H40       1.0  0.5682  0.82818  0.38706  1.0000
  H   H41       1.0  0.59054  0.84867  0.47928000000000004  1.0000
  H   H42       1.0  0.56909  0.59608  0.40772  1.0000
  H   H43       1.0  0.57837  0.62834  0.50173  1.0000
  H   H44       1.0  0.46603  0.76262  0.48857  1.0000
  H   H45       1.0  0.8794799999999999  0.94133  0.55231  1.0000
  H   H46       1.0  0.45513999999999993  0.59904  0.4799800000000001  1.0000
  H   H47       1.0  0.45547999999999994  0.69527  0.4014400000000001  1.0000
  H   H48       1.0  0.36814  0.64428  0.57392  1.0000
  H   H49       1.0  0.32491  0.71722  0.6486  1.0000
  H   H50       1.0  0.48368000000000005  0.73901  0.61413  1.0000
  H   H51       1.0  0.43861  0.80441  0.6892800000000001  1.0000
  H   H52       1.0  0.40692  0.59321  0.73144  1.0000
  H   H53       1.0  0.50091  0.61362  0.7231900000000001  1.0000
  H   H54       1.0  0.45393  0.52844  0.65601  1.0000
  H   H55       1.0  0.0682  0.32819  0.38707  1.0000
  H   H56       1.0  0.11654  0.91373  0.45286000000000004  1.0000
  H   H57       1.0  0.09054  0.34866  0.47929  1.0000
  H   H58       1.0  0.06908  0.09609  0.4077  1.0000
  H   H59       1.0  0.0784  0.12831  0.50172  1.0000
  H   H60       1.0  0.9660499999999999  0.26257  0.48864  1.0000
  H   H61       1.0  0.9551499999999999  0.09901  0.4799800000000001  1.0000
  H   H62       1.0  0.9554700000000002  0.19534  0.40149  1.0000
  H   H63       1.0  0.86816  0.14428  0.57393  1.0000
  H   H64       1.0  0.82488  0.2172  0.6485800000000002  1.0000
  H   H65       1.0  0.98367  0.23909  0.6142  1.0000
  H   H66       1.0  0.93854  0.30441  0.68934  1.0000
  H   H67       1.0  0.37948  0.44133999999999995  0.55231  1.0000
  H   H68       1.0  0.90688  0.09316  0.73144  1.0000
  H   H69       1.0  0.00087  0.11364  0.72324  1.0000
  H   H70       1.0  0.95394  0.028469999999999995  0.65602  1.0000
  H   H71       1.0  0.57522  0.31908999999999993  0.85052  1.0000
  H   H72       1.0  0.42285999999999996  0.31145  0.14785  1.0000
  H   H73       1.0  0.07522  0.81909  0.85052  1.0000
  H   H74       1.0  0.92286  0.8114499999999999  0.14785  1.0000
  H   H75       1.0  0.61654  0.41374  0.45286000000000004  1.0000
  H   H76       1.0  0.68742  0.7314  0.55194  1.0000
  O   O1        1.0  0.78754  0.04269  0.17047  1.0000
  O   O2        1.0  0.45413  0.05109999999999999  0.66916  1.0000
  O   O3        1.0  0.04587  0.5511  0.33084  1.0000
  O   O4        1.0  0.9541299999999999  0.5511  0.66916  1.0000
  O   O5        1.0  0.68134  0.9593  0.3255100000000001  1.0000
  O   O6        1.0  0.31866  0.9593  0.67449  1.0000
  O   O7        1.0  0.18134  0.4593  0.3255100000000001  1.0000
  O   O8        1.0  0.81866  0.4593  0.67449  1.0000
  O   O9        1.0  0.66788  0.16787  0.25007  1.0000
  O   O10       1.0  0.33212  0.16787  0.74993  1.0000
  O   O11       1.0  0.16788  0.66787  0.25007  1.0000
  O   O12       1.0  0.21245999999999998  0.04269  0.82953  1.0000
  O   O13       1.0  0.83212  0.66787  0.74993  1.0000
  O   O14       1.0  0.76566  0.29216  0.17505000000000004  1.0000
  O   O15       1.0  0.23434  0.29216  0.82495  1.0000
  O   O16       1.0  0.26566  0.79216  0.17505000000000004  1.0000
  O   O17       1.0  0.73434  0.79216  0.82495  1.0000
  O   O18       1.0  0.6701899999999998  0.40898  0.16855  1.0000
  O   O19       1.0  0.32981  0.40898  0.83145  1.0000
  O   O20       1.0  0.17019  0.90898  0.16855  1.0000
  O   O21       1.0  0.82981  0.90898  0.83145  1.0000
  O   O22       1.0  0.55658  0.25145  0.17516  1.0000
  O   O23       1.0  0.28754  0.54269  0.17047  1.0000
  O   O24       1.0  0.44342000000000004  0.25145  0.82484  1.0000
  O   O25       1.0  0.05658  0.75145  0.17516  1.0000
  O   O26       1.0  0.94342  0.75145  0.82484  1.0000
  O   O27       1.0  0.54592  0.04951  0.17032  1.0000
  O   O28       1.0  0.45407999999999993  0.04951  0.8296800000000002  1.0000
  O   O29       1.0  0.04592  0.54951  0.17032  1.0000
  O   O30       1.0  0.9540800000000002  0.54951  0.8296800000000002  1.0000
  O   O31       1.0  0.68139  0.95784  0.17671000000000006  1.0000
  O   O32       1.0  0.31861  0.95784  0.82329  1.0000
  O   O33       1.0  0.18139  0.45784  0.17671000000000006  1.0000
  O   O34       1.0  0.71246  0.54269  0.82953  1.0000
  O   O35       1.0  0.8186099999999998  0.45784  0.82329  1.0000
  O   O36       1.0  0.7875  0.04428  0.33099  1.0000
  O   O37       1.0  0.2125  0.04428  0.66901  1.0000
  O   O38       1.0  0.2875  0.54428  0.33099  1.0000
  O   O39       1.0  0.7125  0.54428  0.66901  1.0000
  O   O40       1.0  0.76561  0.29363  0.32386  1.0000
  O   O41       1.0  0.23439  0.29363  0.67614  1.0000
  O   O42       1.0  0.26561  0.79363  0.32386  1.0000
  O   O43       1.0  0.73439  0.79363  0.67614  1.0000
  O   O44       1.0  0.67014  0.41057  0.32908  1.0000
  O   O45       1.0  0.55654  0.25292  0.32397  1.0000
  O   O46       1.0  0.32986  0.41057  0.67092  1.0000
  O   O47       1.0  0.17014  0.91057  0.32908  1.0000
  O   O48       1.0  0.82986  0.91057  0.67092  1.0000
  O   O49       1.0  0.49568  0.93679  0.07148  1.0000
  O   O50       1.0  0.51558  0.93976  0.92445  1.0000
  O   O51       1.0  0.9956799999999999  0.43678999999999996  0.07148  1.0000
  O   O52       1.0  0.015579999999999998  0.43976  0.92445  1.0000
  O   O53       1.0  0.66512  0.75871  0.4118  1.0000
  O   O54       1.0  0.36458  0.8330099999999999  0.56872  1.0000
  O   O55       1.0  0.16512  0.25871  0.4118  1.0000
  O   O56       1.0  0.44346  0.25292  0.67603  1.0000
  O   O57       1.0  0.86458  0.333  0.56872  1.0000
  O   O58       1.0  0.55054  0.3970699999999999  0.86149  1.0000
  O   O59       1.0  0.44614  0.39089999999999997  0.13781  1.0000
  O   O60       1.0  0.05054  0.8970699999999999  0.86149  1.0000
  O   O61       1.0  0.9461399999999999  0.8909  0.13781  1.0000
  O   O62       1.0  0.05653999999999999  0.75292  0.32397  1.0000
  O   O63       1.0  0.9434599999999999  0.75292  0.67603  1.0000
  O   O64       1.0  0.54587  0.05109999999999999  0.33084  1.0000
