data_image0
_chemical_formula_structural       O8C4O8C4O8C4O8C4O8C4O8C4Cr12O4C16H16C16H8C12H4C16H8C8H4CO2HCO2HCO2HCO2HOHOHOHOHOHOHOHOHOHOHOHOH
_chemical_formula_sum              "O72 C96 Cr12 H56"
_cell_length_a       19.2282
_cell_length_b       10.85222
_cell_length_c       18.96697
_cell_angle_alpha    89.92434
_cell_angle_beta     89.25029
_cell_angle_gamma    89.90998

_space_group_name_H-M_alt    "P 1"
_space_group_IT_number       1

loop_
  _space_group_symop_operation_xyz
  'x, y, z'

loop_
  _atom_site_type_symbol
  _atom_site_label
  _atom_site_symmetry_multiplicity
  _atom_site_fract_x
  _atom_site_fract_y
  _atom_site_fract_z
  _atom_site_occupancy
  O   O1        1.0  0.04323  0.5493  0.66799  1.0000
  O   O2        1.0  0.95677  0.5493  0.33201  1.0000
  O   O3        1.0  0.54323  0.0493  0.66799  1.0000
  O   O4        1.0  0.45677  0.0493  0.33201  1.0000
  O   O5        1.0  0.17862  0.45760000000000006  0.6740999999999999  1.0000
  O   O6        1.0  0.82138  0.45760000000000006  0.3259  1.0000
  O   O7        1.0  0.67862  0.9576  0.6740999999999999  1.0000
  O   O8        1.0  0.32138  0.9576  0.3259  1.0000
  C   C1        1.0  0.24037999999999998  0.46751  0.64687  1.0000
  C   C2        1.0  0.75952  0.46662  0.35292999999999997  1.0000
  C   C3        1.0  0.74038  0.96751  0.64687  1.0000
  C   C4        1.0  0.25951  0.96662  0.35292999999999997  1.0000
  O   O9        1.0  0.28468  0.5421  0.66946  1.0000
  O   O10       1.0  0.71532  0.5421  0.33054  1.0000
  O   O11       1.0  0.78468  0.0421  0.66946  1.0000
  O   O12       1.0  0.21532000000000004  0.0421  0.33054  1.0000
  O   O13       1.0  0.26286  0.7903899999999999  0.67665  1.0000
  O   O14       1.0  0.73714  0.7903899999999999  0.32334999999999997  1.0000
  O   O15       1.0  0.76286  0.29039  0.67665  1.0000
  O   O16       1.0  0.23713999999999996  0.29039  0.32334999999999997  1.0000
  C   C5        1.0  0.22656  0.8726300000000001  0.6470399999999998  1.0000
  C   C6        1.0  0.77306  0.87332  0.35262  1.0000
  C   C7        1.0  0.72656  0.37263  0.64705  1.0000
  C   C8        1.0  0.27305  0.37332000000000004  0.35262  1.0000
  O   O17       1.0  0.16746  0.90703  0.67094  1.0000
  O   O18       1.0  0.83254  0.90703  0.32906  1.0000
  O   O19       1.0  0.66746  0.40703  0.67094  1.0000
  O   O20       1.0  0.33254  0.40703  0.32906  1.0000
  O   O21       1.0  0.05395  0.75022  0.6751  1.0000
  O   O22       1.0  0.94605  0.75022  0.3248999999999999  1.0000
  O   O23       1.0  0.55395  0.25022  0.6751  1.0000
  O   O24       1.0  0.44605000000000006  0.25022  0.3248999999999999  1.0000
  C   C9        1.0  0.06324  0.64826  0.63752  1.0000
  C   C10       1.0  0.9401700000000001  0.64845  0.36341  1.0000
  C   C11       1.0  0.56324  0.14826  0.63752  1.0000
  C   C12       1.0  0.44017000000000006  0.14845  0.36341  1.0000
  O   O25       1.0  0.0433  0.54737  0.82739  1.0000
  O   O26       1.0  0.9567  0.54737  0.17261  1.0000
  O   O27       1.0  0.5433  0.04737  0.82739  1.0000
  O   O28       1.0  0.45669999999999994  0.04737  0.17261  1.0000
  O   O29       1.0  0.17869  0.45582000000000006  0.82186  1.0000
  O   O30       1.0  0.82131  0.45582000000000006  0.17814  1.0000
  O   O31       1.0  0.67869  0.95582  0.82186  1.0000
  O   O32       1.0  0.32131  0.95582  0.17814  1.0000
  C   C13       1.0  0.23745000000000002  0.46996  0.85252  1.0000
  C   C14       1.0  0.76254  0.4699  0.14751  1.0000
  C   C15       1.0  0.73724  0.97064  0.8528999999999999  1.0000
  C   C16       1.0  0.26277  0.97061  0.14710999999999996  1.0000
  O   O33       1.0  0.28475  0.54017  0.82886  1.0000
  O   O34       1.0  0.71525  0.54017  0.17114  1.0000
  O   O35       1.0  0.78475  0.04017  0.82886  1.0000
  O   O36       1.0  0.21525  0.04017  0.17114  1.0000
  O   O37       1.0  0.26292  0.7886  0.82442  1.0000
  O   O38       1.0  0.73708  0.7886  0.17558  1.0000
  O   O39       1.0  0.76292  0.2886  0.82442  1.0000
  O   O40       1.0  0.23708  0.2886  0.17558  1.0000
  C   C17       1.0  0.22810000000000002  0.87687  0.85148  1.0000
  C   C18       1.0  0.77189  0.8769400000000002  0.14852999999999997  1.0000
  C   C19       1.0  0.72852  0.37746  0.85129  1.0000
  C   C20       1.0  0.27149  0.37755  0.14872  1.0000
  O   O41       1.0  0.16753  0.90511  0.8303399999999999  1.0000
  O   O42       1.0  0.83247  0.90511  0.16965999999999998  1.0000
  O   O43       1.0  0.66753  0.40511  0.8303399999999999  1.0000
  O   O44       1.0  0.33247  0.40511  0.16965999999999998  1.0000
  O   O45       1.0  0.05401000000000001  0.74844  0.8228599999999998  1.0000
  O   O46       1.0  0.94599  0.74844  0.17713999999999994  1.0000
  O   O47       1.0  0.55401  0.24844000000000002  0.8228599999999998  1.0000
  O   O48       1.0  0.44599  0.24844000000000002  0.17713999999999994  1.0000
  C   C21       1.0  0.02995  0.65192  0.8509799999999998  1.0000
  C   C22       1.0  0.97001  0.65192  0.14898999999999998  1.0000
  C   C23       1.0  0.53055  0.15157  0.8514899999999999  1.0000
  C   C24       1.0  0.46946  0.15158  0.1485  1.0000
  Cr  Cr1       1.0  0.11396999999999999  0.50863  0.74792  1.0000
  Cr  Cr2       1.0  0.88603  0.50863  0.25208  1.0000
  Cr  Cr3       1.0  0.61397  0.00863  0.74792  1.0000
  Cr  Cr4       1.0  0.38603  0.00863  0.25208  1.0000
  Cr  Cr5       1.0  0.2692  0.66674  0.74985  1.0000
  Cr  Cr6       1.0  0.7308  0.66674  0.25015  1.0000
  Cr  Cr7       1.0  0.7692  0.16674  0.74985  1.0000
  Cr  Cr8       1.0  0.23079999999999998  0.16674  0.25015  1.0000
  Cr  Cr9       1.0  0.1123  0.82007  0.7498  1.0000
  Cr  Cr10      1.0  0.8877  0.82007  0.2502  1.0000
  Cr  Cr11      1.0  0.6123  0.32007  0.7498  1.0000
  Cr  Cr12      1.0  0.3877  0.32007  0.2502  1.0000
  O   O49       1.0  0.16516000000000003  0.66515  0.7491899999999998  1.0000
  O   O50       1.0  0.83484  0.66515  0.25081  1.0000
  O   O51       1.0  0.66516  0.16515  0.7491899999999998  1.0000
  O   O52       1.0  0.33484  0.16515  0.25081  1.0000
  C   C25       1.0  0.24535000000000004  0.90275  0.57472  1.0000
  C   C26       1.0  0.7537  0.9040300000000001  0.42479  1.0000
  C   C27       1.0  0.74535  0.40275  0.57473  1.0000
  C   C28       1.0  0.25369  0.40403  0.42478  1.0000
  C   C29       1.0  0.24052000000000004  0.91569  0.42157999999999995  1.0000
  C   C30       1.0  0.75927  0.9181499999999999  0.5780599999999999  1.0000
  C   C31       1.0  0.74052  0.41569000000000006  0.42157999999999995  1.0000
  C   C32       1.0  0.25927  0.41816  0.57805  1.0000
  C   C33       1.0  0.27423  0.82625  0.45465  1.0000
  C   C34       1.0  0.72585  0.82867  0.54546  1.0000
  C   C35       1.0  0.77423  0.32625  0.45465  1.0000
  C   C36       1.0  0.22586  0.32868  0.54546  1.0000
  C   C37       1.0  0.26574  0.8104000000000001  0.53118  1.0000
  C   C38       1.0  0.73511  0.81147  0.46905  1.0000
  C   C39       1.0  0.76574  0.3104  0.53118  1.0000
  C   C40       1.0  0.23511  0.31148  0.46905  1.0000
  H   H1        1.0  0.30735  0.76281  0.42581  1.0000
  H   H2        1.0  0.69237  0.7667599999999999  0.5749  1.0000
  H   H3        1.0  0.80735  0.26281  0.42581  1.0000
  H   H4        1.0  0.19238  0.26676  0.5749  1.0000
  H   H5        1.0  0.27619  0.71898  0.55198  1.0000
  H   H6        1.0  0.72625  0.71922  0.44889999999999997  1.0000
  H   H7        1.0  0.77619  0.21898  0.55199  1.0000
  H   H8        1.0  0.22625  0.21922  0.44889999999999997  1.0000
  H   H9        1.0  0.19818  0.96303  0.44881999999999994  1.0000
  H   H10       1.0  0.80133  0.9658000000000001  0.55058  1.0000
  H   H11       1.0  0.69818  0.46303  0.44881999999999994  1.0000
  H   H12       1.0  0.30132  0.46581  0.55058  1.0000
  H   H13       1.0  0.23443000000000003  0.99506  0.5558  1.0000
  H   H14       1.0  0.76308  0.99708  0.44319  1.0000
  H   H15       1.0  0.73444  0.49506  0.5558  1.0000
  H   H16       1.0  0.26308  0.49707999999999997  0.44319  1.0000
  C   C41       1.0  0.9646099999999999  0.6432  0.43784  1.0000
  C   C42       1.0  0.04437000000000001  0.64515  0.56198  1.0000
  C   C43       1.0  0.46461  0.1432  0.43784  1.0000
  C   C44       1.0  0.54437  0.14514  0.56198  1.0000
  C   C45       1.0  0.93734  0.86099  0.45887  1.0000
  C   C46       1.0  0.04497  0.8739200000000001  0.5522299999999999  1.0000
  C   C47       1.0  0.43733999999999995  0.36099  0.45887  1.0000
  C   C48       1.0  0.54497  0.3739199999999999  0.5522299999999999  1.0000
  C   C49       1.0  0.95474  0.97443  0.48765  1.0000
  C   C50       1.0  0.010950000000000001  0.9815600000000001  0.5323299999999999  1.0000
  C   C51       1.0  0.45474  0.47442000000000006  0.48766  1.0000
  C   C52       1.0  0.51096  0.48155000000000003  0.5323299999999999  1.0000
  C   C53       1.0  0.02224  0.75676  0.52996  1.0000
  C   C54       1.0  0.97459  0.7531799999999998  0.47497  1.0000
  C   C55       1.0  0.52224  0.25676  0.52996  1.0000
  C   C56       1.0  0.4746  0.25317  0.47497  1.0000
  H   H17       1.0  0.9255500000000001  0.05641  0.47426  1.0000
  H   H18       1.0  0.02714  0.06946  0.55312  1.0000
  H   H19       1.0  0.42555  0.5564  0.47427  1.0000
  H   H20       1.0  0.52714  0.56945  0.55312  1.0000
  H   H21       1.0  0.89296  0.85573  0.42649  1.0000
  H   H22       1.0  0.08973  0.88311  0.58387  1.0000
  H   H23       1.0  0.39296  0.35573  0.42649  1.0000
  H   H24       1.0  0.58974  0.38311000000000006  0.58387  1.0000
  C   C57       1.0  0.03458  0.52868  0.52553  1.0000
  C   C58       1.0  0.9905  0.52876  0.46638999999999997  1.0000
  C   C59       1.0  0.53458  0.028670000000000005  0.52553  1.0000
  C   C60       1.0  0.4905  0.02875  0.46638999999999997  1.0000
  C   C61       1.0  0.06453  0.40927  0.54379  1.0000
  C   C62       1.0  0.97314  0.41126  0.43744999999999995  1.0000
  C   C63       1.0  0.56453  0.90926  0.5438  1.0000
  C   C64       1.0  0.47314000000000006  0.9112600000000001  0.43744999999999995  1.0000
  C   C65       1.0  0.06615  0.31379  0.49433  1.0000
  C   C66       1.0  0.01868  0.31269  0.44221  1.0000
  C   C67       1.0  0.56615  0.8137800000000001  0.49433  1.0000
  C   C68       1.0  0.51868  0.81268  0.44222  1.0000
  H   H25       1.0  0.0946  0.2295  0.50398  1.0000
  H   H26       1.0  0.010700000000000001  0.22815  0.41307999999999995  1.0000
  H   H27       1.0  0.5946  0.72949  0.50399  1.0000
  H   H28       1.0  0.5107  0.72815  0.41308999999999996  1.0000
  C   C69       1.0  0.25778  0.93702  0.91346  1.0000
  C   C70       1.0  0.74211  0.93735  0.08655  1.0000
  C   C71       1.0  0.75745  0.43563  0.9150699999999999  1.0000
  C   C72       1.0  0.24252  0.4363000000000001  0.085  1.0000
  C   C73       1.0  0.25679  0.94067  0.07245  1.0000
  C   C74       1.0  0.74318  0.94078  0.92761  1.0000
  C   C75       1.0  0.75608  0.43912  0.07326  1.0000
  C   C76       1.0  0.24382  0.43927000000000005  0.92682  1.0000
  C   C77       1.0  0.23533  0.03225  0.029359999999999997  1.0000
  C   C78       1.0  0.76446  0.032420000000000004  0.9705399999999998  1.0000
  C   C79       1.0  0.73542  0.53083  0.029889999999999996  1.0000
  C   C80       1.0  0.26462  0.53088  0.96996  1.0000
  C   C81       1.0  0.22059  0.01734  0.9538699999999999  1.0000
  C   C82       1.0  0.77922  0.01756  0.04603  1.0000
  C   C83       1.0  0.71945  0.5143  0.9549399999999999  1.0000
  C   C84       1.0  0.28069  0.51427  0.044789999999999996  1.0000
  H   H29       1.0  0.22294999999999998  0.12227  0.05149  1.0000
  H   H30       1.0  0.77668  0.12243  0.94826  1.0000
  H   H31       1.0  0.72449  0.62187  0.05143999999999999  1.0000
  H   H32       1.0  0.27575  0.62175  0.94824  1.0000
  H   H33       1.0  0.27059  0.84964  0.05322999999999999  1.0000
  H   H34       1.0  0.72954  0.84976  0.9469799999999999  1.0000
  H   H35       1.0  0.76772  0.34671  0.05481  1.0000
  H   H36       1.0  0.23196999999999998  0.34707  0.9455299999999999  1.0000
  C   C85       1.0  0.00023000000000000014  0.65612  0.92066  1.0000
  C   C86       1.0  0.9994800000000001  0.65612  0.07919  1.0000
  C   C87       1.0  0.50182  0.15431  0.9218099999999999  1.0000
  C   C88       1.0  0.49828  0.15431  0.07818999999999998  1.0000
  C   C89       1.0  0.9833  0.56565  0.03414  1.0000
  C   C90       1.0  0.016130000000000005  0.56539  0.9658099999999998  1.0000
  C   C91       1.0  0.48486999999999997  0.05924  0.03488  1.0000
  C   C92       1.0  0.51527  0.05914  0.9652  1.0000
  H   H37       1.0  0.03216  0.73332  0.06335  1.0000
  H   H38       1.0  0.9677100000000001  0.73372  0.93638  1.0000
  H   H39       1.0  0.52771  0.2343  0.06047  1.0000
  H   H40       1.0  0.47247  0.2345  0.9394999999999999  1.0000
  C   C93       1.0  0.16429  0.09691  0.9256499999999999  1.0000
  O   O53       1.0  0.16927  0.14047  0.86627  1.0000
  O   O54       1.0  0.10734  0.12751  0.9688  1.0000
  H   H41       1.0  0.073  0.18355  0.9443099999999999  1.0000
  C   C94       1.0  0.8354599999999999  0.09698  0.07412  1.0000
  O   O55       1.0  0.8305000000000001  0.14044  0.13346999999999998  1.0000
  O   O56       1.0  0.8923299999999998  0.12756  0.030869999999999998  1.0000
  H   H42       1.0  0.9266200000000001  0.18353  0.05527  1.0000
  C   C95       1.0  0.66367  0.59427  0.92604  1.0000
  O   O57       1.0  0.61288  0.6201  0.96264  1.0000
  O   O58       1.0  0.67103  0.64544  0.85861  1.0000
  H   H43       1.0  0.63028  0.69997  0.84563  1.0000
  C   C96       1.0  0.33777  0.5922  0.0724  1.0000
  O   O59       1.0  0.33265  0.63909  0.13087  1.0000
  O   O60       1.0  0.39575  0.61735  0.029519999999999998  1.0000
  H   H44       1.0  0.43082  0.67221  0.0536  1.0000
  O   O61       1.0  0.32301  0.8968000000000002  0.9331099999999999  1.0000
  H   H45       1.0  0.34567  0.9647599999999998  0.9589599999999999  1.0000
  O   O62       1.0  0.67689  0.89736  0.06696  1.0000
  H   H46       1.0  0.65418  0.96535  0.04098  1.0000
  O   O63       1.0  0.8218800000000002  0.39909  0.9397499999999999  1.0000
  H   H47       1.0  0.84668  0.34949  0.9036  1.0000
  O   O64       1.0  0.1778  0.40103  0.06069  1.0000
  H   H48       1.0  0.15294  0.35207  0.09709  1.0000
  O   O65       1.0  0.9377800000000001  0.47137  0.05212  1.0000
  H   H49       1.0  0.9352599999999999  0.41295999999999994  0.012089999999999998  1.0000
  O   O66       1.0  0.061419999999999995  0.47052  0.94801  1.0000
  H   H50       1.0  0.0639  0.41222  0.98819  1.0000
  O   O67       1.0  0.44431000000000004  0.95976  0.055999999999999994  1.0000
  H   H51       1.0  0.44242999999999993  0.8988  0.01721  1.0000
  O   O68       1.0  0.5556  0.9591999999999999  0.9440799999999999  1.0000
  H   H52       1.0  0.55731  0.8979099999999999  0.9828099999999999  1.0000
  O   O69       1.0  0.90938  0.3917  0.40915999999999997  1.0000
  H   H53       1.0  0.9104599999999999  0.31344  0.38202  1.0000
  O   O70       1.0  0.08293  0.37625  0.61055  1.0000
  H   H54       1.0  0.08083  0.28545  0.61711  1.0000
  O   O71       1.0  0.40939  0.8917  0.4091499999999999  1.0000
  H   H55       1.0  0.41046999999999995  0.8134399999999999  0.38202  1.0000
  O   O72       1.0  0.58293  0.8762399999999999  0.6105599999999999  1.0000
  H   H56       1.0  0.58083  0.78544  0.6171199999999999  1.0000
