data_image0
_chemical_formula_structural       C34Cu2H5N2O8H4NHCH3NHCH3NHCH6NHCH5NHCH3NHCH3NHCH3NHCH4NHCH3
_chemical_formula_sum              "C43 Cu2 H51 N11 O8"
_cell_length_a       15.88652
_cell_length_b       10.7927
_cell_length_c       9.642880000000002
_cell_angle_alpha    90.18798999999999
_cell_angle_beta     89.36788
_cell_angle_gamma    94.29474

_space_group_name_H-M_alt    "P 1"
_space_group_IT_number       1

loop_
  _space_group_symop_operation_xyz
  'x, y, z'

loop_
  _atom_site_type_symbol
  _atom_site_label
  _atom_site_symmetry_multiplicity
  _atom_site_fract_x
  _atom_site_fract_y
  _atom_site_fract_z
  _atom_site_occupancy
  C   C1        1.0  0.49435  0.26281999999999994  0.50003  1.0000
  C   C2        1.0  0.95011  0.51003  0.64994  1.0000
  C   C3        1.0  0.9168000000000002  0.4889299999999999  0.50031  1.0000
  C   C4        1.0  0.95998  0.596  0.40589  1.0000
  C   C5        1.0  0.05693  0.5776  0.39636  1.0000
  C   C6        1.0  0.82446  0.4938899999999999  0.50028  1.0000
  C   C7        1.0  0.17544  0.4822  0.50461  1.0000
  C   C8        1.0  0.25105  0.4896499999999999  0.50287  1.0000
  C   C9        1.0  0.36604  0.11389  0.66268  1.0000
  C   C10       1.0  0.30683  0.04174  0.74108  1.0000
  C   C11       1.0  0.30727  0.9129799999999999  0.73964  1.0000
  C   C12       1.0  0.34055  0.49749  0.5008  1.0000
  C   C13       1.0  0.36709  0.85554  0.6602  1.0000
  C   C14       1.0  0.42909  0.92671  0.58187  1.0000
  C   C15       1.0  0.42817  0.05785999999999999  0.58292  1.0000
  C   C16       1.0  0.4872100000000001  0.1287  0.49911  1.0000
  C   C17       1.0  0.54112  0.0715  0.40935  1.0000
  C   C18       1.0  0.54367  0.9439499999999998  0.40861  1.0000
  C   C19       1.0  0.48989  0.87078  0.49806000000000006  1.0000
  C   C20       1.0  0.6303  0.6324  0.14481  1.0000
  C   C21       1.0  0.7073200000000002  0.66129  0.07995  1.0000
  C   C22       1.0  0.71255  0.65427  0.9376800000000001  1.0000
  C   C23       1.0  0.49700000000000005  0.7370699999999999  0.4998000000000001  1.0000
  C   C24       1.0  0.63812  0.63267  0.86199  1.0000
  C   C25       1.0  0.56555  0.56656  0.92571  1.0000
  C   C26       1.0  0.56414  0.56606  0.07473  1.0000
  C   C27       1.0  0.43907000000000007  0.43417  0.07414  1.0000
  C   C28       1.0  0.43974  0.43436999999999987  0.92615  1.0000
  C   C29       1.0  0.6595400000000002  0.49983999999999995  0.49942999999999993  1.0000
  C   C30       1.0  0.04774  0.50738  0.65255  1.0000
  C   C31       1.0  0.0416  0.34937  0.45096  1.0000
  C   C32       1.0  0.94092  0.35479  0.44688  1.0000
  C   C33       1.0  0.7490100000000002  0.49724  0.49908  1.0000
  C   C34       1.0  0.08306000000000001  0.47799  0.50444  1.0000
  Cu  Cu1       1.0  0.49999  0.49998999999999993  0.64066  1.0000
  Cu  Cu2       1.0  0.50001  0.50001  0.35934  1.0000
  H   H1        1.0  0.93262  0.6014  0.69017  1.0000
  H   H2        1.0  0.93348  0.58467  0.29962  1.0000
  H   H3        1.0  0.25944  0.08586999999999999  0.8012  1.0000
  H   H4        1.0  0.26014  0.85715  0.79861  1.0000
  H   H5        1.0  0.36237  0.7552599999999998  0.65846  1.0000
  N   N1        1.0  0.5008  0.50121  0.14791  1.0000
  N   N2        1.0  0.50082  0.50129  0.85204  1.0000
  O   O1        1.0  0.49999  0.31964  0.61881  1.0000
  O   O2        1.0  0.5  0.31966  0.38124  1.0000
  O   O3        1.0  0.37943  0.49998999999999993  0.61884  1.0000
  O   O4        1.0  0.37944  0.50002  0.38126  1.0000
  O   O5        1.0  0.49999999999999994  0.6803399999999998  0.61876  1.0000
  O   O6        1.0  0.50001  0.68036  0.38119  1.0000
  O   O7        1.0  0.62056  0.49998  0.61874  1.0000
  O   O8        1.0  0.62057  0.50001  0.38116  1.0000
  H   H6        1.0  0.9189100000000002  0.4405999999999999  0.72223  1.0000
  H   H7        1.0  0.07377  0.60133  0.68247  1.0000
  H   H8        1.0  0.58451  0.12687  0.34256  1.0000
  H   H9        1.0  0.36094  0.21319  0.66262  1.0000
  N   N3        1.0  0.6026300000000002  0.8903699999999998  0.31924  1.0000
  H   H10       1.0  0.5991800000000003  0.9206299999999998  0.21817999999999999  1.0000
  C   C35       1.0  0.68815  0.90286  0.3695  1.0000
  H   H11       1.0  0.73064  0.86296  0.2924  1.0000
  H   H12       1.0  0.69214  0.8528199999999999  0.46937  1.0000
  H   H13       1.0  0.70976  0.00231  0.38354  1.0000
  N   N4        1.0  0.37589  0.35894999999999994  0.14613  1.0000
  H   H14       1.0  0.38144  0.26535  0.13039  1.0000
  C   C36       1.0  0.29031  0.3927399999999999  0.12616  1.0000
  H   H15       1.0  0.24724  0.33931  0.19939  1.0000
  H   H16       1.0  0.26934  0.37081  0.01875  1.0000
  H   H17       1.0  0.28577000000000014  0.49338999999999994  0.14698  1.0000
  N   N5        1.0  0.07397  0.42064999999999997  0.7567  1.0000
  H   H18       1.0  0.04249  0.33379999999999993  0.75479  1.0000
  C   C37       1.0  0.08332000000000003  0.46925  0.8962599999999998  1.0000
  H   H19       1.0  0.10557999999999998  0.39654  0.96522  1.0000
  H   H20       1.0  0.02182  0.4974799999999999  0.93662  1.0000
  H   H21       1.0  0.13085000000000005  0.55014  0.89782  1.0000
  H   H22       1.0  0.62448  0.66382  0.2489  1.0000
  H   H23       1.0  0.76082  0.70018  0.13824  1.0000
  H   H24       1.0  0.76956  0.69424  0.88738  1.0000
  N   N6        1.0  0.63155  0.7145  0.74889  1.0000
  H   H25       1.0  0.68377  0.71852  0.68396  1.0000
  C   C38       1.0  0.6113200000000002  0.8383099999999999  0.79077  1.0000
  H   H26       1.0  0.60965  0.8988899999999999  0.69842  1.0000
  H   H27       1.0  0.6601000000000002  0.8811  0.8615500000000001  1.0000
  H   H28       1.0  0.54861  0.8344299999999998  0.84347  1.0000
  H   H29       1.0  0.3913100000000001  0.3793999999999999  0.87055  1.0000
  H   H30       1.0  0.06547  0.33931  0.34283  1.0000
  N   N7        1.0  0.06642  0.23889  0.52509  1.0000
  H   H31       1.0  0.02977  0.15971  0.49816  1.0000
  C   C39       1.0  0.15424  0.21053  0.52338  1.0000
  H   H32       1.0  0.15891  0.11014999999999997  0.54495  1.0000
  H   H33       1.0  0.18889  0.26182  0.60745  1.0000
  H   H34       1.0  0.18414  0.23133  0.4205900000000001  1.0000
  N   N8        1.0  0.89986  0.25611  0.53596  1.0000
  H   H35       1.0  0.9235400000000002  0.24873999999999996  0.63434  1.0000
  C   C40       1.0  0.81023  0.21887  0.53049  1.0000
  H   H36       1.0  0.77621  0.26577  0.61443  1.0000
  H   H37       1.0  0.80089  0.11732  0.54868  1.0000
  H   H38       1.0  0.78217  0.23956  0.4293  1.0000
  N   N9        1.0  0.9139100000000002  0.33576  0.30232  1.0000
  H   H39       1.0  0.85879  0.37368999999999997  0.27515  1.0000
  C   C41       1.0  0.92258  0.21565999999999996  0.23705000000000004  1.0000
  H   H40       1.0  0.98525  0.18074  0.2558  1.0000
  H   H41       1.0  0.9153200000000002  0.22483  0.12324  1.0000
  H   H42       1.0  0.87306  0.14583  0.27534  1.0000
  N   N10       1.0  0.11217  0.69342  0.38942  1.0000
  H   H43       1.0  0.16242  0.6894  0.32115  1.0000
  C   C42       1.0  0.13396  0.7682  0.51111  1.0000
  H   H44       1.0  0.16179  0.86072  0.47718999999999995  1.0000
  H   H45       1.0  0.1821  0.72496  0.57341  1.0000
  H   H46       1.0  0.07804999999999998  0.7840699999999999  0.57634  1.0000
  H   H47       1.0  0.06475  0.53538  0.29165  1.0000
  N   N11       1.0  0.94617  0.72312  0.45142  1.0000
  H   H48       1.0  0.97864  0.78835  0.38913  1.0000
  C   C43       1.0  0.8612100000000003  0.75994  0.4711699999999999  1.0000
  H   H49       1.0  0.8618500000000002  0.86301  0.4732199999999999  1.0000
  H   H50       1.0  0.83538  0.7271199999999999  0.57291  1.0000
  H   H51       1.0  0.8205  0.7245999999999999  0.38483  1.0000
