data_image0
_chemical_formula_structural       C120Cr12H136O52CHOCHOCHOCHOCHOCHOCHOCHO
_chemical_formula_sum              "C128 Cr12 H144 O60"
_cell_length_a       19.73572
_cell_length_b       11.33766
_cell_length_c       18.68388
_cell_angle_alpha    89.99993000000002
_cell_angle_beta     91.55016000000002
_cell_angle_gamma    89.99971

_symmetry_space_group_name_H-M    'P 1'
_symmetry_Int_Tables_number       1

loop_
  _symmetry_equiv_pos_as_xyz
  'x,y,z'

loop_
  _atom_site_type_symbol
  _atom_site_label
  _atom_site_symmetry_multiplicity
  _atom_site_fract_x
  _atom_site_fract_y
  _atom_site_fract_z
  _atom_site_occupancy
  C   C1        1.0  0.76054  0.52543  0.6399  1.0000
  C   C2        1.0  0.23946  0.52543  0.3601  1.0000
  C   C3        1.0  0.26054  0.02543  0.6399  1.0000
  C   C4        1.0  0.73946  0.02543  0.3601  1.0000
  C   C5        1.0  0.81327  0.12453  0.45263  1.0000
  C   C6        1.0  0.18673  0.12453  0.54737  1.0000
  C   C7        1.0  0.31326999999999994  0.62453  0.45263  1.0000
  C   C8        1.0  0.68673  0.62452  0.54737  1.0000
  C   C9        1.0  0.74753  0.05794  0.43639999999999995  1.0000
  C   C10       1.0  0.25247  0.05794  0.5636  1.0000
  C   C11       1.0  0.24753000000000006  0.55794  0.43639999999999995  1.0000
  C   C12       1.0  0.75247  0.55794  0.5636  1.0000
  C   C13       1.0  0.75813  0.08744  0.57496  1.0000
  C   C14       1.0  0.24187000000000003  0.08744  0.4250399999999999  1.0000
  C   C15       1.0  0.25813  0.58744  0.57496  1.0000
  C   C16       1.0  0.74187  0.58744  0.4250399999999999  1.0000
  C   C17       1.0  0.7531  0.956  0.5611899999999999  1.0000
  C   C18       1.0  0.24690000000000004  0.956  0.43881  1.0000
  C   C19       1.0  0.2531  0.45600000000000007  0.5611899999999999  1.0000
  C   C20       1.0  0.7469  0.45600000000000007  0.43881  1.0000
  C   C21       1.0  0.82181  0.12917  0.53443  1.0000
  C   C22       1.0  0.17818  0.12916  0.46556999999999993  1.0000
  C   C23       1.0  0.32181  0.62917  0.53443  1.0000
  C   C24       1.0  0.67819  0.62916  0.46556999999999993  1.0000
  C   C25       1.0  0.005299999999999999  0.20923000000000003  0.45925  1.0000
  C   C26       1.0  0.9947000000000001  0.20923000000000003  0.54075  1.0000
  C   C27       1.0  0.5053  0.70923  0.45925  1.0000
  C   C28       1.0  0.49470000000000003  0.70923  0.54075  1.0000
  C   C29       1.0  0.07456  0.39072  0.49079  1.0000
  C   C30       1.0  0.92545  0.39071000000000006  0.50921  1.0000
  C   C31       1.0  0.57456  0.89072  0.49079  1.0000
  C   C32       1.0  0.42545  0.89072  0.50921  1.0000
  C   C33       1.0  0.9580000000000001  0.41345000000000004  0.43732  1.0000
  C   C34       1.0  0.04200000000000001  0.41345000000000004  0.56268  1.0000
  C   C35       1.0  0.4580000000000001  0.91345  0.43732  1.0000
  C   C36       1.0  0.542  0.91344  0.56268  1.0000
  C   C37       1.0  0.02308  0.33688  0.43498  1.0000
  C   C38       1.0  0.97692  0.33688  0.5650199999999999  1.0000
  C   C39       1.0  0.52308  0.83688  0.43498  1.0000
  C   C40       1.0  0.47692  0.83688  0.5650199999999999  1.0000
  C   C41       1.0  0.80785  0.98685  0.04006  1.0000
  C   C42       1.0  0.19216  0.98682  0.95995  1.0000
  C   C43       1.0  0.30784  0.48681  0.04005  1.0000
  C   C44       1.0  0.6921500000000002  0.48687  0.95994  1.0000
  C   C45       1.0  0.77261  0.11831  0.65071  1.0000
  C   C46       1.0  0.22739000000000004  0.11831  0.34929  1.0000
  C   C47       1.0  0.27261  0.61831  0.65071  1.0000
  C   C48       1.0  0.7273900000000001  0.61831  0.34929  1.0000
  C   C49       1.0  0.81118  0.99613  0.95909  1.0000
  C   C50       1.0  0.18884000000000004  0.9961  0.04091  1.0000
  C   C51       1.0  0.31116  0.49609  0.9590799999999999  1.0000
  C   C52       1.0  0.68882  0.49614  0.0409  1.0000
  C   C53       1.0  0.6819  0.99472  0.014669999999999999  1.0000
  C   C54       1.0  0.31811000000000006  0.99475  0.98532  1.0000
  C   C55       1.0  0.18189  0.49476000000000003  0.014679999999999999  1.0000
  C   C56       1.0  0.8181  0.49473  0.98532  1.0000
  C   C57       1.0  0.74042  0.1705  0.06006999999999999  1.0000
  C   C58       1.0  0.25954  0.17051  0.93993  1.0000
  C   C59       1.0  0.24046  0.67051  0.06006999999999999  1.0000
  C   C60       1.0  0.7595700000000001  0.67053  0.93994  1.0000
  C   C61       1.0  0.73884  0.0363  0.06715999999999998  1.0000
  C   C62       1.0  0.26115  0.03631  0.93284  1.0000
  C   C63       1.0  0.23885  0.53631  0.06715999999999998  1.0000
  C   C64       1.0  0.76115  0.53633  0.9328299999999999  1.0000
  C   C65       1.0  0.7598200000000002  0.09272  0.9324599999999998  1.0000
  C   C66       1.0  0.24018  0.09272  0.06753  1.0000
  C   C67       1.0  0.25982  0.59271  0.93247  1.0000
  C   C68       1.0  0.74018  0.59271  0.06753  1.0000
  C   C69       1.0  0.68806  0.04555000000000001  0.9384599999999998  1.0000
  C   C70       1.0  0.31195  0.04561  0.061520000000000005  1.0000
  C   C71       1.0  0.18804  0.5456  0.9384799999999999  1.0000
  C   C72       1.0  0.8119400000000001  0.54556  0.061529999999999994  1.0000
  C   C73       1.0  0.7659200000000002  0.19754999999999998  0.9847399999999998  1.0000
  C   C74       1.0  0.23405  0.19754  0.015249999999999998  1.0000
  C   C75       1.0  0.26595  0.69753  0.9847399999999998  1.0000
  C   C76       1.0  0.7340700000000001  0.69756  0.015269999999999999  1.0000
  C   C77       1.0  0.99902  0.47875  0.04041  1.0000
  C   C78       1.0  0.0009700000000000006  0.47875  0.9596  1.0000
  C   C79       1.0  0.49904  0.9787600000000001  0.0404  1.0000
  C   C80       1.0  0.50099  0.9787500000000001  0.95959  1.0000
  C   C81       1.0  0.06523  0.28183  0.03049  1.0000
  C   C82       1.0  0.93476  0.28182  0.96952  1.0000
  C   C83       1.0  0.56523  0.78182  0.03049  1.0000
  C   C84       1.0  0.43476  0.78184  0.96952  1.0000
  C   C85       1.0  0.9422100000000001  0.28639  0.052939999999999994  1.0000
  C   C86       1.0  0.05778  0.28638  0.94707  1.0000
  C   C87       1.0  0.44221  0.78642  0.052939999999999994  1.0000
  C   C88       1.0  0.55777  0.7863499999999999  0.94707  1.0000
  C   C89       1.0  0.94795  0.34457  0.63741  1.0000
  C   C90       1.0  0.052050000000000006  0.34457  0.36259  1.0000
  C   C91       1.0  0.44795  0.8445699999999999  0.63741  1.0000
  C   C92       1.0  0.55205  0.8445699999999999  0.36259  1.0000
  C   C93       1.0  0.0086  0.35035  0.07001  1.0000
  C   C94       1.0  0.9914000000000001  0.35035  0.9299999999999999  1.0000
  C   C95       1.0  0.5086  0.8503599999999999  0.07001  1.0000
  C   C96       1.0  0.4914  0.8503499999999999  0.9299999999999999  1.0000
  C   C97       1.0  0.77096  0.49795  0.8566399999999998  1.0000
  C   C98       1.0  0.22903  0.49793000000000004  0.14336  1.0000
  C   C99       1.0  0.27097  0.99792  0.8566399999999998  1.0000
  C   C100      1.0  0.7290200000000001  0.9979100000000001  0.14335  1.0000
  C   C101      1.0  0.77511  0.13222  0.8583599999999999  1.0000
  C   C102      1.0  0.22489  0.13223  0.14163999999999996  1.0000
  C   C103      1.0  0.27511  0.63222  0.8583599999999999  1.0000
  C   C104      1.0  0.72489  0.63222  0.14163999999999996  1.0000
  C   C105      1.0  0.97019  0.35320000000000007  0.85297  1.0000
  C   C106      1.0  0.029809999999999993  0.35320000000000007  0.14703  1.0000
  C   C107      1.0  0.47019  0.8532  0.85297  1.0000
  C   C108      1.0  0.52981  0.8532  0.14703  1.0000
  C   C109      1.0  0.6901  0.1402  0.46270999999999995  1.0000
  C   C110      1.0  0.30989  0.14021  0.53729  1.0000
  C   C111      1.0  0.19010000000000002  0.64021  0.46270999999999995  1.0000
  C   C112      1.0  0.8099  0.64021  0.53729  1.0000
  C   C113      1.0  0.69099  0.14249  0.54451  1.0000
  C   C114      1.0  0.30900000000000005  0.1425  0.45548999999999995  1.0000
  C   C115      1.0  0.19099  0.6425  0.54451  1.0000
  C   C116      1.0  0.809  0.6425  0.45548999999999995  1.0000
  C   C117      1.0  0.75182  0.9391900000000001  0.47933999999999993  1.0000
  C   C118      1.0  0.24818  0.9392  0.52067  1.0000
  C   C119      1.0  0.25182  0.4392  0.47933  1.0000
  C   C120      1.0  0.74819  0.43919  0.52067  1.0000
  Cr  Cr1       1.0  0.8856900000000001  0.49285999999999996  0.74531  1.0000
  Cr  Cr2       1.0  0.11431  0.49285999999999996  0.25469  1.0000
  Cr  Cr3       1.0  0.38569  0.99286  0.74531  1.0000
  Cr  Cr4       1.0  0.61431  0.99286  0.25469  1.0000
  Cr  Cr5       1.0  0.72988  0.33227  0.74819  1.0000
  Cr  Cr6       1.0  0.27012  0.33227  0.25181  1.0000
  Cr  Cr7       1.0  0.22988  0.83227  0.74819  1.0000
  Cr  Cr8       1.0  0.77012  0.83227  0.25181  1.0000
  Cr  Cr9       1.0  0.88812  0.17859000000000003  0.75301  1.0000
  Cr  Cr10      1.0  0.11188  0.17859000000000003  0.24699  1.0000
  Cr  Cr11      1.0  0.3881200000000001  0.67859  0.75301  1.0000
  Cr  Cr12      1.0  0.61188  0.67859  0.24699  1.0000
  H   H1        1.0  0.6391  0.12286  0.44011999999999996  1.0000
  H   H2        1.0  0.3609  0.12286  0.55988  1.0000
  H   H3        1.0  0.1391  0.62287  0.44011999999999996  1.0000
  H   H4        1.0  0.8609  0.62286  0.55988  1.0000
  H   H5        1.0  0.8630600000000002  0.06609  0.54806  1.0000
  H   H6        1.0  0.13694  0.06608  0.45195  1.0000
  H   H7        1.0  0.36306  0.56609  0.54805  1.0000
  H   H8        1.0  0.63694  0.56608  0.45193999999999995  1.0000
  H   H9        1.0  0.8012  0.89999  0.46722  1.0000
  H   H10       1.0  0.19881000000000001  0.89999  0.53278  1.0000
  H   H11       1.0  0.3012  0.4  0.46722  1.0000
  H   H12       1.0  0.69881  0.39998000000000006  0.53279  1.0000
  H   H13       1.0  0.7976  0.9113800000000001  0.5867299999999999  1.0000
  H   H14       1.0  0.2024  0.9113800000000001  0.41327  1.0000
  H   H15       1.0  0.2976  0.41138  0.5867299999999999  1.0000
  H   H16       1.0  0.7023999999999999  0.41138  0.41327  1.0000
  H   H17       1.0  0.04375  0.14494  0.44526  1.0000
  H   H18       1.0  0.95626  0.14494  0.55474  1.0000
  H   H19       1.0  0.54374  0.64494  0.44526  1.0000
  H   H20       1.0  0.45626  0.64494  0.55474  1.0000
  H   H21       1.0  0.95851  0.17838  0.43116999999999994  1.0000
  H   H22       1.0  0.04150000000000001  0.17838  0.56884  1.0000
  H   H23       1.0  0.45851000000000003  0.67838  0.43115999999999993  1.0000
  H   H24       1.0  0.54149  0.67838  0.56884  1.0000
  H   H25       1.0  0.61616  0.8318700000000001  0.50245  1.0000
  H   H26       1.0  0.38384  0.8318800000000001  0.49755999999999995  1.0000
  H   H27       1.0  0.11617  0.33188  0.50244  1.0000
  H   H28       1.0  0.8838500000000001  0.33186  0.49755999999999995  1.0000
  H   H29       1.0  0.97228  0.50872  0.43599000000000004  1.0000
  H   H30       1.0  0.027720000000000005  0.50872  0.56402  1.0000
  H   H31       1.0  0.47228  0.00872  0.4359799999999999  1.0000
  H   H32       1.0  0.52773  0.00871  0.56402  1.0000
  H   H33       1.0  0.9053300000000001  0.47243  0.52962  1.0000
  H   H34       1.0  0.09467  0.47245  0.47038  1.0000
  H   H35       1.0  0.40534  0.97245  0.52962  1.0000
  H   H36       1.0  0.59467  0.97244  0.47038  1.0000
  H   H37       1.0  0.8252300000000001  0.90015  0.05934999999999999  1.0000
  H   H38       1.0  0.17479  0.90011  0.94066  1.0000
  H   H39       1.0  0.32521000000000005  0.4001  0.059340000000000004  1.0000
  H   H40       1.0  0.67477  0.40017  0.9406399999999999  1.0000
  H   H41       1.0  0.69905  0.23000999999999996  0.44312999999999997  1.0000
  H   H42       1.0  0.30095  0.23000999999999996  0.55687  1.0000
  H   H43       1.0  0.19905  0.73001  0.44312999999999997  1.0000
  H   H44       1.0  0.8009500000000002  0.73001  0.55687  1.0000
  H   H45       1.0  0.84687  0.04233  0.06388  1.0000
  H   H46       1.0  0.15312  0.04228  0.9361299999999999  1.0000
  H   H47       1.0  0.34688  0.54226  0.06385  1.0000
  H   H48       1.0  0.65313  0.54236  0.93612  1.0000
  H   H49       1.0  0.8646400000000001  0.01664  0.9466700000000001  1.0000
  H   H50       1.0  0.13537  0.01658  0.05334  1.0000
  H   H51       1.0  0.36462  0.51656  0.9466499999999999  1.0000
  H   H52       1.0  0.63536  0.51665  0.05331999999999999  1.0000
  H   H53       1.0  0.79844  0.91046  0.9335599999999998  1.0000
  H   H54       1.0  0.20160000000000003  0.9104500000000001  0.06644  1.0000
  H   H55       1.0  0.29839  0.4104300000000001  0.9335599999999998  1.0000
  H   H56       1.0  0.70156  0.41046  0.06642  1.0000
  H   H57       1.0  0.6883000000000001  0.90201  0.0067800000000000004  1.0000
  H   H58       1.0  0.31171  0.9020499999999999  0.99322  1.0000
  H   H59       1.0  0.18828000000000003  0.40205  0.006790000000000001  1.0000
  H   H60       1.0  0.8116800000000001  0.40203  0.9932  1.0000
  H   H61       1.0  0.67809  0.9768300000000001  0.89702  1.0000
  H   H62       1.0  0.32194  0.97692  0.10297  1.0000
  H   H63       1.0  0.17805  0.4769  0.8970399999999998  1.0000
  H   H64       1.0  0.82191  0.47684000000000004  0.10297  1.0000
  H   H65       1.0  0.68878  0.20769  0.06663  1.0000
  H   H66       1.0  0.31118  0.20771  0.93336  1.0000
  H   H67       1.0  0.18883  0.70772  0.06664  1.0000
  H   H68       1.0  0.81121  0.70771  0.93338  1.0000
  H   H69       1.0  0.77466  0.21094000000000002  0.10161999999999999  1.0000
  H   H70       1.0  0.22530000000000003  0.21093  0.89837  1.0000
  H   H71       1.0  0.27471  0.71093  0.10161999999999999  1.0000
  H   H72       1.0  0.72533  0.71097  0.89838  1.0000
  H   H73       1.0  0.81912  0.21468  0.99316  1.0000
  H   H74       1.0  0.18084000000000003  0.21462999999999996  0.006829999999999999  1.0000
  H   H75       1.0  0.31916  0.71462  0.99316  1.0000
  H   H76       1.0  0.68087  0.7146800000000001  0.00684  1.0000
  H   H77       1.0  0.7401400000000001  0.27207  0.96157  1.0000
  H   H78       1.0  0.25979  0.27208  0.03842  1.0000
  H   H79       1.0  0.2402  0.77207  0.96158  1.0000
  H   H80       1.0  0.75985  0.77208  0.03844  1.0000
  H   H81       1.0  0.63299  0.01603  0.03645  1.0000
  H   H82       1.0  0.36702  0.01606  0.96352  1.0000
  H   H83       1.0  0.13298  0.51609  0.03648  1.0000
  H   H84       1.0  0.8670100000000001  0.51603  0.96353  1.0000
  H   H85       1.0  0.6820300000000001  0.23169  0.5641399999999999  1.0000
  H   H86       1.0  0.31795  0.2317  0.4358600000000001  1.0000
  H   H87       1.0  0.18204  0.73169  0.5641399999999999  1.0000
  H   H88       1.0  0.81796  0.7317  0.4358600000000001  1.0000
  H   H89       1.0  0.65071  0.118  0.92949  1.0000
  H   H90       1.0  0.34928  0.11808  0.07046  1.0000
  H   H91       1.0  0.15071  0.61806  0.92953  1.0000
  H   H92       1.0  0.84929  0.618  0.07048999999999998  1.0000
  H   H93       1.0  0.03470000000000001  0.54587  0.061520000000000005  1.0000
  H   H94       1.0  0.9652900000000001  0.54587  0.9384799999999999  1.0000
  H   H95       1.0  0.5347200000000001  0.04587  0.061520000000000005  1.0000
  H   H96       1.0  0.46531  0.04587  0.9384799999999999  1.0000
  H   H97       1.0  0.94978  0.51393  0.05755  1.0000
  H   H98       1.0  0.050210000000000005  0.51393  0.94245  1.0000
  H   H99       1.0  0.44980000000000003  0.01396  0.05755  1.0000
  H   H100      1.0  0.55023  0.01391  0.94244  1.0000
  H   H101      1.0  0.61146  0.82027  0.05195  1.0000
  H   H102      1.0  0.38853  0.82029  0.94804  1.0000
  H   H103      1.0  0.11146  0.32028  0.05195  1.0000
  H   H104      1.0  0.88853  0.32027  0.94805  1.0000
  H   H105      1.0  0.60066  0.8369800000000001  0.9256499999999999  1.0000
  H   H106      1.0  0.39934000000000003  0.83712  0.07434  1.0000
  H   H107      1.0  0.10065000000000002  0.33704  0.9256499999999999  1.0000
  H   H108      1.0  0.89934  0.33705  0.07434  1.0000
  H   H109      1.0  0.93102  0.18904000000000004  0.95162  1.0000
  H   H110      1.0  0.06897000000000002  0.18905  0.04838  1.0000
  H   H111      1.0  0.43103  0.68905  0.95164  1.0000
  H   H112      1.0  0.5689700000000001  0.68904  0.0484  1.0000
  H   H113      1.0  0.6469600000000001  0.09221  0.56347  1.0000
  H   H114      1.0  0.35304  0.09222000000000001  0.4365299999999999  1.0000
  H   H115      1.0  0.14696  0.59222  0.56347  1.0000
  H   H116      1.0  0.8530400000000001  0.59222  0.4365299999999999  1.0000
  H   H117      1.0  0.71207  0.87827  0.4614  1.0000
  H   H118      1.0  0.28794  0.87828  0.5385999999999999  1.0000
  H   H119      1.0  0.21207  0.37827000000000005  0.4614  1.0000
  H   H120      1.0  0.78795  0.37829  0.5385999999999999  1.0000
  H   H121      1.0  0.7079  0.91757  0.58483  1.0000
  H   H122      1.0  0.29211  0.91758  0.41517  1.0000
  H   H123      1.0  0.20789  0.41757  0.58483  1.0000
  H   H124      1.0  0.79211  0.41757  0.41517  1.0000
  H   H125      1.0  0.8571400000000001  0.0784  0.42912  1.0000
  H   H126      1.0  0.14286  0.07839  0.57088  1.0000
  H   H127      1.0  0.35714  0.5784  0.42912  1.0000
  H   H128      1.0  0.64286  0.57839  0.57088  1.0000
  H   H129      1.0  0.81114  0.21436  0.4297  1.0000
  H   H130      1.0  0.18885  0.21436  0.57029  1.0000
  H   H131      1.0  0.3111400000000001  0.7143600000000001  0.4297  1.0000
  H   H132      1.0  0.68885  0.71435  0.57029  1.0000
  H   H133      1.0  0.8374700000000002  0.21412  0.5561299999999999  1.0000
  H   H134      1.0  0.16252  0.2141  0.44387  1.0000
  H   H135      1.0  0.33748  0.7141200000000001  0.5561299999999999  1.0000
  H   H136      1.0  0.66252  0.7141  0.44387  1.0000
  O   O1        1.0  0.95721  0.44941000000000003  0.66548  1.0000
  O   O2        1.0  0.04279  0.44941000000000003  0.33451999999999993  1.0000
  O   O3        1.0  0.45721  0.94941  0.66548  1.0000
  O   O4        1.0  0.54279  0.94941  0.33451999999999993  1.0000
  O   O5        1.0  0.73626  0.21201  0.8265599999999999  1.0000
  O   O6        1.0  0.26374  0.21201  0.17344  1.0000
  O   O7        1.0  0.23626  0.71201  0.8265599999999999  1.0000
  O   O8        1.0  0.76374  0.71201  0.17344  1.0000
  O   O9        1.0  0.83252  0.09530000000000001  0.836  1.0000
  O   O10       1.0  0.16748  0.09530000000000001  0.164  1.0000
  O   O11       1.0  0.33252  0.5953  0.836  1.0000
  O   O12       1.0  0.66748  0.5953  0.164  1.0000
  O   O13       1.0  0.94638  0.25394  0.82694  1.0000
  O   O14       1.0  0.05362000000000001  0.25394  0.17306  1.0000
  O   O15       1.0  0.44638000000000005  0.75394  0.82694  1.0000
  O   O16       1.0  0.55362  0.75394  0.17306  1.0000
  O   O17       1.0  0.83456  0.33457  0.74884  1.0000
  O   O18       1.0  0.16544000000000003  0.33457  0.25116  1.0000
  O   O19       1.0  0.33456  0.83457  0.74884  1.0000
  O   O20       1.0  0.66544  0.83457  0.25116  1.0000
  O   O21       1.0  0.82073  0.54124  0.6682499999999999  1.0000
  O   O22       1.0  0.17927000000000004  0.54124  0.33175  1.0000
  O   O23       1.0  0.32073  0.04124  0.6682499999999999  1.0000
  O   O24       1.0  0.67927  0.04124  0.33175  1.0000
  O   O25       1.0  0.71424  0.45506  0.66371  1.0000
  O   O26       1.0  0.28576  0.45506  0.33629  1.0000
  O   O27       1.0  0.21424000000000004  0.95506  0.66371  1.0000
  O   O28       1.0  0.7857600000000001  0.95506  0.33629  1.0000
  O   O29       1.0  0.73678  0.20487  0.6759099999999999  1.0000
  O   O30       1.0  0.26322000000000007  0.20487  0.32409  1.0000
  O   O31       1.0  0.23678  0.70487  0.6759099999999999  1.0000
  O   O32       1.0  0.76322  0.70487  0.32409  1.0000
  O   O33       1.0  0.83307  0.08759  0.6734899999999999  1.0000
  O   O34       1.0  0.16693  0.08759  0.32651  1.0000
  O   O35       1.0  0.33307  0.58759  0.6734899999999999  1.0000
  O   O36       1.0  0.66693  0.58759  0.32651  1.0000
  O   O37       1.0  0.94689  0.2468  0.6763  1.0000
  O   O38       1.0  0.05311  0.2468  0.3237  1.0000
  O   O39       1.0  0.44689  0.7468  0.6763  1.0000
  O   O40       1.0  0.55311  0.7468  0.3237  1.0000
  O   O41       1.0  0.95665  0.45711999999999997  0.8279799999999999  1.0000
  O   O42       1.0  0.04335  0.45711999999999997  0.17202  1.0000
  O   O43       1.0  0.45665  0.95712  0.8279799999999999  1.0000
  O   O44       1.0  0.54335  0.95712  0.17202  1.0000
  O   O45       1.0  0.8202200000000001  0.54839  0.81889  1.0000
  O   O46       1.0  0.17978  0.54839  0.18110999999999997  1.0000
  O   O47       1.0  0.32022  0.04839  0.81889  1.0000
  O   O48       1.0  0.67978  0.04839  0.18110999999999997  1.0000
  O   O49       1.0  0.71368  0.46277  0.8262099999999999  1.0000
  O   O50       1.0  0.2863200000000001  0.46277  0.17379  1.0000
  O   O51       1.0  0.21368  0.9627699999999999  0.8262099999999999  1.0000
  O   O52       1.0  0.78632  0.9627699999999999  0.17379  1.0000
  C   C121      1.0  0.58968  0.89002  0.62641  1.0000
  H   H137      1.0  0.6088900000000002  0.8022000000000001  0.63706  1.0000
  O   O53       1.0  0.60495  0.96921  0.6681199999999999  1.0000
  C   C122      1.0  0.4103200000000001  0.89002  0.37359  1.0000
  H   H138      1.0  0.39111  0.8022100000000001  0.36294  1.0000
  O   O54       1.0  0.39505  0.96922  0.33189  1.0000
  C   C123      1.0  0.08968000000000001  0.39002  0.62641  1.0000
  H   H139      1.0  0.10889000000000001  0.30221  0.63706  1.0000
  O   O55       1.0  0.10495  0.46921999999999997  0.66811  1.0000
  C   C124      1.0  0.91032  0.39003000000000004  0.37359  1.0000
  H   H140      1.0  0.89111  0.30222  0.36294  1.0000
  O   O56       1.0  0.8950500000000001  0.46923  0.33189  1.0000
  C   C125      1.0  0.9403600000000001  0.16814  0.09001  1.0000
  H   H141      1.0  0.9168500000000002  0.16189  0.14177  1.0000
  O   O57       1.0  0.96698  0.08055  0.06512  1.0000
  C   C126      1.0  0.05964  0.16813  0.9099999999999999  1.0000
  H   H142      1.0  0.08314  0.16186  0.85825  1.0000
  O   O58       1.0  0.03301  0.08054  0.9349  1.0000
  C   C127      1.0  0.44031000000000003  0.6682  0.09003  1.0000
  H   H143      1.0  0.41672  0.66195  0.14173  1.0000
  O   O59       1.0  0.46699  0.58061  0.06521  1.0000
  C   C128      1.0  0.55959  0.66809  0.91002  1.0000
  H   H144      1.0  0.58301  0.66181  0.85821  1.0000
  O   O60       1.0  0.53302  0.58049  0.93498  1.0000
