data_image0
_chemical_formula_structural       O2CO2CO2CO2CO2CO2CCr3OC4H2C6H3C2H2C6H4C8H4C4O2CO2CO2CO2CO2CO2CCr3OC3H7NO2C3H7
_chemical_formula_sum              "O28 C48 Cr6 H29 N1"
_cell_length_a       10.70393
_cell_length_b       10.65259
_cell_length_c       16.84549
_cell_angle_alpha    99.21302
_cell_angle_beta     98.87513
_cell_angle_gamma    61.652249999999995

_space_group_name_H-M_alt    "P 1"
_space_group_IT_number       1

loop_
  _space_group_symop_operation_xyz
  'x, y, z'

loop_
  _atom_site_type_symbol
  _atom_site_label
  _atom_site_symmetry_multiplicity
  _atom_site_fract_x
  _atom_site_fract_y
  _atom_site_fract_z
  _atom_site_occupancy
  O   O1        1.0  0.7512199999999999  0.49923  0.43517  1.0000
  O   O2        1.0  0.47722000000000003  0.7275999999999998  0.43687  1.0000
  C   C1        1.0  0.35609000000000013  0.7717199999999997  0.3978899999999999  1.0000
  O   O3        1.0  0.25865000000000005  0.7451199999999999  0.41147  1.0000
  O   O4        1.0  0.29707000000000006  0.46723999999999993  0.39596  1.0000
  C   C2        1.0  0.40648000000000006  0.3740499999999999  0.35755  1.0000
  O   O5        1.0  0.48882999999999965  0.25261  0.38779  1.0000
  O   O6        1.0  0.7243999999999999  0.3023899999999999  0.4209799999999999  1.0000
  C   C3        1.0  0.7731599999999998  0.37763  0.40047  1.0000
  O   O7        1.0  0.7520999999999999  0.5012099999999999  0.61219  1.0000
  O   O8        1.0  0.47804  0.72944  0.60097  1.0000
  C   C4        1.0  0.3511000000000001  0.7836799999999999  0.62415  1.0000
  O   O9        1.0  0.2595299999999999  0.74711  0.58849  1.0000
  O   O10       1.0  0.29788000000000003  0.46907999999999994  0.56005  1.0000
  C   C5        1.0  0.37045  0.34843  0.58743  1.0000
  O   O11       1.0  0.48972  0.25459  0.5648099999999999  1.0000
  O   O12       1.0  0.7252200000000001  0.30423  0.58508  1.0000
  C   C6        1.0  0.7832799999999999  0.37518999999999986  0.6273  1.0000
  Cr  Cr1       1.0  0.6083399999999999  0.6110399999999999  0.52043  1.0000
  Cr  Cr2       1.0  0.2876500000000001  0.6011199999999998  0.48935  1.0000
  Cr  Cr3       1.0  0.60404  0.28787  0.49027999999999994  1.0000
  O   O13       1.0  0.50001  0.50001  0.50002  1.0000
  C   C7        1.0  0.37564999999999993  0.3613999999999999  0.27269  1.0000
  C   C8        1.0  0.3495799999999999  0.34373  0.20146  1.0000
  C   C9        1.0  0.7359700000000001  0.29443  0.19637  1.0000
  C   C10       1.0  0.68686  0.4337699999999999  0.25485  1.0000
  H   H1        1.0  0.57588  0.50575  0.26924999999999993  1.0000
  H   H2        1.0  0.6644999999999998  0.25744  0.15668  1.0000
  C   C11       1.0  0.80627  0.35031  0.31821  1.0000
  C   C12       1.0  0.8539899999999999  0.21168  0.26132999999999995  1.0000
  C   C13       1.0  0.95724  0.2525099999999999  0.2305  1.0000
  C   C14       1.0  0.9075  0.39042  0.28802  1.0000
  C   C15       1.0  0.7905099999999999  0.47461  0.22417999999999993  1.0000
  C   C16       1.0  0.83852  0.33552  0.167  1.0000
  H   H3        1.0  0.8804  0.10516999999999996  0.27885  1.0000
  H   H4        1.0  0.06703  0.18632  0.21409  1.0000
  H   H5        1.0  0.7642000000000002  0.5816899999999998  0.20756  1.0000
  C   C17       1.0  0.4208400000000001  0.7729199999999999  0.2053  1.0000
  C   C18       1.0  0.3179999999999999  0.74131  0.24351  1.0000
  H   H6        1.0  0.31698  0.63684  0.23858  1.0000
  H   H7        1.0  0.50308  0.69661  0.16474  1.0000
  C   C19       1.0  0.34034999999999993  0.82554  0.32222  1.0000
  C   C20       1.0  0.44490999999999997  0.85564  0.28567  1.0000
  C   C21       1.0  0.31722  0.99651  0.25938  1.0000
  C   C22       1.0  0.21438  0.96333  0.29752  1.0000
  C   C23       1.0  0.19110999999999997  0.88066  0.21804  1.0000
  C   C24       1.0  0.29382000000000014  0.9125299999999998  0.18058  1.0000
  H   H8        1.0  0.5493899999999999  0.84349  0.3157199999999999  1.0000
  H   H9        1.0  0.31692  0.10177999999999998  0.26414999999999994  1.0000
  H   H10       1.0  0.12898999999999997  0.02734999999999997  0.33772999999999986  1.0000
  H   H11       1.0  0.08581000000000011  0.8920099999999999  0.18991  1.0000
  C   C25       1.0  0.45931999999999995  0.26073  0.77678  1.0000
  C   C26       1.0  0.40376  0.40197999999999995  0.74112  1.0000
  C   C27       1.0  0.34157000000000004  0.33921  0.66617  1.0000
  C   C28       1.0  0.39881999999999995  0.19691999999999998  0.70253  1.0000
  C   C29       1.0  0.25639000000000006  0.2590299999999999  0.74106  1.0000
  C   C30       1.0  0.19883999999999993  0.40170999999999996  0.7031199999999997  1.0000
  C   C31       1.0  0.2614000000000001  0.46403999999999995  0.77924  1.0000
  C   C32       1.0  0.32055000000000006  0.32159999999999994  0.81547  1.0000
  H   H12       1.0  0.454  0.08811  0.67039  1.0000
  H   H13       1.0  0.19503000000000006  0.20024999999999998  0.74329  1.0000
  H   H14       1.0  0.09145000000000003  0.45838  0.67105  1.0000
  H   H15       1.0  0.20572000000000004  0.5719899999999999  0.81217  1.0000
  C   C33       1.0  0.8555500000000001  0.32431  0.70379  1.0000
  C   C34       1.0  0.9004400000000002  0.2904999999999999  0.7715  1.0000
  C   C35       1.0  0.3165199999999999  0.85395  0.7034099999999998  1.0000
  C   C36       1.0  0.27955000000000013  0.8987699999999997  0.77069  1.0000
  O   O14       1.0  0.17183000000000015  0.9138799999999999  0.05751  1.0000
  O   O15       1.0  0.9406899999999999  0.18605  0.05473  1.0000
  C   C37       1.0  0.8862700000000002  0.31381  0.08823  1.0000
  O   O16       1.0  0.92047  0.4057199999999999  0.07501  1.0000
  O   O17       1.0  0.19669000000000006  0.3704599999999999  0.08412  1.0000
  C   C38       1.0  0.32189  0.30286  0.11919  1.0000
  O   O18       1.0  0.41299  0.18075  0.09161  1.0000
  O   O19       1.0  0.36662000000000006  0.9431299999999999  0.06576  1.0000
  C   C39       1.0  0.25909  0.9561999999999999  0.09953  1.0000
  O   O20       1.0  0.16050999999999996  0.90633  0.87921  1.0000
  O   O21       1.0  0.9301899999999999  0.17904999999999993  0.8894499999999997  1.0000
  C   C40       1.0  0.9442499999999999  0.27471999999999996  0.85584  1.0000
  O   O22       1.0  0.90914  0.39816999999999997  0.8967099999999998  1.0000
  O   O23       1.0  0.18618999999999994  0.36346  0.91883  1.0000
  C   C41       1.0  0.30877000000000004  0.2942899999999999  0.89317  1.0000
  O   O24       1.0  0.40167  0.1732  0.91331  1.0000
  O   O25       1.0  0.35612000000000005  0.93613  0.9004699999999998  1.0000
  C   C42       1.0  0.24555000000000002  0.9444099999999999  0.85285  1.0000
  Cr  Cr4       1.0  0.054019999999999964  0.052699999999999976  0.9708499999999999  1.0000
  Cr  Cr5       1.0  0.05923000000000001  0.3751199999999999  0.9933899999999999  1.0000
  Cr  Cr6       1.0  0.3749500000000001  0.061199999999999984  0.99234  1.0000
  O   O26       1.0  0.16274000000000002  0.16300999999999996  0.9855300000000001  1.0000
  C   C43       1.0  0.49091  0.48181  0.74462  1.0000
  C   C44       1.0  0.5148100000000001  0.5452899999999999  0.83075  1.0000
  C   C45       1.0  0.6035600000000001  0.62416  0.83427  1.0000
  H   H16       1.0  0.7039099999999999  0.5558299999999999  0.8061999999999999  1.0000
  H   H17       1.0  0.5470199999999998  0.72033  0.8013899999999998  1.0000
  H   H18       1.0  0.62839  0.6573799999999997  0.89816  1.0000
  H   H19       1.0  0.41071999999999975  0.62138  0.8544  1.0000
  H   H20       1.0  0.5713700000000002  0.4583  0.87111  1.0000
  H   H21       1.0  0.59376  0.40452999999999995  0.72194  1.0000
  H   H22       1.0  0.43512000000000006  0.5670999999999998  0.70409  1.0000
  N   N1        1.0  0.6041  0.18397999999999998  0.81447  1.0000
  O   O27       1.0  0.7089599999999998  0.11216999999999999  0.76911  1.0000
  O   O28       1.0  0.6318000000000001  0.20155  0.8922  1.0000
  C   C46       1.0  0.008070000000000022  0.43678999999999996  0.34437  1.0000
  C   C47       1.0  0.09982999999999999  0.32639  0.40577  1.0000
  C   C48       1.0  0.07093000000000005  0.38328999999999996  0.49354  1.0000
  H   H23       1.0  0.06338  0.49178  0.5077  1.0000
  H   H24       1.0  0.9732499999999998  0.3865899999999999  0.5089899999999998  1.0000
  H   H25       1.0  0.15644  0.3061  0.53263  1.0000
  H   H26       1.0  0.08086  0.2323  0.39403  1.0000
  H   H27       1.0  0.21443000000000004  0.28589999999999993  0.39937  1.0000
  H   H28       1.0  0.07835  0.44669  0.30641  1.0000
  H   H29       1.0  0.94432  0.54483  0.3753199999999999  1.0000
