data_image0
_chemical_formula_structural       C56Cr6H24O26CNCNCNCNCNCNCNCN
_chemical_formula_sum              "C64 Cr6 H24 O26 N8"
_cell_length_a       11.42065
_cell_length_b       18.86808
_cell_length_c       10.03074
_cell_angle_alpha    90.00011
_cell_angle_beta     109.12148
_cell_angle_gamma    90.00005

_symmetry_space_group_name_H-M    'P 1'
_symmetry_Int_Tables_number       1

loop_
  _symmetry_equiv_pos_as_xyz
  'x,y,z'

loop_
  _atom_site_type_symbol
  _atom_site_label
  _atom_site_symmetry_multiplicity
  _atom_site_fract_x
  _atom_site_fract_y
  _atom_site_fract_z
  _atom_site_occupancy
  C   C1        1.0  0.07674  0.64502  0.14218  1.0000
  C   C2        1.0  0.9232599999999999  0.35498  0.8578199999999999  1.0000
  C   C3        1.0  0.9232599999999997  0.14502  0.8578199999999999  1.0000
  C   C4        1.0  0.07674  0.8549799999999999  0.14219  1.0000
  C   C5        1.0  0.43643999999999994  0.47278  0.58889  1.0000
  C   C6        1.0  0.56356  0.52722  0.41112  1.0000
  C   C7        1.0  0.56356  0.97278  0.41113  1.0000
  C   C8        1.0  0.43642999999999993  0.027220000000000005  0.58889  1.0000
  C   C9        1.0  0.38767999999999986  0.9297  0.9457299999999997  1.0000
  C   C10       1.0  0.6123  0.07031  0.05430999999999998  1.0000
  C   C11       1.0  0.61231  0.42969  0.05429  1.0000
  C   C12       1.0  0.38767999999999986  0.5703  0.9457299999999997  1.0000
  C   C13       1.0  0.4963399999999999  0.96205  0.97973  1.0000
  C   C14       1.0  0.50364  0.03796  0.020279999999999996  1.0000
  C   C15       1.0  0.50365  0.46204  0.02027  1.0000
  C   C16       1.0  0.4963399999999999  0.53795  0.97973  1.0000
  C   C17       1.0  0.017109999999999997  0.92437  0.11801999999999999  1.0000
  C   C18       1.0  0.98289  0.07563  0.88198  1.0000
  C   C19       1.0  0.98289  0.4243700000000001  0.88198  1.0000
  C   C20       1.0  0.017109999999999997  0.57563  0.11801999999999999  1.0000
  C   C21       1.0  0.021879999999999997  0.9635099999999999  0.008459999999999999  1.0000
  C   C22       1.0  0.97812  0.03649  0.99154  1.0000
  C   C23       1.0  0.97812  0.46351  0.99154  1.0000
  C   C24       1.0  0.021879999999999997  0.53649  0.008459999999999999  1.0000
  C   C25       1.0  0.43660999999999994  0.63752  0.37631  1.0000
  C   C26       1.0  0.56339  0.36249  0.6237  1.0000
  C   C27       1.0  0.56339  0.13752  0.6237  1.0000
  C   C28       1.0  0.43660999999999994  0.8624800000000001  0.3763  1.0000
  C   C29       1.0  0.37539999999999996  0.64501  0.96535  1.0000
  C   C30       1.0  0.6245999999999999  0.35499  0.03465  1.0000
  C   C31       1.0  0.6245999999999999  0.14501  0.034659999999999996  1.0000
  C   C32       1.0  0.37539999999999996  0.855  0.96535  1.0000
  C   C33       1.0  0.5426199999999998  0.43745  0.57747  1.0000
  C   C34       1.0  0.4573699999999999  0.56255  0.42253999999999997  1.0000
  C   C35       1.0  0.4573699999999999  0.93745  0.42253999999999997  1.0000
  C   C36       1.0  0.54263  0.06255  0.57748  1.0000
  C   C37       1.0  0.37417  0.45000999999999997  0.68291  1.0000
  C   C38       1.0  0.62582  0.5499900000000001  0.3171  1.0000
  C   C39       1.0  0.62583  0.95001  0.31711  1.0000
  C   C40       1.0  0.37417  0.05  0.68291  1.0000
  C   C41       1.0  0.2598699999999999  0.47714  0.6776199999999998  1.0000
  C   C42       1.0  0.7401299999999998  0.52285  0.32239999999999996  1.0000
  C   C43       1.0  0.7401299999999998  0.97715  0.32239999999999996  1.0000
  C   C44       1.0  0.2598699999999999  0.02286  0.6776199999999998  1.0000
  C   C45       1.0  0.20739999999999997  0.53079  0.58383  1.0000
  C   C46       1.0  0.7925999999999999  0.46921  0.4162  1.0000
  C   C47       1.0  0.7925999999999999  0.03078  0.41620999999999997  1.0000
  C   C48       1.0  0.20740999999999998  0.9692099999999999  0.58384  1.0000
  C   C49       1.0  0.26932999999999996  0.5552500000000001  0.49458999999999986  1.0000
  C   C50       1.0  0.73067  0.44476  0.50545  1.0000
  C   C51       1.0  0.73067  0.055240000000000004  0.50545  1.0000
  C   C52       1.0  0.26934  0.94475  0.49460999999999994  1.0000
  C   C53       1.0  0.38784  0.53095  0.50147  1.0000
  C   C54       1.0  0.61216  0.46906000000000003  0.49855  1.0000
  C   C55       1.0  0.61216  0.03094  0.49855999999999995  1.0000
  C   C56       1.0  0.38784  0.9690500000000001  0.50147  1.0000
  Cr  Cr1       1.0  0.18760999999999994  0.75  0.9798599999999998  1.0000
  Cr  Cr2       1.0  0.81239  0.25  0.02014  1.0000
  Cr  Cr3       1.0  0.24581  0.75  0.34164  1.0000
  Cr  Cr4       1.0  0.75419  0.25  0.65836  1.0000
  Cr  Cr5       1.0  0.48576  0.75  0.21991  1.0000
  Cr  Cr6       1.0  0.51424  0.25  0.78009  1.0000
  H   H1        1.0  0.21378999999999998  0.4570000000000001  0.74848  1.0000
  H   H2        1.0  0.78621  0.543  0.25153999999999993  1.0000
  H   H3        1.0  0.78621  0.9570000000000001  0.25153999999999993  1.0000
  H   H4        1.0  0.21378999999999998  0.04301  0.74848  1.0000
  H   H5        1.0  0.41315  0.4114  0.76324  1.0000
  H   H6        1.0  0.58685  0.5886  0.23675999999999994  1.0000
  H   H7        1.0  0.58685  0.9114  0.23676999999999998  1.0000
  H   H8        1.0  0.41314  0.08861  0.76324  1.0000
  H   H9        1.0  0.22168  0.59098  0.4163299999999999  1.0000
  H   H10       1.0  0.7783199999999999  0.40904  0.58372  1.0000
  H   H11       1.0  0.7783199999999999  0.09097  0.58372  1.0000
  H   H12       1.0  0.22169  0.909  0.41637  1.0000
  H   H13       1.0  0.6965599999999998  0.04034  0.0681  1.0000
  H   H14       1.0  0.3034299999999999  0.95966  0.9319799999999999  1.0000
  H   H15       1.0  0.30342  0.54033  0.93196  1.0000
  H   H16       1.0  0.69657  0.45966  0.06807999999999999  1.0000
  H   H17       1.0  0.93742  0.05754  0.06737  1.0000
  H   H18       1.0  0.06259000000000002  0.9424600000000001  0.93263  1.0000
  H   H19       1.0  0.06258999999999995  0.55754  0.93264  1.0000
  H   H20       1.0  0.93741  0.4424600000000001  0.06736  1.0000
  H   H21       1.0  0.018069999999999968  0.05333999999999999  0.8026599999999999  1.0000
  H   H22       1.0  0.9819299999999997  0.94666  0.19734  1.0000
  H   H23       1.0  0.9819199999999996  0.55334  0.19734  1.0000
  H   H24       1.0  0.01807999999999996  0.44666000000000006  0.8026599999999999  1.0000
  O   O1        1.0  0.26771  0.6682  0.90211  1.0000
  O   O2        1.0  0.7322899999999999  0.3318  0.09789  1.0000
  O   O3        1.0  0.7322899999999999  0.16820000000000002  0.09789  1.0000
  O   O4        1.0  0.26771  0.8318  0.90211  1.0000
  O   O5        1.0  0.09947999999999999  0.67446  0.038849999999999996  1.0000
  O   O6        1.0  0.90052  0.32554  0.9611499999999998  1.0000
  O   O7        1.0  0.90052  0.17446  0.9611499999999998  1.0000
  O   O8        1.0  0.09947999999999999  0.82554  0.038849999999999996  1.0000
  O   O9        1.0  0.11671999999999999  0.66921  0.26766  1.0000
  O   O10       1.0  0.88328  0.33079  0.73234  1.0000
  O   O11       1.0  0.88328  0.16921  0.73234  1.0000
  O   O12       1.0  0.11671999999999999  0.83079  0.26766  1.0000
  O   O13       1.0  0.3667099999999999  0.67544  0.42758999999999997  1.0000
  O   O14       1.0  0.63329  0.32456  0.57241  1.0000
  O   O15       1.0  0.63329  0.17544  0.57241  1.0000
  O   O16       1.0  0.3667099999999999  0.82456  0.42758999999999997  1.0000
  O   O17       1.0  0.53487  0.66939  0.3717599999999999  1.0000
  O   O18       1.0  0.46513  0.33061  0.62824  1.0000
  O   O19       1.0  0.46513  0.16939  0.62824  1.0000
  O   O20       1.0  0.53487  0.83061  0.3717599999999999  1.0000
  O   O21       1.0  0.4530799999999999  0.67448  0.07516  1.0000
  O   O22       1.0  0.54692  0.32552  0.92484  1.0000
  O   O23       1.0  0.54692  0.17448  0.92484  1.0000
  O   O24       1.0  0.4530799999999999  0.82552  0.07516  1.0000
  O   O25       1.0  0.30639  0.75  0.18047  1.0000
  O   O26       1.0  0.69361  0.25  0.8195299999999999  1.0000
  C   C57       1.0  0.09314  0.56332  0.58334  1.0000
  N   N1        1.0  0.0018299999999999528  0.58981  0.5836099999999999  1.0000
  C   C58       1.0  0.9068599999999999  0.43668  0.4166999999999999  1.0000
  N   N2        1.0  0.99817  0.41019  0.41644  1.0000
  C   C59       1.0  0.9068599999999999  0.06332  0.4166999999999999  1.0000
  N   N3        1.0  0.99818  0.08981000000000001  0.41645  1.0000
  C   C60       1.0  0.09315  0.93668  0.58336  1.0000
  N   N4        1.0  0.0018400000000000044  0.9101900000000002  0.58363  1.0000
  C   C61       1.0  0.39564  0.07716  0.02692  1.0000
  N   N5        1.0  0.31  0.10826  0.03247  1.0000
  C   C62       1.0  0.60432  0.9228599999999999  0.97307  1.0000
  N   N6        1.0  0.68996  0.8917700000000001  0.9674999999999999  1.0000
  C   C63       1.0  0.60435  0.57715  0.9730899999999999  1.0000
  N   N7        1.0  0.69  0.60825  0.9675299999999999  1.0000
  C   C64       1.0  0.39564  0.42284000000000005  0.02689  1.0000
  N   N8        1.0  0.30998  0.39174  0.03243  1.0000
