data_image0
_chemical_formula_structural       O8C4O8C4O8C4O8C4O8C4O8C4Cr12O4C16H4C8H4C20H4C32H8CHOCHOCHOCHOCHOCHOCHOCHOCHOCHOCHOCHOH4CHOCHOCHOCHOCHOCHOCHOCHOCHOCHOCHOCHOH4
_chemical_formula_sum              "O76 C124 Cr12 H52"
_cell_length_a       18.76569
_cell_length_b       11.09065
_cell_length_c       18.83382
_cell_angle_alpha    89.95543
_cell_angle_beta     89.59452
_cell_angle_gamma    90.26657999999999

_symmetry_space_group_name_H-M    'P 1'
_symmetry_Int_Tables_number       1

loop_
  _symmetry_equiv_pos_as_xyz
  'x,y,z'

loop_
  _atom_site_type_symbol
  _atom_site_label
  _atom_site_symmetry_multiplicity
  _atom_site_fract_x
  _atom_site_fract_y
  _atom_site_fract_z
  _atom_site_occupancy
  O   O1        1.0  0.78751  0.04261  0.6704100000000001  1.0000
  O   O2        1.0  0.21249000000000004  0.04261  0.32959  1.0000
  O   O3        1.0  0.28751  0.54261  0.6704100000000001  1.0000
  O   O4        1.0  0.71249  0.54261  0.32959  1.0000
  O   O5        1.0  0.76567  0.29209  0.6750900000000002  1.0000
  O   O6        1.0  0.23433  0.29209  0.32491000000000003  1.0000
  O   O7        1.0  0.26567  0.79209  0.6750900000000002  1.0000
  O   O8        1.0  0.73433  0.79209  0.32491000000000003  1.0000
  C   C1        1.0  0.73291  0.38431000000000004  0.64963  1.0000
  C   C2        1.0  0.2676  0.38200000000000006  0.35117  1.0000
  C   C3        1.0  0.23264999999999997  0.8844000000000001  0.64954  1.0000
  C   C4        1.0  0.76718  0.88396  0.35039000000000003  1.0000
  O   O9        1.0  0.67022  0.40902  0.66856  1.0000
  O   O10       1.0  0.32978  0.40902  0.33144  1.0000
  O   O11       1.0  0.17022  0.90902  0.66856  1.0000
  O   O12       1.0  0.82978  0.90902  0.33144  1.0000
  O   O13       1.0  0.55658  0.25159  0.67498  1.0000
  O   O14       1.0  0.44342  0.25159  0.32502  1.0000
  O   O15       1.0  0.05657999999999999  0.75159  0.67498  1.0000
  O   O16       1.0  0.94342  0.75159  0.32502  1.0000
  C   C5        1.0  0.53272  0.15505  0.64601  1.0000
  C   C6        1.0  0.46771  0.15552  0.3536200000000001  1.0000
  C   C7        1.0  0.03323  0.655  0.6456800000000001  1.0000
  C   C8        1.0  0.96815  0.6555  0.3533700000000001  1.0000
  O   O17       1.0  0.54589  0.049670000000000006  0.6700300000000001  1.0000
  O   O18       1.0  0.45410999999999996  0.049670000000000006  0.32997000000000004  1.0000
  O   O19       1.0  0.04589  0.54967  0.6700300000000001  1.0000
  O   O20       1.0  0.95411  0.54967  0.32997000000000004  1.0000
  O   O21       1.0  0.68134  0.95786  0.6765000000000002  1.0000
  O   O22       1.0  0.31866  0.95786  0.3235  1.0000
  O   O23       1.0  0.18134  0.45786  0.6765000000000002  1.0000
  O   O24       1.0  0.81866  0.45786  0.3235  1.0000
  C   C9        1.0  0.72767  0.0168  0.63889  1.0000
  C   C10       1.0  0.26956  0.00664  0.36123  1.0000
  C   C11       1.0  0.22748  0.51702  0.63909  1.0000
  C   C12       1.0  0.77209  0.51594  0.36105  1.0000
  O   O25       1.0  0.78738  0.04401  0.83094  1.0000
  O   O26       1.0  0.21261999999999998  0.04401  0.16906  1.0000
  O   O27       1.0  0.28738  0.54401  0.83094  1.0000
  O   O28       1.0  0.71262  0.54401  0.16906  1.0000
  O   O29       1.0  0.76554  0.29339  0.8239100000000003  1.0000
  O   O30       1.0  0.23445999999999997  0.29339  0.17609  1.0000
  O   O31       1.0  0.26554  0.79339  0.8239100000000003  1.0000
  O   O32       1.0  0.73446  0.79339  0.17609  1.0000
  C   C13       1.0  0.72819  0.37524  0.8545800000000001  1.0000
  C   C14       1.0  0.26849  0.3838  0.14945  1.0000
  C   C15       1.0  0.23141  0.88324  0.8504700000000001  1.0000
  C   C16       1.0  0.77189  0.8748500000000002  0.14519  1.0000
  O   O33       1.0  0.67009  0.41041000000000005  0.82909  1.0000
  O   O34       1.0  0.32991  0.41041000000000005  0.17091  1.0000
  O   O35       1.0  0.17009  0.9104100000000002  0.82909  1.0000
  O   O36       1.0  0.82991  0.9104100000000002  0.17091  1.0000
  O   O37       1.0  0.55645  0.25289  0.8237900000000001  1.0000
  O   O38       1.0  0.44355  0.25289  0.17621  1.0000
  O   O39       1.0  0.056449999999999986  0.75289  0.8237900000000001  1.0000
  O   O40       1.0  0.94355  0.75289  0.17621  1.0000
  C   C17       1.0  0.53384  0.15657  0.85409  1.0000
  C   C18       1.0  0.46685000000000004  0.1578  0.14633  1.0000
  C   C19       1.0  0.03302  0.6574300000000001  0.85359  1.0000
  C   C20       1.0  0.96653  0.65697  0.1461  1.0000
  O   O41       1.0  0.54575  0.05107  0.83056  1.0000
  O   O42       1.0  0.45425  0.05107  0.16944  1.0000
  O   O43       1.0  0.04575  0.55107  0.83056  1.0000
  O   O44       1.0  0.9542500000000002  0.55107  0.16944  1.0000
  O   O45       1.0  0.68121  0.9591500000000001  0.8253200000000003  1.0000
  O   O46       1.0  0.31879  0.9591500000000001  0.17468  1.0000
  O   O47       1.0  0.18121  0.45915  0.8253200000000003  1.0000
  O   O48       1.0  0.81879  0.45915  0.17468  1.0000
  C   C21       1.0  0.74228  0.966  0.8523700000000001  1.0000
  C   C22       1.0  0.26088  0.9764  0.14291  1.0000
  C   C23       1.0  0.22638999999999998  0.52037  0.8618600000000001  1.0000
  C   C24       1.0  0.75782  0.46657000000000004  0.14743000000000003  1.0000
  Cr  Cr1       1.0  0.7719499999999999  0.16948  0.7501  1.0000
  Cr  Cr2       1.0  0.22805000000000003  0.16948  0.2499  1.0000
  Cr  Cr3       1.0  0.27195  0.66948  0.7501  1.0000
  Cr  Cr4       1.0  0.72805  0.66948  0.2499  1.0000
  Cr  Cr5       1.0  0.61493  0.32334  0.74917  1.0000
  Cr  Cr6       1.0  0.38507  0.32334  0.25083  1.0000
  Cr  Cr7       1.0  0.11493  0.82334  0.74917  1.0000
  Cr  Cr8       1.0  0.88507  0.82334  0.25083  1.0000
  Cr  Cr9       1.0  0.61659  0.010620000000000001  0.75061  1.0000
  Cr  Cr10      1.0  0.38341  0.01062  0.24939000000000003  1.0000
  Cr  Cr11      1.0  0.11659  0.51062  0.75061  1.0000
  Cr  Cr12      1.0  0.8834099999999999  0.51062  0.24939000000000003  1.0000
  O   O49       1.0  0.66782  0.16781  0.7499600000000002  1.0000
  O   O50       1.0  0.33218  0.16781  0.25004  1.0000
  O   O51       1.0  0.16782  0.66781  0.7499600000000002  1.0000
  O   O52       1.0  0.83218  0.66781  0.25004  1.0000
  C   C25       1.0  0.50087  0.16468000000000002  0.42333  1.0000
  C   C26       1.0  0.50792  0.16245  0.57291  1.0000
  C   C27       1.0  0.002809999999999999  0.66421  0.42243  1.0000
  C   C28       1.0  0.01018  0.66233  0.57199  1.0000
  C   C29       1.0  0.50186  0.27251  0.46235  1.0000
  C   C30       1.0  0.50991  0.27175  0.5359400000000001  1.0000
  C   C31       1.0  0.006380000000000001  0.7720800000000001  0.46118  1.0000
  C   C32       1.0  0.01438  0.7711300000000001  0.5346800000000002  1.0000
  C   C33       1.0  0.50616  0.055790000000000006  0.53359  1.0000
  C   C34       1.0  0.51264  0.05751  0.46019000000000004  1.0000
  C   C35       1.0  0.00803  0.55547  0.53282  1.0000
  C   C36       1.0  0.01426  0.55684  0.45935  1.0000
  C   C37       1.0  0.4486399999999999  0.37161  0.4651400000000001  1.0000
  C   C38       1.0  0.45885999999999993  0.37328000000000006  0.5447800000000003  1.0000
  C   C39       1.0  0.9568899999999999  0.87653  0.46362000000000003  1.0000
  C   C40       1.0  0.96665  0.8770600000000001  0.54338  1.0000
  H   H1        1.0  0.46792000000000006  0.45431  0.43796  1.0000
  H   H2        1.0  0.41004  0.34749  0.57515  1.0000
  H   H3        1.0  0.97972  0.9572200000000001  0.43696  1.0000
  H   H4        1.0  0.9169499999999999  0.85546  0.57345  1.0000
  C   C41       1.0  0.67663  0.9200400000000001  0.52413  1.0000
  C   C42       1.0  0.32326  0.92144  0.47632  1.0000
  C   C43       1.0  0.17885  0.4107  0.52687  1.0000
  C   C44       1.0  0.82569  0.42933  0.47715  1.0000
  C   C45       1.0  0.68403  0.9025800000000002  0.45109000000000005  1.0000
  C   C46       1.0  0.3171  0.91246  0.55005  1.0000
  C   C47       1.0  0.18983  0.38310000000000005  0.45557  1.0000
  C   C48       1.0  0.81868  0.41369  0.55058  1.0000
  H   H5        1.0  0.64519  0.8509500000000001  0.42193  1.0000
  H   H6        1.0  0.35934  0.8731700000000001  0.58127  1.0000
  H   H7        1.0  0.1578  0.31432  0.43013  1.0000
  H   H8        1.0  0.85957  0.36849  0.58063  1.0000
  C   C49       1.0  0.74168  0.9469300000000002  0.4140200000000001  1.0000
  C   C50       1.0  0.25569  0.9472500000000001  0.58458  1.0000
  C   C51       1.0  0.24229000000000003  0.43936  0.41600000000000004  1.0000
  C   C52       1.0  0.75825  0.44974  0.58624  1.0000
  C   C53       1.0  0.78414  0.03592  0.44468  1.0000
  C   C54       1.0  0.20529  0.01709  0.54824  1.0000
  C   C55       1.0  0.28056  0.53531  0.4448  1.0000
  C   C56       1.0  0.71221  0.5311  0.55359  1.0000
  C   C57       1.0  0.78405  0.05018  0.5185600000000001  1.0000
  C   C58       1.0  0.20218  0.00753  0.47464000000000006  1.0000
  C   C59       1.0  0.28184  0.55027  0.51845  1.0000
  C   C60       1.0  0.7112  0.53871  0.47958  1.0000
  C   C61       1.0  0.72991  0.9916400000000001  0.5607900000000001  1.0000
  C   C62       1.0  0.2639  0.9691000000000001  0.43672000000000005  1.0000
  C   C63       1.0  0.22964000000000004  0.48956  0.5617100000000002  1.0000
  C   C64       1.0  0.76922  0.48992  0.43896  1.0000
  C   C65       1.0  0.56388  0.10893  0.97632  1.0000
  C   C66       1.0  0.55034  0.11233  0.04866  1.0000
  C   C67       1.0  0.94664  0.62378  0.9510300000000002  1.0000
  C   C68       1.0  0.9326400000000001  0.62148  0.0234  1.0000
  H   H9        1.0  0.611  0.06305  0.95719  1.0000
  H   H10       1.0  0.58593  0.06785  0.085  1.0000
  H   H11       1.0  0.9079300000000001  0.58812  0.9142400000000003  1.0000
  H   H12       1.0  0.8824000000000001  0.58463  0.04221  1.0000
  C   C69       1.0  0.49000999999999995  0.17166  0.07346  1.0000
  C   C70       1.0  0.51697  0.16434  0.92874  1.0000
  C   C71       1.0  0.98338  0.66542  0.07147  1.0000
  C   C72       1.0  0.01132  0.67056  0.92688  1.0000
  C   C73       1.0  0.44535  0.23376  0.0262  1.0000
  C   C74       1.0  0.45905999999999997  0.23057  0.9536000000000001  1.0000
  C   C75       1.0  0.04645999999999999  0.71842  0.04728  1.0000
  C   C76       1.0  0.06055  0.7205900000000002  0.97474  1.0000
  C   C77       1.0  0.81588  0.93941  0.95505  1.0000
  C   C78       1.0  0.20004  0.9925000000000002  0.0306  1.0000
  C   C79       1.0  0.2829  0.54704  0.9763000000000001  1.0000
  C   C80       1.0  0.6844  0.43891  0.0447  1.0000
  C   C81       1.0  0.8190399999999999  0.94488  0.027870000000000002  1.0000
  C   C82       1.0  0.20019  0.0005799999999999999  0.9576700000000001  1.0000
  C   C83       1.0  0.29211  0.52488  0.0478  1.0000
  C   C84       1.0  0.6809  0.44439  0.97188  1.0000
  C   C85       1.0  0.75999  0.90164  0.06949  1.0000
  C   C86       1.0  0.25274  0.9372500000000001  0.9185300000000001  1.0000
  C   C87       1.0  0.24422  0.44589  0.08411000000000003  1.0000
  C   C88       1.0  0.74021  0.40359  0.93003  1.0000
  C   C89       1.0  0.69834  0.8550600000000002  0.03455  1.0000
  C   C90       1.0  0.31538  0.89856  0.95266  1.0000
  C   C91       1.0  0.18033  0.41025  0.0503  1.0000
  C   C92       1.0  0.8026099999999999  0.36068  0.9645800000000001  1.0000
  C   C93       1.0  0.69615  0.85513  0.95964  1.0000
  C   C94       1.0  0.3188  0.90325  0.02764  1.0000
  C   C95       1.0  0.17271  0.43047  0.97647  1.0000
  C   C96       1.0  0.8048999999999998  0.35966  0.03947000000000001  1.0000
  C   C97       1.0  0.75329  0.90819  0.9211600000000001  1.0000
  C   C98       1.0  0.25817  0.94551  0.06695  1.0000
  C   C99       1.0  0.22744  0.49434  0.9387100000000002  1.0000
  C   C100      1.0  0.74725  0.40959000000000007  0.07833  1.0000
  H   H13       1.0  0.50041  0.97042  0.56016  1.0000
  H   H14       1.0  0.51716  0.97269  0.43237000000000003  1.0000
  H   H15       1.0  0.0015499999999999997  0.47033  0.55949  1.0000
  H   H16       1.0  0.01798  0.47181000000000006  0.43164000000000013  1.0000
  H   H17       1.0  0.8605399999999999  0.97436  0.9242600000000002  1.0000
  H   H18       1.0  0.15615  0.03341  0.05935000000000001  1.0000
  H   H19       1.0  0.3206  0.60587  0.94925  1.0000
  H   H20       1.0  0.63961  0.47190000000000004  0.07574  1.0000
  C   C101      1.0  0.8851500000000001  0.00123  0.05661  1.0000
  H   H21       1.0  0.8829999999999999  0.059710000000000006  0.10248  1.0000
  O   O53       1.0  0.9429699999999999  0.9845000000000002  0.02813  1.0000
  C   C102      1.0  0.14515  0.07740999999999999  0.92383  1.0000
  H   H22       1.0  0.15512  0.11654000000000002  0.8718400000000001  1.0000
  O   O54       1.0  0.08841  0.09792  0.95353  1.0000
  C   C103      1.0  0.3539  0.58437  0.08195  1.0000
  H   H23       1.0  0.3497  0.61627  0.13626  1.0000
  O   O55       1.0  0.41031  0.59708  0.04994000000000001  1.0000
  C   C104      1.0  0.61421  0.49841  0.94348  1.0000
  H   H24       1.0  0.61552  0.55632  0.89728  1.0000
  O   O56       1.0  0.55678  0.48079000000000005  0.97276  1.0000
  C   C105      1.0  0.63665  0.8032800000000001  0.07469000000000002  1.0000
  H   H25       1.0  0.61323  0.7182  0.05826  1.0000
  O   O57       1.0  0.61041  0.85651  0.12514  1.0000
  C   C106      1.0  0.37718  0.85425  0.9101300000000001  1.0000
  H   H26       1.0  0.40968  0.78075  0.9295000000000001  1.0000
  O   O58       1.0  0.39324  0.9018700000000001  0.8537100000000001  1.0000
  C   C107      1.0  0.12207  0.34998  0.09121000000000001  1.0000
  H   H27       1.0  0.09318  0.27437  0.06867  1.0000
  O   O59       1.0  0.10443  0.38730000000000003  0.14971  1.0000
  C   C108      1.0  0.8651500000000001  0.31474  0.92377  1.0000
  H   H28       1.0  0.8909  0.23167000000000001  0.93968  1.0000
  O   O60       1.0  0.8893300000000001  0.37067  0.8731300000000001  1.0000
  C   C109      1.0  0.63462  0.80197  0.9206500000000001  1.0000
  H   H29       1.0  0.64393  0.7577000000000002  0.87009  1.0000
  O   O61       1.0  0.57342  0.81165  0.9422700000000002  1.0000
  C   C110      1.0  0.38624  0.8681600000000002  0.06342  1.0000
  H   H30       1.0  0.3851  0.81716  0.11235  1.0000
  O   O62       1.0  0.44423  0.89764  0.039180000000000006  1.0000
  C   C111      1.0  0.10802999999999999  0.3834  0.94046  1.0000
  H   H31       1.0  0.11245  0.32733  0.8936800000000001  1.0000
  O   O63       1.0  0.04866999999999999  0.40488  0.9639  1.0000
  C   C112      1.0  0.8669299999999999  0.30811  0.07797  1.0000
  H   H32       1.0  0.85802  0.26141  0.1279  1.0000
  O   O64       1.0  0.92804  0.32196  0.05676  1.0000
  H   H33       1.0  0.90172  0.85211  0.44802  1.0000
  H   H34       1.0  0.99646  0.95692  0.5630700000000001  1.0000
  H   H35       1.0  0.39437  0.34112  0.45001000000000013  1.0000
  H   H36       1.0  0.48633999999999994  0.45561000000000007  0.56438  1.0000
  C   C113      1.0  0.61309  0.8528000000000001  0.55265  1.0000
  H   H37       1.0  0.57805  0.8070800000000001  0.51554  1.0000
  O   O65       1.0  0.59652  0.8437  0.61484  1.0000
  C   C114      1.0  0.39141  0.8691300000000001  0.44904  1.0000
  H   H38       1.0  0.43222  0.84468  0.48679  1.0000
  O   O66       1.0  0.40362  0.8446500000000001  0.3873600000000001  1.0000
  C   C115      1.0  0.11317000000000002  0.34931  0.55518  1.0000
  H   H39       1.0  0.07669  0.30827000000000004  0.51767  1.0000
  O   O67       1.0  0.0963  0.34041  0.61732  1.0000
  C   C116      1.0  0.89207  0.37129000000000006  0.44927  1.0000
  H   H40       1.0  0.93215  0.34239  0.48675000000000007  1.0000
  O   O68       1.0  0.9038  0.34733  0.38745  1.0000
  C   C117      1.0  0.82315  0.12069000000000002  0.39754  1.0000
  H   H41       1.0  0.79404  0.19158  0.3708300000000001  1.0000
  O   O69       1.0  0.8866700000000001  0.10781  0.3855100000000001  1.0000
  C   C118      1.0  0.15429  0.09324  0.5883300000000001  1.0000
  H   H42       1.0  0.09950999999999999  0.10296  0.57193  1.0000
  O   O70       1.0  0.17365  0.14377  0.64257  1.0000
  C   C119      1.0  0.31618  0.6228700000000001  0.39683  1.0000
  H   H43       1.0  0.28563  0.6963  0.37447  1.0000
  O   O71       1.0  0.37886  0.61111  0.3806  1.0000
  C   C120      1.0  0.6652  0.6078  0.5979900000000001  1.0000
  H   H44       1.0  0.60951  0.61871  0.5851800000000003  1.0000
  O   O72       1.0  0.68854  0.65578  0.65144  1.0000
  C   C121      1.0  0.84241  0.12392  0.54967  1.0000
  H   H45       1.0  0.833  0.18089  0.59416  1.0000
  O   O73       1.0  0.90309  0.11990000000000002  0.5263300000000001  1.0000
  C   C122      1.0  0.13185  0.01943  0.4392400000000001  1.0000
  H   H46       1.0  0.11377999999999999  0.9478300000000001  0.40439000000000014  1.0000
  O   O74       1.0  0.09559  0.10979  0.44542  1.0000
  C   C123      1.0  0.34023  0.62555  0.54818  1.0000
  H   H47       1.0  0.33169  0.68192  0.59312  1.0000
  O   O75       1.0  0.40026  0.62311  0.52305  1.0000
  C   C124      1.0  0.64673  0.59224  0.44704  1.0000
  H   H48       1.0  0.65097  0.662  0.40766  1.0000
  O   O76       1.0  0.58748  0.55511  0.46299000000000007  1.0000
  H   H49       1.0  0.39815  0.27992  0.04522  1.0000
  H   H50       1.0  0.42385999999999996  0.27628  0.9171300000000001  1.0000
  H   H51       1.0  0.08512  0.7544000000000001  0.08419  1.0000
  H   H52       1.0  0.11112999999999999  0.7565000000000001  0.95607  1.0000
