data_image0
_chemical_formula_structural       O2CO2CO2CO2CO2CO2CCr3OCH2CHC3H2C3H4CHCHC3HC2HCHC2HC3HC3HCHC2HCHC3HC3HC2HCHCO2CO2CO2CO2CO2CO2CCr3ONO2NO2CHOCHONO2NO2CHOCHO
_chemical_formula_sum              "O38 C54 Cr6 H28 N4"
_cell_length_a       11.08262
_cell_length_b       10.87162
_cell_length_c       18.71933
_cell_angle_alpha    89.75351
_cell_angle_beta     89.87065
_cell_angle_gamma    59.798449999999995

_space_group_name_H-M_alt    "P 1"
_space_group_IT_number       1

loop_
  _space_group_symop_operation_xyz
  'x, y, z'

loop_
  _atom_site_type_symbol
  _atom_site_label
  _atom_site_symmetry_multiplicity
  _atom_site_fract_x
  _atom_site_fract_y
  _atom_site_fract_z
  _atom_site_occupancy
  O   O1        1.0  0.50743  0.25557  0.58142  1.0000
  O   O2        1.0  0.28019  0.52739  0.57891  1.0000
  C   C1        1.0  0.22891  0.6502  0.60746  1.0000
  O   O3        1.0  0.26031  0.73974  0.58458  1.0000
  O   O4        1.0  0.53225  0.6951500000000002  0.57383  1.0000
  C   C2        1.0  0.65506  0.62584  0.59935  1.0000
  O   O5        1.0  0.7449299999999998  0.5034300000000002  0.57638  1.0000
  O   O6        1.0  0.6992499999999998  0.27639  0.5719499999999998  1.0000
  C   C3        1.0  0.59509  0.2883  0.61009  1.0000
  O   O7        1.0  0.4990199999999997  0.25640000000000013  0.41985  1.0000
  O   O8        1.0  0.27239999999999986  0.5281600000000001  0.42913999999999997  1.0000
  C   C4        1.0  0.28607999999999995  0.62209  0.39234  1.0000
  O   O9        1.0  0.25190999999999986  0.7405700000000002  0.42302  1.0000
  O   O10       1.0  0.5244599999999999  0.6959200000000002  0.42406  1.0000
  C   C5        1.0  0.6445099999999999  0.6282200000000001  0.39453  1.0000
  O   O11       1.0  0.7365299999999998  0.50426  0.41481  1.0000
  O   O12       1.0  0.69146  0.27716  0.42218  1.0000
  C   C6        1.0  0.6173499999999997  0.22920000000000001  0.3951799999999999  1.0000
  Cr  Cr1       1.0  0.3929299999999999  0.3979  0.50223  1.0000
  Cr  Cr2       1.0  0.3982400000000001  0.7086  0.50126  1.0000
  Cr  Cr3       1.0  0.7088000000000001  0.39347000000000004  0.49646  1.0000
  O   O13       1.0  0.49999000000000005  0.49999  0.49998  1.0000
  C   C7        1.0  0.5849299999999998  0.8333300000000001  0.77897  1.0000
  H   H1        1.0  0.58887  0.9314500000000001  0.79075  1.0000
  H   H2        1.0  0.49408  0.84664  0.81068  1.0000
  C   C8        1.0  0.5638499999999997  0.8193900000000002  0.69736  1.0000
  H   H3        1.0  0.84439  0.70526  0.64014  1.0000
  C   C9        1.0  0.8424299999999998  0.6803700000000001  0.75893  1.0000
  C   C10       1.0  0.6975099999999997  0.56968  0.79942  1.0000
  C   C11       1.0  0.7196599999999999  0.69853  0.8065799999999999  1.0000
  H   H4        1.0  0.7898699999999997  0.4705500000000001  0.81959  1.0000
  H   H5        1.0  0.6057699999999999  0.58693  0.83167  1.0000
  C   C12       1.0  0.6769999999999998  0.6627200000000002  0.67252  1.0000
  C   C13       1.0  0.8247899999999999  0.64309  0.68098  1.0000
  C   C14       1.0  0.6744500000000001  0.54818  0.72157  1.0000
  H   H6        1.0  0.5779299999999999  0.54235  0.7153  1.0000
  H   H7        1.0  0.7614299999999998  0.44225000000000003  0.70577  1.0000
  H   H8        1.0  0.9384299999999995  0.5891  0.78054  1.0000
  H   H9        1.0  0.9059599999999997  0.53047  0.6704  1.0000
  C   C15       1.0  0.75419  0.21093  0.71635  1.0000
  H   H10       1.0  0.8388199999999999  0.19968  0.68333  1.0000
  C   C16       1.0  0.77722  0.1776  0.78892  1.0000
  H   H11       1.0  0.8817799999999998  0.13262000000000002  0.81015  1.0000
  C   C17       1.0  0.6676499999999999  0.19116  0.83185  1.0000
  C   C18       1.0  0.53133  0.25313  0.80264  1.0000
  C   C19       1.0  0.5124299999999999  0.27885000000000004  0.7299699999999999  1.0000
  H   H12       1.0  0.41172999999999993  0.31244000000000005  0.70706  1.0000
  C   C20       1.0  0.62284  0.25599000000000005  0.68616  1.0000
  C   C21       1.0  0.17852000000000004  0.56102  0.71829  1.0000
  H   H13       1.0  0.19139999999999996  0.4671200000000001  0.69162  1.0000
  C   C22       1.0  0.17366999999999996  0.5664500000000001  0.7925599999999999  1.0000
  H   H14       1.0  0.17114  0.4820900000000001  0.82161  1.0000
  C   C23       1.0  0.1555  0.68692  0.82846  1.0000
  C   C24       1.0  0.1326999999999999  0.8061500000000003  0.78834  1.0000
  H   H15       1.0  0.1068699999999999  0.9047600000000001  0.81475  1.0000
  C   C25       1.0  0.1257499999999999  0.8059800000000003  0.71396  1.0000
  C   C26       1.0  0.16550999999999996  0.67634  0.67869  1.0000
  C   C27       1.0  0.8058499999999997  0.6024200000000002  0.29992  1.0000
  H   H16       1.0  0.8897600000000001  0.52705  0.33401  1.0000
  C   C28       1.0  0.82941  0.6046600000000002  0.22718999999999998  1.0000
  C   C29       1.0  0.71777  0.7076  0.18333  1.0000
  C   C30       1.0  0.58852  0.80151  0.21535999999999997  1.0000
  H   H17       1.0  0.50231  0.88102  0.18401  1.0000
  C   C31       1.0  0.5653199999999999  0.7860900000000002  0.28717  1.0000
  H   H18       1.0  0.46263999999999966  0.8507100000000001  0.30961  1.0000
  C   C32       1.0  0.67245  0.68068  0.3283  1.0000
  C   C33       1.0  0.55728  0.14448  0.28867  1.0000
  H   H19       1.0  0.4833399999999999  0.12657  0.31831  1.0000
  C   C34       1.0  0.55382  0.14229  0.2156  1.0000
  H   H20       1.0  0.4814799999999999  0.1156  0.19122999999999998  1.0000
  C   C35       1.0  0.64799  0.16437  0.17509  1.0000
  C   C36       1.0  0.7401399999999997  0.19995000000000004  0.20887  1.0000
  C   C37       1.0  0.7412499999999997  0.20364000000000002  0.28296  1.0000
  H   H21       1.0  0.8083799999999999  0.23536  0.30922  1.0000
  C   C38       1.0  0.6480500000000001  0.17894  0.32271  1.0000
  C   C39       1.0  0.2209499999999998  0.7599400000000002  0.27884  1.0000
  C   C40       1.0  0.21294999999999994  0.7587700000000001  0.20609999999999998  1.0000
  H   H22       1.0  0.19450000000000003  0.85467  0.17863  1.0000
  C   C41       1.0  0.19234999999999994  0.65563  0.17233  1.0000
  C   C42       1.0  0.23222000000000004  0.52743  0.20711  1.0000
  H   H23       1.0  0.23264999999999983  0.44021  0.17937999999999998  1.0000
  C   C43       1.0  0.26653000000000004  0.51526  0.27943  1.0000
  H   H24       1.0  0.2966599999999999  0.41606  0.30683  1.0000
  C   C44       1.0  0.25234999999999985  0.6344000000000002  0.3167499999999999  1.0000
  O   O14       1.0  0.08949000000000004  0.82561  0.93061  1.0000
  O   O15       1.0  0.81837  0.054540000000000005  0.92988  1.0000
  C   C45       1.0  0.6978999999999999  0.10910000000000002  0.89838  1.0000
  O   O16       1.0  0.6058699999999999  0.07731  0.91553  1.0000
  O   O17       1.0  0.6464399999999998  0.8067000000000002  0.9175699999999999  1.0000
  C   C46       1.0  0.75104  0.71047  0.8826899999999999  1.0000
  O   O18       1.0  0.8371999999999998  0.59329  0.91525  1.0000
  O   O19       1.0  0.06533  0.63537  0.9315899999999999  1.0000
  C   C47       1.0  0.11383000000000001  0.70912  0.90378  1.0000
  O   O20       1.0  0.06829999999999989  0.8287900000000001  0.09186  1.0000
  O   O21       1.0  0.79873  0.05748000000000002  0.07937  1.0000
  C   C48       1.0  0.6738899999999999  0.10915000000000001  0.10315999999999999  1.0000
  O   O22       1.0  0.58468  0.08048  0.07679  1.0000
  O   O23       1.0  0.6267899999999998  0.8096400000000002  0.06705  1.0000
  C   C49       1.0  0.7344199999999996  0.7176100000000002  0.10566  1.0000
  O   O24       1.0  0.8160099999999997  0.5964600000000002  0.0765  1.0000
  O   O25       1.0  0.04567999999999986  0.6383100000000003  0.08107  1.0000
  C   C50       1.0  0.10562000000000003  0.7029  0.10826999999999999  1.0000
  Cr  Cr4       1.0  0.9376199999999998  0.9385400000000002  0.007639999999999999  1.0000
  Cr  Cr5       1.0  0.62515  0.9374500000000001  0.99452  1.0000
  Cr  Cr6       1.0  0.93799  0.6250800000000001  0.00119  1.0000
  O   O26       1.0  0.8335899999999999  0.83369  0.00112  1.0000
  N   N1        1.0  0.41334  0.27782  0.84497  1.0000
  O   O27       1.0  0.388  0.34537000000000007  0.90539  1.0000
  O   O28       1.0  0.3382599999999999  0.22204  0.82614  1.0000
  N   N2        1.0  0.07891999999999982  0.9373300000000002  0.67551  1.0000
  O   O29       1.0  0.010780000000000052  0.96064  0.61574  1.0000
  O   O30       1.0  0.08680999999999998  0.04142000000000001  0.70484  1.0000
  C   C51       1.0  0.9680199999999999  0.48878000000000005  0.20118  1.0000
  H   H25       1.0  0.0021600000000000035  0.47945  0.14695  1.0000
  O   O31       1.0  0.04925  0.39536  0.24174  1.0000
  C   C52       1.0  0.8328299999999998  0.23649000000000003  0.16811  1.0000
  H   H26       1.0  0.80646  0.27701  0.11389  1.0000
  O   O32       1.0  0.9406599999999998  0.21987000000000004  0.19445  1.0000
  N   N3        1.0  0.17223999999999998  0.89613  0.31224  1.0000
  O   O33       1.0  0.21118  0.98247  0.28702  1.0000
  O   O34       1.0  0.05855999999999999  0.9499600000000001  0.35031  1.0000
  N   N4        1.0  0.4216699999999999  0.8459400000000002  0.6876799999999998  1.0000
  O   O35       1.0  0.3353099999999999  0.94234  0.64309  1.0000
  O   O36       1.0  0.38068999999999986  0.7725800000000002  0.72457  1.0000
  C   C53       1.0  0.57746  0.93266  0.65552  1.0000
  H   H27       1.0  0.54511  0.03459  0.67982  1.0000
  O   O37       1.0  0.6147999999999999  0.9152500000000001  0.59312  1.0000
  C   C54       1.0  0.8530499999999999  0.81402  0.7636999999999999  1.0000
  H   H28       1.0  0.86986  0.84743  0.81531  1.0000
  O   O38       1.0  0.8361  0.88945  0.71188  1.0000
