data_image0
_chemical_formula_structural       C104Cr12H48O52I4
_chemical_formula_sum              "C104 Cr12 H48 O52 I4"
_cell_length_a       19.01759
_cell_length_b       10.831050000000001
_cell_length_c       18.85659
_cell_angle_alpha    90.05040999999999
_cell_angle_beta     90.08541
_cell_angle_gamma    89.98139

_symmetry_space_group_name_H-M    'P 1'
_symmetry_Int_Tables_number       1

loop_
  _symmetry_equiv_pos_as_xyz
  'x,y,z'

loop_
  _atom_site_type_symbol
  _atom_site_label
  _atom_site_symmetry_multiplicity
  _atom_site_fract_x
  _atom_site_fract_y
  _atom_site_fract_z
  _atom_site_occupancy
  C   C1        1.0  0.72753  0.3717  0.14345  1.0000
  C   C2        1.0  0.26987  0.3766  0.85419  1.0000
  C   C3        1.0  0.22753  0.8717  0.14345  1.0000
  C   C4        1.0  0.7698700000000003  0.8766  0.85419  1.0000
  C   C5        1.0  0.45541000000000004  0.4000099999999999  0.94481  1.0000
  C   C6        1.0  0.4640500000000001  0.38566999999999996  0.09157  1.0000
  C   C7        1.0  0.95541  0.90001  0.94481  1.0000
  C   C8        1.0  0.96405  0.88567  0.09157  1.0000
  C   C9        1.0  0.95553  0.00722  0.9858100000000001  1.0000
  C   C10       1.0  0.95757  0.9999199999999999  0.05903  1.0000
  C   C11       1.0  0.4555300000000001  0.50721  0.9858100000000001  1.0000
  C   C12       1.0  0.45757  0.49993  0.05903  1.0000
  C   C13       1.0  0.70636  0.85073  0.04002  1.0000
  C   C14       1.0  0.30565000000000003  0.87233  0.96125  1.0000
  C   C15       1.0  0.20636000000000002  0.35073  0.04002  1.0000
  C   C16       1.0  0.8056500000000001  0.37233  0.96125  1.0000
  C   C17       1.0  0.7090000000000001  0.83402  0.9670200000000001  1.0000
  C   C18       1.0  0.30105  0.86315  0.03464  1.0000
  C   C19       1.0  0.209  0.33402  0.9670200000000001  1.0000
  C   C20       1.0  0.8010500000000002  0.36315  0.03464  1.0000
  C   C21       1.0  0.7497200000000003  0.91409  0.9249399999999999  1.0000
  C   C22       1.0  0.23820000000000002  0.89509  0.0685  1.0000
  C   C23       1.0  0.24972  0.41409  0.9249399999999999  1.0000
  C   C24       1.0  0.7382  0.39509  0.0685  1.0000
  C   C25       1.0  0.7833000000000001  0.01529  0.95536  1.0000
  C   C26       1.0  0.17927  0.9300600000000001  0.02809  1.0000
  C   C27       1.0  0.2833  0.51529  0.95536  1.0000
  C   C28       1.0  0.67927  0.43006  0.02809  1.0000
  C   C29       1.0  0.78185  0.03021  0.02783  1.0000
  C   C30       1.0  0.18378  0.9383199999999999  0.95558  1.0000
  C   C31       1.0  0.28185  0.53021  0.02783  1.0000
  C   C32       1.0  0.6837800000000002  0.43832  0.95558  1.0000
  C   C33       1.0  0.74512  0.94628  0.07078  1.0000
  C   C34       1.0  0.24791000000000005  0.9159  0.92201  1.0000
  C   C35       1.0  0.24512000000000003  0.44628  0.07078  1.0000
  C   C36       1.0  0.7479100000000001  0.4159  0.92201  1.0000
  C   C37       1.0  0.54778  0.05843000000000001  0.47729999999999995  1.0000
  C   C38       1.0  0.53033  0.05901  0.54806  1.0000
  C   C39       1.0  0.04778  0.55843  0.47729999999999995  1.0000
  C   C40       1.0  0.030330000000000003  0.55901  0.54806  1.0000
  C   C41       1.0  0.5103700000000001  0.16883  0.58161  1.0000
  C   C42       1.0  0.54393  0.16657  0.43715  1.0000
  C   C43       1.0  0.01037  0.66883  0.58161  1.0000
  C   C44       1.0  0.04393000000000001  0.66657  0.43715  1.0000
  C   C45       1.0  0.5283000000000001  0.15522  0.14903  1.0000
  C   C46       1.0  0.43799  0.15267  0.8616100000000001  1.0000
  C   C47       1.0  0.0283  0.65522  0.14903  1.0000
  C   C48       1.0  0.9379900000000001  0.65267  0.8616100000000001  1.0000
  C   C49       1.0  0.51706  0.28238  0.54526  1.0000
  C   C50       1.0  0.5287  0.2812  0.47143999999999997  1.0000
  C   C51       1.0  0.017060000000000002  0.7823800000000001  0.54526  1.0000
  C   C52       1.0  0.0287  0.7812  0.47143999999999997  1.0000
  C   C53       1.0  0.79961  0.00392  0.46936  1.0000
  C   C54       1.0  0.20603  0.015589999999999998  0.52853  1.0000
  C   C55       1.0  0.29962000000000005  0.50392  0.46936  1.0000
  C   C56       1.0  0.70603  0.51559  0.52853  1.0000
  C   C57       1.0  0.8000900000000001  0.99639  0.54191  1.0000
  C   C58       1.0  0.20574  0.0062  0.45593999999999996  1.0000
  C   C59       1.0  0.3000900000000001  0.49639  0.54191  1.0000
  C   C60       1.0  0.70574  0.5062  0.45593999999999996  1.0000
  C   C61       1.0  0.75252  0.91878  0.57647  1.0000
  C   C62       1.0  0.24929000000000004  0.9202700000000001  0.4227  1.0000
  C   C63       1.0  0.25252  0.41878  0.57647  1.0000
  C   C64       1.0  0.74929  0.4202699999999999  0.4227  1.0000
  C   C65       1.0  0.70008  0.85726  0.53762  1.0000
  C   C66       1.0  0.29896  0.85344  0.46246  1.0000
  C   C67       1.0  0.20009000000000002  0.35726  0.53762  1.0000
  C   C68       1.0  0.79896  0.35344  0.46246  1.0000
  C   C69       1.0  0.6983100000000001  0.8677599999999999  0.46414  1.0000
  C   C70       1.0  0.30110000000000003  0.8663900000000001  0.53578  1.0000
  C   C71       1.0  0.19831  0.36776  0.46414  1.0000
  C   C72       1.0  0.8011  0.36639  0.53578  1.0000
  C   C73       1.0  0.74863  0.94046  0.42969  1.0000
  C   C74       1.0  0.25310000000000005  0.94515  0.56923  1.0000
  C   C75       1.0  0.24863  0.44046  0.42969  1.0000
  C   C76       1.0  0.7531  0.44515  0.56923  1.0000
  C   C77       1.0  0.7401300000000002  0.9739  0.14568  1.0000
  C   C78       1.0  0.25830000000000003  0.96711  0.8517899999999999  1.0000
  C   C79       1.0  0.24013  0.4739  0.14568  1.0000
  C   C80       1.0  0.7583  0.46710999999999997  0.8517899999999999  1.0000
  C   C81       1.0  0.73019  0.37971  0.35203  1.0000
  C   C82       1.0  0.27005  0.37949000000000005  0.64778  1.0000
  C   C83       1.0  0.23019  0.8797099999999999  0.35203  1.0000
  C   C84       1.0  0.7700500000000002  0.87948  0.64778  1.0000
  C   C85       1.0  0.56173  0.15456  0.36162  1.0000
  C   C86       1.0  0.47083  0.15794  0.64811  1.0000
  C   C87       1.0  0.06173000000000001  0.65456  0.36162  1.0000
  C   C88       1.0  0.97083  0.65794  0.64811  1.0000
  C   C89       1.0  0.7408500000000001  0.9737599999999998  0.35563  1.0000
  C   C90       1.0  0.25956  0.97509  0.64389  1.0000
  C   C91       1.0  0.24085000000000004  0.47376000000000007  0.35563  1.0000
  C   C92       1.0  0.7595600000000002  0.47509000000000007  0.64389  1.0000
  C   C93       1.0  0.4555300000000001  0.16536  0.9377200000000001  1.0000
  C   C94       1.0  0.4870300000000001  0.16259  0.08327  1.0000
  C   C95       1.0  0.95552  0.66536  0.9377200000000001  1.0000
  C   C96       1.0  0.9870300000000001  0.66259  0.08327  1.0000
  C   C97       1.0  0.45963000000000004  0.28057  0.9762599999999999  1.0000
  C   C98       1.0  0.47004  0.27628  0.05099  1.0000
  C   C99       1.0  0.9596200000000001  0.78057  0.9762599999999999  1.0000
  C   C100      1.0  0.9700400000000001  0.7762800000000001  0.05099  1.0000
  C   C101      1.0  0.47731000000000007  0.05252999999999999  0.04578  1.0000
  C   C102      1.0  0.4616100000000001  0.05414  0.9747699999999999  1.0000
  C   C103      1.0  0.9773100000000001  0.55253  0.04578  1.0000
  C   C104      1.0  0.9616100000000001  0.55414  0.9747699999999999  1.0000
  Cr  Cr1       1.0  0.7720000000000002  0.16964  0.25011  1.0000
  Cr  Cr2       1.0  0.228  0.16964  0.74989  1.0000
  Cr  Cr3       1.0  0.272  0.66964  0.25011  1.0000
  Cr  Cr4       1.0  0.728  0.66964  0.74989  1.0000
  Cr  Cr5       1.0  0.61496  0.32335  0.24926000000000004  1.0000
  Cr  Cr6       1.0  0.38504  0.32335  0.75074  1.0000
  Cr  Cr7       1.0  0.11496  0.82335  0.24926000000000004  1.0000
  Cr  Cr8       1.0  0.8850400000000002  0.82335  0.75074  1.0000
  Cr  Cr9       1.0  0.61667  0.01062  0.25084  1.0000
  Cr  Cr10      1.0  0.38333  0.01062  0.74916  1.0000
  Cr  Cr11      1.0  0.11667  0.51062  0.25084  1.0000
  Cr  Cr12      1.0  0.8833300000000001  0.51062  0.74916  1.0000
  H   H1        1.0  0.48649  0.9633399999999999  0.07009  1.0000
  H   H2        1.0  0.45725  0.96596  0.9481299999999999  1.0000
  H   H3        1.0  0.9864900000000001  0.46334  0.07009  1.0000
  H   H4        1.0  0.95725  0.46596  0.9481299999999999  1.0000
  H   H5        1.0  0.8385500000000001  0.06276  0.44475000000000003  1.0000
  H   H6        1.0  0.1698  0.08029  0.55246  1.0000
  H   H7        1.0  0.33855000000000013  0.56276  0.44475000000000003  1.0000
  H   H8        1.0  0.6698000000000001  0.58029  0.55246  1.0000
  H   H9        1.0  0.8407900000000001  0.04584  0.57046  1.0000
  H   H10       1.0  0.16807  0.060689999999999994  0.42629  1.0000
  H   H11       1.0  0.3408  0.54584  0.57046  1.0000
  H   H12       1.0  0.6680700000000002  0.5607  0.42629  1.0000
  H   H13       1.0  0.66244  0.7977399999999999  0.56363  1.0000
  H   H14       1.0  0.33363  0.78724  0.43745  1.0000
  H   H15       1.0  0.16244000000000003  0.29774  0.56363  1.0000
  H   H16       1.0  0.83363  0.28724  0.43745  1.0000
  H   H17       1.0  0.6576500000000001  0.82028  0.43451  1.0000
  H   H18       1.0  0.3395  0.81466  0.56613  1.0000
  H   H19       1.0  0.15765  0.32028  0.43451  1.0000
  H   H20       1.0  0.8395  0.31466  0.56613  1.0000
  H   H21       1.0  0.45342  0.41765  0.8891099999999998  1.0000
  H   H22       1.0  0.4629400000000001  0.38392  0.14886  1.0000
  H   H23       1.0  0.95342  0.91765  0.8891099999999998  1.0000
  H   H24       1.0  0.9629400000000001  0.88392  0.14886  1.0000
  H   H25       1.0  0.95195  0.0967  0.96047  1.0000
  H   H26       1.0  0.95433  0.08312  0.09073  1.0000
  H   H27       1.0  0.4519500000000001  0.5967  0.96047  1.0000
  H   H28       1.0  0.45433  0.58312  0.09073  1.0000
  H   H29       1.0  0.67575  0.7880399999999999  0.07236  1.0000
  H   H30       1.0  0.3550800000000001  0.8512699999999999  0.9356799999999998  1.0000
  H   H31       1.0  0.17575  0.28804  0.07236  1.0000
  H   H32       1.0  0.8550800000000001  0.35127  0.9356799999999998  1.0000
  H   H33       1.0  0.68272  0.75455  0.94427  1.0000
  H   H34       1.0  0.3461600000000001  0.83152  0.0647  1.0000
  H   H35       1.0  0.18272  0.25455  0.94427  1.0000
  H   H36       1.0  0.84616  0.33152  0.0647  1.0000
  H   H37       1.0  0.81415  0.07859  0.9236099999999999  1.0000
  H   H38       1.0  0.12882000000000002  0.9499600000000001  0.05216  1.0000
  H   H39       1.0  0.31415  0.57859  0.9236099999999999  1.0000
  H   H40       1.0  0.6288200000000003  0.44996  0.05216  1.0000
  H   H41       1.0  0.8097900000000002  0.10794999999999999  0.05025  1.0000
  H   H42       1.0  0.13803  0.96977  0.9263800000000001  1.0000
  H   H43       1.0  0.30979  0.60795  0.05025  1.0000
  H   H44       1.0  0.63803  0.46976999999999997  0.9263800000000001  1.0000
  H   H45       1.0  0.56125  0.9709500000000001  0.45308  1.0000
  H   H46       1.0  0.52899  0.97125  0.57558  1.0000
  H   H47       1.0  0.061250000000000006  0.47095  0.45308  1.0000
  H   H48       1.0  0.02899  0.47125  0.57558  1.0000
  O   O1        1.0  0.78754  0.04269  0.17047  1.0000
  O   O2        1.0  0.21246000000000004  0.04269  0.82953  1.0000
  O   O3        1.0  0.28754  0.54269  0.17047  1.0000
  O   O4        1.0  0.71246  0.54269  0.82953  1.0000
  O   O5        1.0  0.5565400000000001  0.25292  0.32397  1.0000
  O   O6        1.0  0.44346000000000013  0.25292  0.67603  1.0000
  O   O7        1.0  0.05654  0.75292  0.32397  1.0000
  O   O8        1.0  0.9434600000000001  0.75292  0.67603  1.0000
  O   O9        1.0  0.54587  0.0511  0.33084  1.0000
  O   O10       1.0  0.4541300000000001  0.0511  0.66916  1.0000
  O   O11       1.0  0.045870000000000015  0.5511  0.33084  1.0000
  O   O12       1.0  0.9541300000000001  0.5511  0.66916  1.0000
  O   O13       1.0  0.6813400000000002  0.9593  0.32551  1.0000
  O   O14       1.0  0.31866000000000005  0.9593  0.67449  1.0000
  O   O15       1.0  0.18134000000000003  0.45929999999999993  0.32551  1.0000
  O   O16       1.0  0.81866  0.45929999999999993  0.67449  1.0000
  O   O17       1.0  0.66788  0.16787  0.25007  1.0000
  O   O18       1.0  0.33212  0.16787  0.74993  1.0000
  O   O19       1.0  0.16788000000000006  0.66787  0.25007  1.0000
  O   O20       1.0  0.8321200000000001  0.66787  0.74993  1.0000
  O   O21       1.0  0.7656600000000001  0.29216  0.17505  1.0000
  O   O22       1.0  0.23434000000000002  0.29216  0.82495  1.0000
  O   O23       1.0  0.26566  0.79216  0.17505  1.0000
  O   O24       1.0  0.73434  0.79216  0.82495  1.0000
  O   O25       1.0  0.67019  0.40898000000000007  0.16855  1.0000
  O   O26       1.0  0.3298100000000001  0.40898000000000007  0.83145  1.0000
  O   O27       1.0  0.17019  0.90898  0.16855  1.0000
  O   O28       1.0  0.82981  0.90898  0.83145  1.0000
  O   O29       1.0  0.55658  0.25145  0.17516  1.0000
  O   O30       1.0  0.44342  0.25145  0.82484  1.0000
  O   O31       1.0  0.05658  0.75145  0.17516  1.0000
  O   O32       1.0  0.94342  0.75145  0.82484  1.0000
  O   O33       1.0  0.5459200000000001  0.04951  0.17032  1.0000
  O   O34       1.0  0.45408000000000004  0.04951  0.82968  1.0000
  O   O35       1.0  0.04592  0.54951  0.17032  1.0000
  O   O36       1.0  0.9540800000000002  0.54951  0.82968  1.0000
  O   O37       1.0  0.68139  0.9578399999999999  0.17671  1.0000
  O   O38       1.0  0.31861  0.9578399999999999  0.82329  1.0000
  O   O39       1.0  0.18139000000000005  0.45784  0.17671  1.0000
  O   O40       1.0  0.81861  0.45784  0.82329  1.0000
  O   O41       1.0  0.7875  0.04428  0.33099  1.0000
  O   O42       1.0  0.2125  0.04428  0.66901  1.0000
  O   O43       1.0  0.2875  0.54428  0.33099  1.0000
  O   O44       1.0  0.7125  0.54428  0.66901  1.0000
  O   O45       1.0  0.76561  0.29363  0.32386  1.0000
  O   O46       1.0  0.23439  0.29363  0.67614  1.0000
  O   O47       1.0  0.26561  0.79363  0.32386  1.0000
  O   O48       1.0  0.7343900000000002  0.79363  0.67614  1.0000
  O   O49       1.0  0.67014  0.41056999999999994  0.32908  1.0000
  O   O50       1.0  0.32986  0.41056999999999994  0.67092  1.0000
  O   O51       1.0  0.17014  0.91057  0.32908  1.0000
  O   O52       1.0  0.82986  0.91057  0.67092  1.0000
  I   I1        1.0  0.51573  0.45563999999999993  0.60151  1.0000
  I   I2        1.0  0.5118700000000002  0.45246  0.4156  1.0000
  I   I3        1.0  0.01573  0.95564  0.60151  1.0000
  I   I4        1.0  0.01187  0.95246  0.4156  1.0000
