data_image0
_chemical_formula_structural       O6C2O4C2O4V2O2C2O2C2V2O2C18H10C4H4C4H2C4H2C4H2C18H10CNCN
_chemical_formula_sum              "O20 C62 V4 H30 N2"
_cell_length_a       6.94257
_cell_length_b       14.79736
_cell_length_c       21.32298
_cell_angle_alpha    74.775
_cell_angle_beta     90.05508999999999
_cell_angle_gamma    90.63875

_space_group_name_H-M_alt    "P 1"
_space_group_IT_number       1

loop_
  _space_group_symop_operation_xyz
  'x, y, z'

loop_
  _atom_site_type_symbol
  _atom_site_label
  _atom_site_symmetry_multiplicity
  _atom_site_fract_x
  _atom_site_fract_y
  _atom_site_fract_z
  _atom_site_occupancy
  O   O1        1.0  0.64815  0.13005000000000005  0.2143  1.0000
  O   O2        1.0  0.35185  0.8699499999999999  0.7857  1.0000
  O   O3        1.0  0.32049  0.006660000000000007  0.34015  1.0000
  O   O4        1.0  0.67951  0.9933400000000002  0.6598500000000002  1.0000
  O   O5        1.0  0.1461  0.8699399999999999  0.28570000000000007  1.0000
  O   O6        1.0  0.8539  0.13006  0.7143  1.0000
  C   C1        1.0  0.48865  0.0014299999999999868  0.36709  1.0000
  C   C2        1.0  0.51135  0.99857  0.63291  1.0000
  O   O7        1.0  0.31869  0.13797999999999996  0.21812  1.0000
  O   O8        1.0  0.6813099999999999  0.86202  0.78188  1.0000
  O   O9        1.0  0.14428  0.002189999999999996  0.1628  1.0000
  O   O10       1.0  0.85572  0.9978099999999999  0.8372000000000002  1.0000
  C   C3        1.0  0.48866  0.17555  0.20596  1.0000
  C   C4        1.0  0.51135  0.82446  0.7940400000000001  1.0000
  O   O11       1.0  0.64996  0.9977899999999998  0.3372  1.0000
  O   O12       1.0  0.35004  0.0022100000000000288  0.6628  1.0000
  O   O13       1.0  0.47929999999999995  0.9552899999999999  0.23199000000000003  1.0000
  O   O14       1.0  0.5207  0.04471000000000001  0.76801  1.0000
  V   V1        1.0  0.20604  0.00829  0.25334  1.0000
  V   V2        1.0  0.7939599999999999  0.9917099999999999  0.7466600000000001  1.0000
  O   O15       1.0  0.81432  0.99332  0.15985000000000002  1.0000
  O   O16       1.0  0.18568  0.006679999999999994  0.8401500000000001  1.0000
  C   C5        1.0  0.98314  0.99837  0.13284000000000004  1.0000
  C   C6        1.0  0.01686  0.001629999999999919  0.8671600000000002  1.0000
  O   O17       1.0  0.81612  0.862  0.28188  1.0000
  O   O18       1.0  0.18388  0.138  0.71812  1.0000
  C   C7        1.0  0.98406  0.8245  0.29413  1.0000
  C   C8        1.0  0.015939999999999996  0.17549999999999993  0.7058700000000001  1.0000
  V   V3        1.0  0.70554  0.9917000000000001  0.24666  1.0000
  V   V4        1.0  0.29446  0.00830000000000004  0.75334  1.0000
  O   O19       1.0  0.98215  0.04469999999999998  0.26801  1.0000
  O   O20       1.0  0.017849999999999998  0.9552999999999999  0.7319900000000001  1.0000
  C   C9        1.0  0.99014  0.72334  0.32194  1.0000
  C   C10       1.0  0.009860000000000002  0.2766600000000001  0.67806  1.0000
  C   C11       1.0  0.99307  0.56664  0.3085  1.0000
  C   C12       1.0  0.006930000000000002  0.4333600000000001  0.6915  1.0000
  C   C13       1.0  0.98868  0.66301  0.28152  1.0000
  C   C14       1.0  0.01132  0.33699  0.7184800000000001  1.0000
  C   C15       1.0  0.9943  0.68755  0.38947000000000004  1.0000
  C   C16       1.0  0.0057  0.31245  0.61053  1.0000
  C   C17       1.0  0.9965  0.58976  0.41838  1.0000
  C   C18       1.0  0.0035000000000000005  0.41024  0.58162  1.0000
  C   C19       1.0  0.99725  0.52966  0.37626  1.0000
  C   C20       1.0  0.0027499999999999985  0.47034  0.62374  1.0000
  C   C21       1.0  0.99798  0.5498300000000002  0.48728  1.0000
  C   C22       1.0  0.0020100000000000005  0.45017000000000007  0.51272  1.0000
  C   C23       1.0  0.005109999999999998  0.39386  0.4684400000000001  1.0000
  C   C24       1.0  0.99489  0.60614  0.53156  1.0000
  C   C25       1.0  0.0023199999999999974  0.43302999999999997  0.40181000000000006  1.0000
  C   C26       1.0  0.99768  0.56697  0.59819  1.0000
  H   H1        1.0  0.004620000000000001  0.38699  0.36979  1.0000
  H   H2        1.0  0.99538  0.61301  0.63021  1.0000
  H   H3        1.0  0.004829999999999999  0.26172  0.5824  1.0000
  H   H4        1.0  0.99517  0.7382800000000002  0.4176  1.0000
  H   H5        1.0  0.015359999999999999  0.30942  0.77082  1.0000
  H   H6        1.0  0.98464  0.69058  0.22918  1.0000
  H   H7        1.0  0.99279  0.52081  0.27631  1.0000
  H   H8        1.0  0.007210000000000002  0.47919000000000006  0.7236900000000002  1.0000
  H   H9        1.0  0.01005  0.31862  0.48345  1.0000
  H   H10       1.0  0.9899399999999999  0.68138  0.51655  1.0000
  C   C27       1.0  0.82038  0.99469  0.97777  1.0000
  C   C28       1.0  0.17962  0.005319999999999999  0.02223  1.0000
  C   C29       1.0  0.91489  0.92019  0.03393  1.0000
  C   C30       1.0  0.08511  0.07981000000000003  0.96607  1.0000
  H   H11       1.0  0.84469  0.85436  0.06228000000000001  1.0000
  H   H12       1.0  0.15531  0.14564  0.93772  1.0000
  H   H13       1.0  0.67192  0.9903500000000001  0.95927  1.0000
  H   H14       1.0  0.32808  0.009649999999999997  0.040720000000000006  1.0000
  C   C31       1.0  0.99278  0.99893  0.06223  1.0000
  C   C32       1.0  0.00722  0.0010699999999999766  0.9377700000000001  1.0000
  C   C33       1.0  0.89833  0.07344  0.006870000000000001  1.0000
  C   C34       1.0  0.10167  0.92656  0.9931300000000002  1.0000
  H   H15       1.0  0.8142199999999999  0.13395  0.01297  1.0000
  H   H16       1.0  0.18577  0.86605  0.98703  1.0000
  C   C35       1.0  0.6078299999999999  0.07023  0.46613000000000004  1.0000
  C   C36       1.0  0.39216999999999996  0.9297699999999999  0.5338700000000001  1.0000
  C   C37       1.0  0.43146  0.08169  0.50733  1.0000
  C   C38       1.0  0.56854  0.91831  0.49267  1.0000
  H   H17       1.0  0.37632  0.14901999999999996  0.5134500000000001  1.0000
  H   H18       1.0  0.62368  0.8509800000000001  0.48655000000000004  1.0000
  C   C39       1.0  0.50475  0.99925  0.56243  1.0000
  C   C40       1.0  0.49525  0.0007499999999999711  0.43757000000000007  1.0000
  C   C41       1.0  0.68325  0.98896  0.52146  1.0000
  C   C42       1.0  0.3167499999999999  0.01104  0.47854  1.0000
  H   H19       1.0  0.83444  0.98065  0.53892  1.0000
  H   H20       1.0  0.16556  0.019350000000000003  0.46108  1.0000
  C   C43       1.0  0.50338  0.27675  0.17828  1.0000
  C   C44       1.0  0.49662  0.72325  0.8217200000000001  1.0000
  C   C45       1.0  0.5997  0.4293300000000001  0.1885  1.0000
  C   C46       1.0  0.4003  0.57067  0.8115  1.0000
  C   C47       1.0  0.56881  0.33421  0.21644  1.0000
  C   C48       1.0  0.43119  0.66579  0.7835600000000001  1.0000
  C   C49       1.0  0.46945  0.31428  0.11191  1.0000
  C   C50       1.0  0.53055  0.6857200000000001  0.88809  1.0000
  C   C51       1.0  0.50405  0.41046  0.08176  1.0000
  C   C52       1.0  0.49595  0.58954  0.91824  1.0000
  C   C53       1.0  0.5697  0.46765  0.12169000000000002  1.0000
  C   C54       1.0  0.4303  0.53235  0.87831  1.0000
  C   C55       1.0  0.47922999999999993  0.45123  0.0135  1.0000
  C   C56       1.0  0.52077  0.5487699999999999  0.9865  1.0000
  C   C57       1.0  0.58486  0.60228  0.02868  1.0000
  C   C58       1.0  0.41513999999999995  0.39771  0.97132  1.0000
  C   C59       1.0  0.60808  0.5624  0.09473  1.0000
  C   C60       1.0  0.39192  0.43760000000000016  0.90527  1.0000
  H   H21       1.0  0.65843  0.60631  0.12502  1.0000
  H   H22       1.0  0.34157  0.39369000000000004  0.87498  1.0000
  H   H23       1.0  0.57791  0.73442  0.91473  1.0000
  H   H24       1.0  0.42209  0.26559  0.08527  1.0000
  H   H25       1.0  0.40221  0.69485  0.73231  1.0000
  H   H26       1.0  0.59779  0.30515  0.26769  1.0000
  H   H27       1.0  0.65077  0.47279  0.21897  1.0000
  H   H28       1.0  0.34922999999999993  0.52721  0.78103  1.0000
  H   H29       1.0  0.61962  0.67577  0.012410000000000001  1.0000
  H   H30       1.0  0.38038  0.32422999999999996  0.98759  1.0000
  C   C61       1.0  0.72816  0.14743999999999996  0.42830000000000007  1.0000
  N   N1        1.0  0.8232  0.20816000000000012  0.39829  1.0000
  C   C62       1.0  0.27184  0.85256  0.5717  1.0000
  N   N2        1.0  0.1768  0.79184  0.60171  1.0000
