data_image0
_chemical_formula_structural       C144Cr12H96N16O52
_chemical_formula_sum              "C144 Cr12 H96 N16 O52"
_cell_length_a       11.20535
_cell_length_b       19.25954
_cell_length_c       18.73667
_cell_angle_alpha    89.97595
_cell_angle_beta     89.89172000000002
_cell_angle_gamma    90.00024

_space_group_name_H-M_alt    "P 1"
_space_group_IT_number       1

loop_
  _space_group_symop_operation_xyz
  'x, y, z'

loop_
  _atom_site_type_symbol
  _atom_site_label
  _atom_site_symmetry_multiplicity
  _atom_site_fract_x
  _atom_site_fract_y
  _atom_site_fract_z
  _atom_site_occupancy
  C   C1        1.0  0.31842  0.95866  0.64227  1.0000
  C   C2        1.0  0.14792  0.69663  0.02298  1.0000
  C   C3        1.0  0.011590000000000001  0.20642000000000005  0.97737  1.0000
  C   C4        1.0  0.60858  0.31163  0.46495999999999993  1.0000
  C   C5        1.0  0.61533  0.3079900000000001  0.02874  1.0000
  C   C6        1.0  0.53815  0.6928600000000003  0.5246  1.0000
  C   C7        1.0  0.51159  0.7064200000000003  0.97737  1.0000
  C   C8        1.0  0.20455000000000004  0.77184  0.50886  1.0000
  C   C9        1.0  0.19473  0.75976  0.98321  1.0000
  C   C10       1.0  0.17032  0.18159  0.50303  1.0000
  C   C11       1.0  0.1388  0.21756000000000006  0.00735  1.0000
  C   C12       1.0  0.70455  0.27184  0.50886  1.0000
  C   C13       1.0  0.20531  0.24211000000000005  0.55175  1.0000
  C   C14       1.0  0.69473  0.25976  0.98321  1.0000
  C   C15       1.0  0.67032  0.68159  0.50303  1.0000
  C   C16       1.0  0.6388  0.71756  0.00735  1.0000
  C   C17       1.0  0.10778  0.75386  0.56527  1.0000
  C   C18       1.0  0.09311000000000001  0.7500400000000002  0.92967  1.0000
  C   C19       1.0  0.15357  0.23464  0.44132999999999994  1.0000
  C   C20       1.0  0.08319  0.25292  0.07294  1.0000
  C   C21       1.0  0.60778  0.25386  0.56527  1.0000
  C   C22       1.0  0.59311  0.25004  0.92967  1.0000
  C   C23       1.0  0.65357  0.73464  0.44132999999999994  1.0000
  C   C24       1.0  0.14316  0.28861  0.9721  1.0000
  C   C25       1.0  0.58319  0.7529200000000003  0.07294  1.0000
  C   C26       1.0  0.013259999999999996  0.7939100000000001  0.52238  1.0000
  C   C27       1.0  0.01429  0.7987100000000001  0.9733199999999999  1.0000
  C   C28       1.0  0.022359999999999998  0.24555000000000002  0.46248999999999996  1.0000
  C   C29       1.0  0.95716  0.24210000000000007  0.04472  1.0000
  C   C30       1.0  0.51326  0.29391  0.52238  1.0000
  C   C31       1.0  0.51429  0.29871000000000003  0.9733199999999999  1.0000
  C   C32       1.0  0.52236  0.7455400000000002  0.46248999999999996  1.0000
  C   C33       1.0  0.45716000000000007  0.7421  0.04472  1.0000
  C   C34       1.0  0.98365  0.7259500000000002  0.48289999999999994  1.0000
  C   C35       1.0  0.67053  0.20477  0.46997  1.0000
  C   C36       1.0  0.96779  0.7342600000000001  0.01416  1.0000
  C   C37       1.0  0.06177  0.30577  0.51121  1.0000
  C   C38       1.0  0.96467  0.31379  0.00646  1.0000
  C   C39       1.0  0.48365  0.22595000000000004  0.48289999999999994  1.0000
  C   C40       1.0  0.46779  0.23426000000000002  0.01416  1.0000
  C   C41       1.0  0.56176  0.80577  0.51121  1.0000
  C   C42       1.0  0.4646700000000001  0.81379  0.00646  1.0000
  C   C43       1.0  0.07784  0.68591  0.52646  1.0000
  C   C44       1.0  0.04801  0.6856300000000002  0.96892  1.0000
  C   C45       1.0  0.19393  0.29506  0.49054  1.0000
  C   C46       1.0  0.64792  0.19663  0.02298  1.0000
  C   C47       1.0  0.08982  0.32398  0.03748  1.0000
  C   C48       1.0  0.57784  0.18591  0.52646  1.0000
  C   C49       1.0  0.54801  0.18563000000000004  0.96892  1.0000
  C   C50       1.0  0.69393  0.7950600000000002  0.49054  1.0000
  C   C51       1.0  0.58981  0.82398  0.03748  1.0000
  C   C52       1.0  0.70531  0.7421200000000001  0.55175  1.0000
  C   C53       1.0  0.64316  0.78861  0.9721  1.0000
  C   C54       1.0  0.07807  0.7442000000000002  0.42688  1.0000
  C   C55       1.0  0.06989  0.7436100000000002  0.06874  1.0000
  C   C56       1.0  0.07702  0.25312  0.57198  1.0000
  C   C57       1.0  0.31904  0.96349  0.85508  1.0000
  C   C58       1.0  0.02021  0.27765  0.9400699999999999  1.0000
  C   C59       1.0  0.57807  0.24420000000000006  0.42688  1.0000
  C   C60       1.0  0.56989  0.24361  0.06874  1.0000
  C   C61       1.0  0.57702  0.75313  0.57198  1.0000
  C   C62       1.0  0.52021  0.77765  0.9400699999999999  1.0000
  C   C63       1.0  0.31729  0.005590000000000002  0.42407  1.0000
  C   C64       1.0  0.32549  0.022630000000000004  0.06887999999999998  1.0000
  C   C65       1.0  0.32096  0.97471  0.56736  1.0000
  C   C66       1.0  0.32394  0.98803  0.9268199999999999  1.0000
  C   C67       1.0  0.81729  0.50559  0.42407  1.0000
  C   C68       1.0  0.31793  0.03478  0.35405  1.0000
  C   C69       1.0  0.8254900000000001  0.5226300000000001  0.06887999999999998  1.0000
  C   C70       1.0  0.82096  0.47470000000000007  0.56736  1.0000
  C   C71       1.0  0.82394  0.48803  0.9268199999999999  1.0000
  C   C72       1.0  0.53  0.9727200000000001  0.4181  1.0000
  C   C73       1.0  0.54315  0.99284  0.0697  1.0000
  C   C74       1.0  0.53869  0.0006900000000000003  0.56337  1.0000
  C   C75       1.0  0.5424  0.009950000000000002  0.9228800000000001  1.0000
  C   C76       1.0  0.03  0.47272000000000003  0.4181  1.0000
  C   C77       1.0  0.04315  0.49284  0.0697  1.0000
  C   C78       1.0  0.03869  0.50069  0.56337  1.0000
  C   C79       1.0  0.31928  0.03991  0.14307  1.0000
  C   C80       1.0  0.0424  0.50995  0.9228800000000001  1.0000
  C   C81       1.0  0.64  0.9800700000000002  0.45092  1.0000
  C   C82       1.0  0.6511  0.9905700000000001  0.03177  1.0000
  C   C83       1.0  0.64387  0.0003400000000000002  0.52339  1.0000
  C   C84       1.0  0.65062  0.004660000000000001  0.95826  1.0000
  C   C85       1.0  0.14  0.48007000000000005  0.45092  1.0000
  C   C86       1.0  0.1511  0.49057  0.03177  1.0000
  C   C87       1.0  0.14387  0.50034  0.52339  1.0000
  C   C88       1.0  0.15062  0.50466  0.95826  1.0000
  C   C89       1.0  0.42863  0.9871800000000001  0.53057  1.0000
  C   C90       1.0  0.81842  0.45866  0.64227  1.0000
  C   C91       1.0  0.43382  0.0027100000000000015  0.96005  1.0000
  C   C92       1.0  0.42488  0.9861300000000001  0.45638999999999996  1.0000
  C   C93       1.0  0.43461  0.00589  0.03439  1.0000
  C   C94       1.0  0.9286300000000001  0.48718000000000006  0.53057  1.0000
  C   C95       1.0  0.9338200000000001  0.50271  0.96005  1.0000
  C   C96       1.0  0.9248800000000001  0.48613000000000006  0.45638999999999996  1.0000
  C   C97       1.0  0.93461  0.50589  0.03439  1.0000
  C   C98       1.0  0.21222  0.9722000000000002  0.52868  1.0000
  C   C99       1.0  0.21729  0.9891000000000001  0.9672400000000001  1.0000
  C   C100      1.0  0.20926000000000003  0.0058  0.46447  1.0000
  C   C101      1.0  0.8190400000000001  0.46349000000000007  0.85508  1.0000
  C   C102      1.0  0.21899  0.026400000000000003  0.02866  1.0000
  C   C103      1.0  0.71222  0.4722  0.52868  1.0000
  C   C104      1.0  0.71729  0.4891  0.9672400000000001  1.0000
  C   C105      1.0  0.70926  0.5058  0.46447  1.0000
  C   C106      1.0  0.7189899999999999  0.5264  0.02866  1.0000
  C   C107      1.0  0.10383999999999999  0.9431500000000002  0.55286  1.0000
  C   C108      1.0  0.1088  0.95542  0.9504699999999999  1.0000
  C   C109      1.0  0.09866  0.03863  0.44655  1.0000
  C   C110      1.0  0.1107  0.05857  0.04922  1.0000
  C   C111      1.0  0.60384  0.44315000000000004  0.55286  1.0000
  C   C112      1.0  0.81793  0.53478  0.35405  1.0000
  C   C113      1.0  0.6088  0.4554300000000001  0.9504699999999999  1.0000
  C   C114      1.0  0.59866  0.53863  0.44655  1.0000
  C   C115      1.0  0.6107  0.55857  0.04922  1.0000
  C   C116      1.0  0.99569  0.96637  0.52834  1.0000
  C   C117      1.0  0.0021999999999999997  0.97742  0.9797700000000001  1.0000
  C   C118      1.0  0.99408  0.01980000000000001  0.47982  1.0000
  C   C119      1.0  0.0027  0.03417000000000001  0.02471  1.0000
  C   C120      1.0  0.49569  0.4663600000000001  0.52834  1.0000
  C   C121      1.0  0.5022  0.4774200000000001  0.9797700000000001  1.0000
  C   C122      1.0  0.49408  0.5198  0.47982  1.0000
  C   C123      1.0  0.81928  0.5399000000000003  0.14307  1.0000
  C   C124      1.0  0.5027  0.53417  0.02471  1.0000
  C   C125      1.0  0.13806  0.75891  0.64179  1.0000
  C   C126      1.0  0.13157  0.75708  0.8551900000000001  1.0000
  C   C127      1.0  0.18375  0.22853  0.36399  1.0000
  C   C128      1.0  0.13376  0.24224000000000004  0.14407  1.0000
  C   C129      1.0  0.63806  0.25891000000000003  0.64179  1.0000
  C   C130      1.0  0.63157  0.25708000000000003  0.8551900000000001  1.0000
  C   C131      1.0  0.68375  0.7285300000000002  0.36399  1.0000
  C   C132      1.0  0.63377  0.74224  0.14407  1.0000
  C   C133      1.0  0.53772  0.7711600000000002  0.64349  1.0000
  C   C134      1.0  0.17053  0.7047700000000001  0.46997  1.0000
  C   C135      1.0  0.49661  0.7883700000000001  0.86272  1.0000
  C   C136      1.0  0.54436  0.2309  0.35362  1.0000
  C   C137      1.0  0.54109  0.22999  0.14409  1.0000
  C   C138      1.0  0.03772  0.27116000000000007  0.64349  1.0000
  C   C139      1.0  0.99661  0.28837  0.86272  1.0000
  C   C140      1.0  0.04436  0.7309000000000002  0.35362  1.0000
  C   C141      1.0  0.04109  0.72999  0.14409  1.0000
  C   C142      1.0  0.10858000000000001  0.8116300000000002  0.46495999999999993  1.0000
  C   C143      1.0  0.11533  0.80799  0.02874  1.0000
  C   C144      1.0  0.03815  0.19286  0.5246  1.0000
  Cr  Cr1       1.0  0.48816  0.8846600000000001  0.75  1.0000
  Cr  Cr2       1.0  0.33341  0.27274000000000004  0.25  1.0000
  Cr  Cr3       1.0  0.83341  0.22726000000000002  0.75  1.0000
  Cr  Cr4       1.0  0.83341  0.7727400000000001  0.25  1.0000
  Cr  Cr5       1.0  0.48816  0.11534  0.25  1.0000
  Cr  Cr6       1.0  0.98816  0.38466  0.75  1.0000
  Cr  Cr7       1.0  0.98816  0.6153400000000002  0.25  1.0000
  Cr  Cr8       1.0  0.17348  0.8831200000000001  0.75  1.0000
  Cr  Cr9       1.0  0.17348  0.11688  0.25  1.0000
  Cr  Cr10      1.0  0.67348  0.38312  0.75  1.0000
  Cr  Cr11      1.0  0.67348  0.61688  0.25  1.0000
  Cr  Cr12      1.0  0.33341  0.72726  0.75  1.0000
  H   H1        1.0  0.29588  0.79044  0.52118  1.0000
  H   H2        1.0  0.9214699999999999  0.9508000000000001  0.9661299999999999  1.0000
  H   H3        1.0  0.91338  0.046150000000000004  0.46656  1.0000
  H   H4        1.0  0.92208  0.057620000000000005  0.04394  1.0000
  H   H5        1.0  0.4155400000000001  0.44361  0.54919  1.0000
  H   H6        1.0  0.42147  0.4508  0.9661299999999999  1.0000
  H   H7        1.0  0.41337999999999997  0.54615  0.46656  1.0000
  H   H8        1.0  0.42208000000000007  0.55762  0.04394  1.0000
  H   H9        1.0  0.12130999999999999  0.8611800000000001  0.43576  1.0000
  H   H10       1.0  0.14492  0.8565  0.05525  1.0000
  H   H11       1.0  0.9775299999999999  0.15169  0.54425  1.0000
  H   H12       1.0  0.28209  0.7666000000000001  0.9586899999999999  1.0000
  H   H13       1.0  0.9773900000000001  0.15858  0.9516100000000001  1.0000
  H   H14       1.0  0.62131  0.36118  0.43576  1.0000
  H   H15       1.0  0.64492  0.3565  0.05525  1.0000
  H   H16       1.0  0.47753  0.6516900000000001  0.54425  1.0000
  H   H17       1.0  0.47739  0.6585800000000003  0.9516100000000001  1.0000
  H   H18       1.0  0.94489  0.82917  0.54378  1.0000
  H   H19       1.0  0.96692  0.83831  0.94243  1.0000
  H   H20       1.0  0.9479599999999999  0.24929000000000004  0.42391999999999996  1.0000
  H   H21       1.0  0.88604  0.22585  0.08193  1.0000
  H   H22       1.0  0.44489  0.32917  0.54378  1.0000
  H   H23       1.0  0.22702  0.13481  0.50316  1.0000
  H   H24       1.0  0.46692  0.33831000000000006  0.94243  1.0000
  H   H25       1.0  0.44796  0.7492900000000001  0.42391999999999996  1.0000
  H   H26       1.0  0.38604  0.7258500000000002  0.08193  1.0000
  H   H27       1.0  0.89584  0.70516  0.46741  1.0000
  H   H28       1.0  0.8757000000000001  0.72538  0.03225  1.0000
  H   H29       1.0  0.01375  0.35557  0.51678  1.0000
  H   H30       1.0  0.8953399999999999  0.35493  0.0062  1.0000
  H   H31       1.0  0.39583999999999997  0.20516000000000006  0.46741  1.0000
  H   H32       1.0  0.37570000000000003  0.22538000000000002  0.03225  1.0000
  H   H33       1.0  0.51375  0.8555700000000002  0.51678  1.0000
  H   H34       1.0  0.20906  0.17738000000000004  0.00439  1.0000
  H   H35       1.0  0.39534  0.8549300000000001  0.0062  1.0000
  H   H36       1.0  0.06139  0.6359700000000003  0.55345  1.0000
  H   H37       1.0  0.01567  0.63886  0.94156  1.0000
  H   H38       1.0  0.2601  0.3354700000000001  0.47675  1.0000
  H   H39       1.0  0.12286  0.3672500000000001  0.0694  1.0000
  H   H40       1.0  0.56139  0.13597  0.55345  1.0000
  H   H41       1.0  0.51567  0.13886  0.94156  1.0000
  H   H42       1.0  0.7600999999999999  0.8354700000000003  0.47675  1.0000
  H   H43       1.0  0.62286  0.8672500000000001  0.0694  1.0000
  H   H44       1.0  0.52767  0.9594200000000002  0.36198  1.0000
  H   H45       1.0  0.79588  0.29044  0.52118  1.0000
  H   H46       1.0  0.54595  0.98087  0.1259  1.0000
  H   H47       1.0  0.54458  0.01662  0.61849  1.0000
  H   H48       1.0  0.54516  0.023490000000000007  0.8669199999999999  1.0000
  H   H49       1.0  0.02767  0.45942000000000005  0.36198  1.0000
  H   H50       1.0  0.04594999999999999  0.4808700000000001  0.1259  1.0000
  H   H51       1.0  0.04458  0.51662  0.61849  1.0000
  H   H52       1.0  0.04516  0.52349  0.8669199999999999  1.0000
  H   H53       1.0  0.08935  0.08237000000000001  0.41144  1.0000
  H   H54       1.0  0.10707999999999998  0.10116  0.08503  1.0000
  H   H55       1.0  0.10032000000000002  0.9018  0.58988  1.0000
  H   H56       1.0  0.7820899999999998  0.2666  0.9586899999999999  1.0000
  H   H57       1.0  0.10539  0.91091  0.9167499999999998  1.0000
  H   H58       1.0  0.58935  0.58237  0.41144  1.0000
  H   H59       1.0  0.60708  0.60116  0.08503  1.0000
  H   H60       1.0  0.60032  0.4018  0.58988  1.0000
  H   H61       1.0  0.60539  0.4109100000000001  0.9167499999999998  1.0000
  H   H62       1.0  0.31874  0.64683  0.47629999999999995  1.0000
  H   H63       1.0  0.29317  0.6786600000000003  0.39449  1.0000
  H   H64       1.0  0.26819  0.62113  0.00639  1.0000
  H   H65       1.0  0.18128  0.60919  0.07938  1.0000
  H   H66       1.0  0.32119  0.28688  0.62321  1.0000
  H   H67       1.0  0.72703  0.63481  0.50316  1.0000
  H   H68       1.0  0.36069000000000007  0.20458000000000007  0.59676  1.0000
  H   H69       1.0  0.29575  0.33617  0.98156  1.0000
  H   H70       1.0  0.22149  0.3642600000000001  0.9132999999999999  1.0000
  H   H71       1.0  0.81874  0.14683  0.47629999999999995  1.0000
  H   H72       1.0  0.79317  0.17866  0.39449  1.0000
  H   H73       1.0  0.76819  0.12113  0.00639  1.0000
  H   H74       1.0  0.68128  0.10919000000000001  0.07938  1.0000
  H   H75       1.0  0.82119  0.7868900000000001  0.62321  1.0000
  H   H76       1.0  0.86069  0.7045800000000002  0.59676  1.0000
  H   H77       1.0  0.79575  0.8361700000000001  0.98156  1.0000
  H   H78       1.0  0.70906  0.67738  0.00439  1.0000
  H   H79       1.0  0.72149  0.8642600000000003  0.9132999999999999  1.0000
  H   H80       1.0  0.7748400000000001  0.02021  0.39254  1.0000
  H   H81       1.0  0.8080200000000001  0.9435100000000002  0.4354700000000001  1.0000
  H   H82       1.0  0.74739  0.9799700000000002  0.12438999999999999  1.0000
  H   H83       1.0  0.79088  0.92888  0.05702  1.0000
  H   H84       1.0  0.7606000000000002  0.9935000000000002  0.60427  1.0000
  H   H85       1.0  0.7422500000000001  0.07389  0.57203  1.0000
  H   H86       1.0  0.7556499999999999  0.06475  0.8961000000000001  1.0000
  H   H87       1.0  0.7614000000000001  0.97951  0.87727  1.0000
  H   H88       1.0  0.27484  0.52021  0.39254  1.0000
  H   H89       1.0  0.91554  0.9436100000000001  0.54919  1.0000
  H   H90       1.0  0.30801  0.44351  0.4354700000000001  1.0000
  H   H91       1.0  0.24738999999999997  0.4799700000000001  0.12438999999999999  1.0000
  H   H92       1.0  0.29088  0.42889  0.05702  1.0000
  H   H93       1.0  0.2606  0.49350000000000005  0.60427  1.0000
  H   H94       1.0  0.24224999999999997  0.57389  0.57203  1.0000
  H   H95       1.0  0.25565  0.56475  0.8961000000000001  1.0000
  H   H96       1.0  0.2614  0.47951  0.87727  1.0000
  N   N1        1.0  0.25276  0.6552100000000002  0.43857000000000007  1.0000
  N   N2        1.0  0.76075  0.9786700000000002  0.06916  1.0000
  N   N3        1.0  0.75153  0.02196  0.557  1.0000
  N   N4        1.0  0.75866  0.01532  0.91914  1.0000
  N   N5        1.0  0.24361999999999998  0.4713100000000001  0.40747  1.0000
  N   N6        1.0  0.26075  0.47867000000000004  0.06916  1.0000
  N   N7        1.0  0.25153  0.52196  0.557  1.0000
  N   N8        1.0  0.25866  0.51532  0.91914  1.0000
  N   N9        1.0  0.22994000000000003  0.6452700000000002  0.05045  1.0000
  N   N10       1.0  0.29047  0.23733000000000004  0.61036  1.0000
  N   N11       1.0  0.24708  0.31829  0.93819  1.0000
  N   N12       1.0  0.75276  0.15521  0.43857000000000007  1.0000
  N   N13       1.0  0.7299400000000001  0.14527  0.05045  1.0000
  N   N14       1.0  0.79047  0.73734  0.61036  1.0000
  N   N15       1.0  0.74708  0.81829  0.93819  1.0000
  N   N16       1.0  0.74362  0.9713100000000002  0.40747  1.0000
  O   O1        1.0  0.57545  0.82882  0.66795  1.0000
  O   O2        1.0  0.41686  0.9428900000000001  0.82532  1.0000
  O   O3        1.0  0.41686  0.05711  0.32532  1.0000
  O   O4        1.0  0.41686  0.05711  0.17468  1.0000
  O   O5        1.0  0.91686  0.44289  0.67468  1.0000
  O   O6        1.0  0.91686  0.44289  0.82532  1.0000
  O   O7        1.0  0.91686  0.5571100000000002  0.32532  1.0000
  O   O8        1.0  0.91686  0.5571100000000002  0.17468  1.0000
  O   O9        1.0  0.21379  0.9536800000000001  0.6683299999999999  1.0000
  O   O10       1.0  0.21379  0.9536800000000001  0.83167  1.0000
  O   O11       1.0  0.21379  0.04632  0.33167  1.0000
  O   O12       1.0  0.57545  0.82882  0.83205  1.0000
  O   O13       1.0  0.21379  0.04632  0.16833  1.0000
  O   O14       1.0  0.7137899999999999  0.4536800000000001  0.6683299999999999  1.0000
  O   O15       1.0  0.71379  0.4536800000000001  0.83167  1.0000
  O   O16       1.0  0.71379  0.5463200000000001  0.33167  1.0000
  O   O17       1.0  0.71379  0.5463200000000001  0.16833  1.0000
  O   O18       1.0  0.12136  0.81789  0.67266  1.0000
  O   O19       1.0  0.12136  0.81789  0.82734  1.0000
  O   O20       1.0  0.12136  0.18211  0.32734  1.0000
  O   O21       1.0  0.12136  0.18211  0.17266  1.0000
  O   O22       1.0  0.62136  0.31789  0.67266  1.0000
  O   O23       1.0  0.57545  0.17118  0.33205  1.0000
  O   O24       1.0  0.62136  0.31789  0.82734  1.0000
  O   O25       1.0  0.62136  0.6821100000000001  0.32734  1.0000
  O   O26       1.0  0.62136  0.6821100000000001  0.17266  1.0000
  O   O27       1.0  0.20685  0.71137  0.66582  1.0000
  O   O28       1.0  0.20685  0.71137  0.83418  1.0000
  O   O29       1.0  0.20685  0.28863  0.33418  1.0000
  O   O30       1.0  0.20685  0.28863  0.16582  1.0000
  O   O31       1.0  0.70685  0.21137000000000003  0.66582  1.0000
  O   O32       1.0  0.70685  0.21137000000000003  0.83418  1.0000
  O   O33       1.0  0.70685  0.7886300000000003  0.33418  1.0000
  O   O34       1.0  0.57545  0.17118  0.16795  1.0000
  O   O35       1.0  0.70685  0.7886300000000003  0.16582  1.0000
  O   O36       1.0  0.45771  0.73319  0.67263  1.0000
  O   O37       1.0  0.45771  0.73319  0.8273699999999999  1.0000
  O   O38       1.0  0.45771  0.26681  0.32737  1.0000
  O   O39       1.0  0.45771  0.26681  0.17263  1.0000
  O   O40       1.0  0.9577100000000001  0.23319000000000004  0.67263  1.0000
  O   O41       1.0  0.9577100000000001  0.23319000000000004  0.8273699999999999  1.0000
  O   O42       1.0  0.9577100000000001  0.7668100000000002  0.32737  1.0000
  O   O43       1.0  0.9577100000000001  0.7668100000000002  0.17263  1.0000
  O   O44       1.0  0.33169  0.83168  0.75  1.0000
  O   O45       1.0  0.07545  0.32882  0.66795  1.0000
  O   O46       1.0  0.33169  0.16832  0.25  1.0000
  O   O47       1.0  0.83169  0.33168000000000003  0.75  1.0000
  O   O48       1.0  0.83169  0.6683200000000002  0.25  1.0000
  O   O49       1.0  0.07545  0.32882  0.83205  1.0000
  O   O50       1.0  0.07545  0.6711800000000001  0.33205  1.0000
  O   O51       1.0  0.07545  0.6711800000000001  0.16795  1.0000
  O   O52       1.0  0.41686  0.9428900000000001  0.67468  1.0000
