data_image0
_chemical_formula_structural       C42Cr6H13O26ClHClH2
_chemical_formula_sum              "C42 Cr6 H16 O26 Cl2"
_cell_length_a       10.61315
_cell_length_b       10.66938
_cell_length_c       16.85222
_cell_angle_alpha    80.86474
_cell_angle_beta     99.20332
_cell_angle_gamma    118.44304

_symmetry_space_group_name_H-M    'P 1'
_symmetry_Int_Tables_number       1

loop_
  _symmetry_equiv_pos_as_xyz
  'x,y,z'

loop_
  _atom_site_type_symbol
  _atom_site_label
  _atom_site_symmetry_multiplicity
  _atom_site_fract_x
  _atom_site_fract_y
  _atom_site_fract_z
  _atom_site_occupancy
  C   C1        1.0  0.38528  0.28661  0.63198  1.0000
  C   C2        1.0  0.51842  0.71062  0.73595  1.0000
  C   C3        1.0  0.49594000000000005  0.7268500000000001  0.8124  1.0000
  C   C4        1.0  0.09809999999999999  0.47917  0.7756200000000002  1.0000
  C   C5        1.0  0.12298000000000008  0.46068000000000003  0.6930000000000002  1.0000
  C   C6        1.0  0.40307000000000004  0.61518  0.6871  1.0000
  C   C7        1.0  0.8525500000000003  0.6703900000000003  0.70212  1.0000
  C   C8        1.0  0.90001  0.70494  0.76905  1.0000
  C   C9        1.0  0.36632999999999993  0.23740000000000003  0.71484  1.0000
  C   C10       1.0  0.33506  0.19002  0.7823  1.0000
  C   C11       1.0  0.31748  0.68509  0.2809500000000001  1.0000
  C   C12       1.0  0.41500999999999993  0.6195  0.60171  1.0000
  C   C13       1.0  0.29633  0.70866  0.20996  1.0000
  C   C14       1.0  0.7907499999999998  0.64396  0.14761  1.0000
  C   C15       1.0  0.77147  0.5178  0.19639  1.0000
  C   C16       1.0  0.7335299999999998  0.49466  0.27323  1.0000
  C   C17       1.0  0.69765  0.7049  0.2497  1.0000
  C   C18       1.0  0.7375599999999999  0.72904  0.17083  1.0000
  C   C19       1.0  0.8729899999999999  0.45432  0.22097000000000006  1.0000
  C   C20       1.0  0.83362  0.4321  0.30572  1.0000
  C   C21       1.0  0.7106999999999999  0.5951500000000001  0.30384  1.0000
  C   C22       1.0  0.25518  0.04028000000000001  0.18126000000000006  1.0000
  C   C23       1.0  0.78227  0.6215700000000001  0.6258  1.0000
  C   C24       1.0  0.14544000000000004  0.04156000000000002  0.21617  1.0000
  C   C25       1.0  0.17404  0.09215999999999999  0.29008  1.0000
  C   C26       1.0  0.39920999999999995  0.08340999999999998  0.31185000000000007  1.0000
  C   C27       1.0  0.37566  0.044379999999999996  0.23283000000000006  1.0000
  C   C28       1.0  0.041139999999999996  0.09963999999999999  0.18637  1.0000
  C   C29       1.0  0.07594000000000001  0.16001000000000004  0.26708  1.0000
  C   C30       1.0  0.30693999999999994  0.12827000000000002  0.33639  1.0000
  C   C31       1.0  0.9492800000000002  0.7254100000000003  0.85171  1.0000
  C   C32       1.0  0.31712999999999997  0.7050699999999999  0.8992  1.0000
  C   C33       1.0  0.28736000000000006  0.12009000000000002  0.85891  1.0000
  C   C34       1.0  0.34877  0.22098  0.40114  1.0000
  C   C35       1.0  0.8808300000000002  0.6879800000000001  0.0817  1.0000
  C   C36       1.0  0.28422  0.73927  0.12543  1.0000
  C   C37       1.0  0.24385999999999997  0.034300000000000004  0.09463  1.0000
  C   C38       1.0  0.36155  0.65798  0.36235  1.0000
  C   C39       1.0  0.69926  0.58207  0.38973  1.0000
  C   C40       1.0  0.3573500000000001  0.6486800000000004  0.83956  1.0000
  C   C41       1.0  0.25574000000000013  0.5317800000000001  0.79848  1.0000
  C   C42       1.0  0.27851000000000004  0.5152300000000002  0.72327  1.0000
  Cr  Cr1       1.0  0.60844  0.38908  0.5196800000000001  1.0000
  Cr  Cr2       1.0  0.28864  0.40009  0.4907599999999999  1.0000
  Cr  Cr3       1.0  0.6029400000000001  0.7108  0.48951000000000006  1.0000
  Cr  Cr4       1.0  0.05253000000000001  0.94756  0.96421  1.0000
  Cr  Cr5       1.0  0.05996999999999996  0.6267999999999999  0.9929200000000001  1.0000
  Cr  Cr6       1.0  0.37332  0.93844  0.9953700000000001  1.0000
  H   H1        1.0  0.62112  0.78147  0.71251  1.0000
  H   H2        1.0  0.8355899999999999  0.35239  0.1939  1.0000
  H   H3        1.0  0.77725  0.31769  0.3281300000000001  1.0000
  H   H4        1.0  0.9255499999999999  0.50028  0.34724  1.0000
  H   H5        1.0  0.4553999999999999  0.026129999999999994  0.2108  1.0000
  H   H6        1.0  0.07403  0.18276  0.13432  1.0000
  H   H7        1.0  0.98286  0.11325999999999997  0.3037900000000001  1.0000
  H   H8        1.0  0.58178  0.8119900000000001  0.84534  1.0000
  H   H9        1.0  0.06466000000000005  0.5635100000000001  0.77396  1.0000
  H   H10       1.0  0.07190000000000002  0.34678000000000003  0.68018  1.0000
  H   H11       1.0  0.10303000000000007  0.5341500000000001  0.64402  1.0000
  H   H12       1.0  0.73796  0.8194100000000001  0.13112  1.0000
  H   H13       1.0  0.98768  0.533  0.21518  1.0000
  O   O1        1.0  0.75402  0.49759000000000003  0.60993  1.0000
  O   O2        1.0  0.2950800000000001  0.5336200000000001  0.39789000000000013  1.0000
  O   O3        1.0  0.48528  0.74662  0.38844  1.0000
  O   O4        1.0  0.7205500000000001  0.69622  0.42001  1.0000
  O   O5        1.0  0.50001  0.49999  0.49998000000000004  1.0000
  O   O6        1.0  0.16332000000000002  0.09289999999999994  0.8744500000000002  1.0000
  O   O7        1.0  0.9346499999999999  0.8220800000000001  0.8828400000000002  1.0000
  O   O8        1.0  0.9155200000000003  0.60414  0.89367  1.0000
  O   O9        1.0  0.19176  0.63811  0.92323  1.0000
  O   O10       1.0  0.4061799999999999  0.8269300000000002  0.92066  1.0000
  O   O11       1.0  0.35862  0.06287000000000001  0.90195  1.0000
  O   O12       1.0  0.48142000000000007  0.27139  0.6006300000000002  1.0000
  O   O13       1.0  0.16391  0.08546  0.05021  1.0000
  O   O14       1.0  0.9352  0.81517  0.04577  1.0000
  O   O15       1.0  0.9161199999999999  0.5966900000000002  0.06943000000000002  1.0000
  O   O16       1.0  0.19230999999999998  0.6312  0.08617  1.0000
  O   O17       1.0  0.40676999999999996  0.81948  0.09642  1.0000
  O   O18       1.0  0.35917  0.05596  0.06488  1.0000
  O   O19       1.0  0.16194000000000014  0.8376000000000003  0.98416  1.0000
  O   O20       1.0  0.26381  0.2545500000000001  0.58959  1.0000
  O   O21       1.0  0.30082000000000003  0.5312  0.5608900000000001  1.0000
  O   O22       1.0  0.49148  0.74402  0.56427  1.0000
  O   O23       1.0  0.72629  0.6937999999999999  0.5830100000000003  1.0000
  O   O24       1.0  0.74783  0.50019  0.43409  1.0000
  O   O25       1.0  0.47568  0.2738  0.43763  1.0000
  O   O26       1.0  0.25762000000000007  0.2571600000000001  0.4137500000000001  1.0000
  Cl  Cl1       1.0  0.5452  0.07845000000000002  0.37576  1.0000
  H   H14       1.0  0.929  0.01432  0.1783  1.0000
  Cl  Cl2       1.0  0.16667999999999997  0.35058  0.2528  1.0000
  H   H15       1.0  0.032220000000000006  0.37605999999999995  0.8103400000000001  1.0000
  H   H16       1.0  0.66851  0.7782300000000002  0.26988  1.0000
