data_image0
_chemical_formula_structural       C42Cl2Cr6H16O29S
_chemical_formula_sum              "C42 Cl2 Cr6 H16 O29 S1"
_cell_length_a       10.66778
_cell_length_b       10.64564
_cell_length_c       16.9223
_cell_angle_alpha    98.60233
_cell_angle_beta     98.54735
_cell_angle_gamma    61.24929000000001

_space_group_name_H-M_alt    "P 1"
_space_group_IT_number       1

loop_
  _space_group_symop_operation_xyz
  'x, y, z'

loop_
  _atom_site_type_symbol
  _atom_site_label
  _atom_site_symmetry_multiplicity
  _atom_site_fract_x
  _atom_site_fract_y
  _atom_site_fract_z
  _atom_site_occupancy
  C   C1        1.0  0.384  0.70519  0.3871600000000001  1.0000
  C   C2        1.0  0.32979  0.675  0.23202000000000006  1.0000
  C   C3        1.0  0.3777199999999999  0.7441300000000001  0.30767  1.0000
  C   C4        1.0  0.3694499999999999  0.34563  0.35926000000000013  1.0000
  C   C5        1.0  0.4947699999999999  0.7452500000000002  0.26503000000000004  1.0000
  C   C6        1.0  0.38521  0.8977  0.24122  1.0000
  C   C7        1.0  0.27018  0.89541  0.28575  1.0000
  C   C8        1.0  0.22171999999999997  0.82638  0.20983000000000004  1.0000
  C   C9        1.0  0.33571999999999985  0.8289400000000002  0.16499000000000005  1.0000
  C   C10       1.0  0.47399999999999987  0.24485  0.7794  1.0000
  C   C11       1.0  0.46442000000000017  0.38396  0.7572700000000002  1.0000
  C   C12       1.0  0.73627  0.3801  0.25217  1.0000
  C   C13       1.0  0.37659  0.36921000000000004  0.67965  1.0000
  C   C14       1.0  0.38721999999999995  0.22990000000000002  0.70158  1.0000
  C   C15       1.0  0.24639999999999984  0.32049  0.74239  1.0000
  C   C16       1.0  0.78198  0.37402  0.4040200000000001  1.0000
  C   C17       1.0  0.23518000000000006  0.46081000000000005  0.7192500000000002  1.0000
  C   C18       1.0  0.32285  0.47389000000000003  0.79898  1.0000
  C   C19       1.0  0.33469  0.33357  0.82068  1.0000
  C   C20       1.0  0.8209899999999997  0.3400100000000001  0.70892  1.0000
  C   C21       1.0  0.8478599999999998  0.31350000000000006  0.7774800000000002  1.0000
  C   C22       1.0  0.3382099999999999  0.8117000000000002  0.70978  1.0000
  C   C23       1.0  0.8417299999999999  0.33672  0.32747  1.0000
  C   C24       1.0  0.31370999999999993  0.83884  0.77863  1.0000
  C   C25       1.0  0.95937  0.2839500000000001  0.1026  1.0000
  C   C26       1.0  0.31828999999999996  0.29845  0.12074000000000001  1.0000
  C   C27       1.0  0.2953699999999999  0.88889  0.08795  1.0000
  C   C28       1.0  0.35650999999999977  0.7712200000000002  0.62723  1.0000
  C   C29       1.0  0.8868699999999999  0.2988200000000001  0.86044  1.0000
  C   C30       1.0  0.3101400000000001  0.29519  0.89325  1.0000
  C   C31       1.0  0.28043  0.8843800000000002  0.8591300000000002  1.0000
  C   C32       1.0  0.4084  0.37825  0.60113  1.0000
  C   C33       1.0  0.77536  0.37873000000000007  0.62922  1.0000
  C   C34       1.0  0.93554  0.18957000000000004  0.28555  1.0000
  C   C35       1.0  0.34156  0.33314  0.27573  1.0000
  C   C36       1.0  0.3296799999999999  0.32292000000000004  0.20452  1.0000
  C   C37       1.0  0.8311999999999999  0.23308  0.20878  1.0000
  C   C38       1.0  0.023739999999999997  0.25432  0.25799  1.0000
  C   C39       1.0  0.9269199999999999  0.40151000000000003  0.30060000000000003  1.0000
  C   C40       1.0  0.8221299999999999  0.44615000000000005  0.22526  1.0000
  C   C41       1.0  0.91749  0.29901  0.18296  1.0000
  C   C42       1.0  0.44492999999999994  0.67759  0.18696  1.0000
  Cl  Cl1       1.0  0.040000000000000056  0.86662  0.17840000000000006  1.0000
  Cl  Cl2       1.0  0.9873099999999999  0.51672  0.36144  1.0000
  Cr  Cr1       1.0  0.6083399999999999  0.61104  0.52043  1.0000
  Cr  Cr2       1.0  0.2876499999999999  0.60112  0.48935  1.0000
  Cr  Cr3       1.0  0.60404  0.28787  0.49028000000000005  1.0000
  Cr  Cr4       1.0  0.054019999999999985  0.05270000000000002  0.9708500000000001  1.0000
  Cr  Cr5       1.0  0.059230000000000026  0.37512  0.9933900000000001  1.0000
  Cr  Cr6       1.0  0.37494999999999995  0.06120000000000003  0.9923400000000001  1.0000
  H   H1        1.0  0.61853  0.42666  0.25295  1.0000
  H   H2        1.0  0.9713499999999998  0.08884000000000003  0.31362  1.0000
  H   H3        1.0  0.14213  0.20393  0.25839  1.0000
  H   H4        1.0  0.7773599999999999  0.55088  0.19955  1.0000
  H   H5        1.0  0.30402000000000007  0.58579  0.22977  1.0000
  H   H6        1.0  0.5144699999999998  0.5907100000000001  0.14407000000000006  1.0000
  H   H7        1.0  0.60609  0.71334  0.29188  1.0000
  H   H8        1.0  0.8531699999999999  0.9815300000000001  0.7741900000000003  1.0000
  H   H9        1.0  0.40801  0.98962  0.24341000000000002  1.0000
  H   H10       1.0  0.2077599999999999  0.9812200000000001  0.33104  1.0000
  H   H11       1.0  0.55286  0.41185  0.7619400000000002  1.0000
  H   H12       1.0  0.41368  0.12945000000000004  0.66145  1.0000
  H   H13       1.0  0.15613999999999997  0.29468  0.73758  1.0000
  H   H14       1.0  0.13718000000000002  0.5499  0.69243  1.0000
  H   H15       1.0  0.29622  0.57276  0.84045  1.0000
  H   H16       1.0  0.79061  0.16503  0.16915000000000005  1.0000
  O   O1        1.0  0.75122  0.49923000000000006  0.43517  1.0000
  O   O2        1.0  0.41298999999999997  0.18075  0.09161000000000002  1.0000
  O   O3        1.0  0.36661999999999983  0.9431300000000001  0.06576000000000003  1.0000
  O   O4        1.0  0.4772200000000001  0.7276  0.4368700000000001  1.0000
  O   O5        1.0  0.16050999999999996  0.90633  0.8792100000000003  1.0000
  O   O6        1.0  0.9301899999999999  0.17905000000000004  0.8894500000000002  1.0000
  O   O7        1.0  0.90914  0.3981700000000001  0.8967100000000002  1.0000
  O   O8        1.0  0.18618999999999997  0.36346000000000017  0.9188300000000003  1.0000
  O   O9        1.0  0.4016699999999999  0.17320000000000005  0.9133100000000002  1.0000
  O   O10       1.0  0.35611999999999994  0.93613  0.90047  1.0000
  O   O11       1.0  0.16274  0.16301000000000002  0.9855300000000001  1.0000
  O   O12       1.0  0.29788  0.46908  0.56005  1.0000
  O   O13       1.0  0.25864999999999994  0.74512  0.41147000000000006  1.0000
  O   O14       1.0  0.29707  0.46724  0.39596  1.0000
  O   O15       1.0  0.4888299999999999  0.25261  0.3877900000000001  1.0000
  O   O16       1.0  0.7244  0.30239000000000005  0.42098000000000013  1.0000
  O   O17       1.0  0.7520999999999993  0.50121  0.6121900000000002  1.0000
  O   O18       1.0  0.47804  0.72944  0.60097  1.0000
  O   O19       1.0  0.25953  0.7471100000000002  0.5884900000000002  1.0000
  O   O20       1.0  0.6862699999999999  0.13805  0.89694  1.0000
  O   O21       1.0  0.6181799999999998  0.9679300000000001  0.8123800000000002  1.0000
  O   O22       1.0  0.7643099999999999  0.06081000000000002  0.7511900000000001  1.0000
  O   O23       1.0  0.48972  0.25459  0.56481  1.0000
  O   O24       1.0  0.7252199999999999  0.30423  0.5850800000000003  1.0000
  O   O25       1.0  0.5000100000000001  0.50001  0.5000200000000002  1.0000
  O   O26       1.0  0.17183000000000004  0.91388  0.05751000000000001  1.0000
  O   O27       1.0  0.94069  0.18605  0.054730000000000015  1.0000
  O   O28       1.0  0.92047  0.40572  0.07501  1.0000
  O   O29       1.0  0.19669  0.37046  0.08412  1.0000
  S   S1        1.0  0.63908  0.09804  0.81318  1.0000
