data_image0
_chemical_formula_structural       C90Cu6F18H12O24
_chemical_formula_sum              "C90 Cu6 F18 H12 O24"
_cell_length_a       16.84587
_cell_length_b       16.79173
_cell_length_c       16.85738
_cell_angle_alpha    67.83889
_cell_angle_beta     67.78563
_cell_angle_gamma    67.84537

_space_group_name_H-M_alt    "P 1"
_space_group_IT_number       1

loop_
  _space_group_symop_operation_xyz
  'x, y, z'

loop_
  _atom_site_type_symbol
  _atom_site_label
  _atom_site_symmetry_multiplicity
  _atom_site_fract_x
  _atom_site_fract_y
  _atom_site_fract_z
  _atom_site_occupancy
  C   C1        1.0  0.027190000000000127  0.8284599999999998  0.56492  1.0000
  C   C2        1.0  0.02693000000000008  0.56503  0.82848  1.0000
  C   C3        1.0  0.1713400000000002  0.9724799999999997  0.43520999999999993  1.0000
  C   C4        1.0  0.8306400000000002  0.016669999999999997  0.56873  1.0000
  C   C5        1.0  0.45582000000000006  0.05831999999999999  0.70734  1.0000
  C   C6        1.0  0.51188  0.031880000000000006  0.27108  1.0000
  C   C7        1.0  0.05833000000000001  0.7073  0.45522  1.0000
  C   C8        1.0  0.9380099999999999  0.2932899999999999  0.5455  1.0000
  C   C9        1.0  0.7428700000000001  0.51144  0.9295  1.0000
  C   C10       1.0  0.29257  0.54927  0.93154  1.0000
  C   C11       1.0  0.2931600000000001  0.93868  0.5446699999999998  1.0000
  C   C12       1.0  0.9725699999999999  0.17154  0.43515  1.0000
  C   C13       1.0  0.7305900000000002  0.9633499999999996  0.4907  1.0000
  C   C14       1.0  0.5494000000000001  0.29522000000000004  0.92646  1.0000
  C   C15       1.0  0.46036  0.7038799999999997  0.05059  1.0000
  C   C16       1.0  0.9412999999999999  0.54598  0.2921599999999999  1.0000
  C   C17       1.0  0.05490000000000009  0.4547299999999998  0.70855  1.0000
  C   C18       1.0  0.5459099999999999  0.0050600000000000185  0.55174  1.0000
  C   C19       1.0  0.45008999999999993  0.98979  0.45556  1.0000
  C   C20       1.0  0.01712000000000004  0.5445999999999998  0.54491  1.0000
  C   C21       1.0  0.9777500000000001  0.45675999999999983  0.45648  1.0000
  C   C22       1.0  0.5568500000000001  0.5606899999999998  0.97497  1.0000
  C   C23       1.0  0.83137  0.5695099999999997  0.0147  1.0000
  C   C24       1.0  0.4650599999999998  0.46678  0.9481  1.0000
  C   C25       1.0  0.58876  0.9922499999999996  0.46606  1.0000
  C   C26       1.0  0.41172  0.9858899999999999  0.54685  1.0000
  C   C27       1.0  0.00951000000000003  0.45626999999999995  0.58702  1.0000
  C   C28       1.0  0.98494  0.54519  0.4145199999999999  1.0000
  C   C29       1.0  0.4635700000000001  0.5931799999999999  0.98785  1.0000
  C   C30       1.0  0.5579700000000001  0.4317  0.9388  1.0000
  C   C31       1.0  0.5363  0.0015100000000000016  0.41325  1.0000
  C   C32       1.0  0.45446999999999993  0.009200000000000012  0.58975  1.0000
  C   C33       1.0  0.42095999999999995  0.5527  0.9615  1.0000
  C   C34       1.0  0.17171000000000006  0.43522  0.9723399999999999  1.0000
  C   C35       1.0  0.6055000000000001  0.48507  0.9414  1.0000
  C   C36       1.0  0.9829400000000001  0.4149799999999998  0.54528  1.0000
  C   C37       1.0  0.01153000000000008  0.5865099999999998  0.45621  1.0000
  C   C38       1.0  0.40898  0.041809999999999986  0.66519  1.0000
  C   C39       1.0  0.56385  0.028769999999999997  0.31995  1.0000
  C   C40       1.0  0.04258000000000004  0.6632999999999999  0.40977  1.0000
  C   C41       1.0  0.9522899999999999  0.3379099999999999  0.59142  1.0000
  C   C42       1.0  0.6991800000000001  0.4686199999999998  0.90952  1.0000
  C   C43       1.0  0.33796999999999994  0.59642  0.94297  1.0000
  C   C44       1.0  0.33570000000000005  0.95409  0.59191  1.0000
  C   C45       1.0  0.5648499999999997  0.027339999999999993  0.82868  1.0000
  C   C46       1.0  0.6821600000000001  0.9648699999999999  0.4391  1.0000
  C   C47       1.0  0.59844  0.34397  0.92979  1.0000
  C   C48       1.0  0.41572000000000003  0.66106  0.03191  1.0000
  C   C49       1.0  0.9560499999999998  0.59163  0.33677  1.0000
  C   C50       1.0  0.03874000000000002  0.4095599999999999  0.66454  1.0000
  C   C51       1.0  0.54995  0.036309999999999995  0.68051  1.0000
  C   C52       1.0  0.4362400000000002  0.9982999999999995  0.31272  1.0000
  C   C53       1.0  0.042389999999999865  0.6778700000000001  0.54856  1.0000
  C   C54       1.0  0.9547400000000004  0.3226699999999999  0.45207  1.0000
  C   C55       1.0  0.6952899999999999  0.5742000000000002  0.97937  1.0000
  C   C56       1.0  0.4314000000000001  0.9829899999999996  0.16948  1.0000
  C   C57       1.0  0.32447  0.45568999999999993  0.94528  1.0000
  C   C58       1.0  0.32021000000000005  0.9611199999999999  0.45058  1.0000
  C   C59       1.0  0.6882700000000002  0.9983999999999996  0.5653  1.0000
  C   C60       1.0  0.4559200000000001  0.3262199999999998  0.9419  1.0000
  C   C61       1.0  0.55399  0.6812099999999998  0.02628  1.0000
  C   C62       1.0  0.9560999999999998  0.4524  0.32201  1.0000
  C   C63       1.0  0.04095999999999998  0.54822  0.67861  1.0000
  C   C64       1.0  0.6006700000000001  0.036960000000000014  0.73134  1.0000
  C   C65       1.0  0.39213999999999993  0.98231  0.26486  1.0000
  C   C66       1.0  0.04085000000000007  0.7298499999999999  0.59967  1.0000
  C   C67       1.0  0.43550000000000005  0.17184  0.97177  1.0000
  C   C68       1.0  0.95818  0.27023  0.40048  1.0000
  C   C69       1.0  0.73785  0.6110699999999998  0.01041  1.0000
  C   C70       1.0  0.27084  0.4016700000000001  0.95559  1.0000
  C   C71       1.0  0.26886999999999994  0.96214  0.39949  1.0000
  C   C72       1.0  0.7355099999999998  0.016450000000000013  0.60843  1.0000
  C   C73       1.0  0.40194  0.27137  0.95443  1.0000
  C   C74       1.0  0.6015500000000001  0.7310199999999998  0.03433  1.0000
  C   C75       1.0  0.9587899999999999  0.4005899999999999  0.26997  1.0000
  C   C76       1.0  0.0401800000000002  0.5995499999999996  0.73015  1.0000
  C   C77       1.0  0.6907700000000001  0.03472  0.69137  1.0000
  C   C78       1.0  0.5648900000000001  0.8284099999999998  0.0271  1.0000
  C   C79       1.0  0.30863  0.96515  0.30923  1.0000
  C   C80       1.0  0.041260000000000116  0.6891899999999997  0.68922  1.0000
  C   C81       1.0  0.95882  0.3106399999999999  0.31063  1.0000
  C   C82       1.0  0.6904799999999999  0.69049  0.03568  1.0000
  C   C83       1.0  0.31097000000000014  0.31085999999999997  0.9592999999999998  1.0000
  C   C84       1.0  0.59473  0.013849999999999989  0.59908  1.0000
  C   C85       1.0  0.4023400000000001  0.9823599999999997  0.40626  1.0000
  C   C86       1.0  0.03266999999999996  0.59063  0.59111  1.0000
  C   C87       1.0  0.9635200000000002  0.41026999999999997  0.4098299999999999  1.0000
  C   C88       1.0  0.60195  0.60499  0.9942  1.0000
  C   C89       1.0  0.97281  0.43503999999999987  0.17153  1.0000
  C   C90       1.0  0.4150699999999999  0.41591  0.94526  1.0000
  Cu  Cu1       1.0  0.9951799999999997  0.9951800000000001  0.42463  1.0000
  Cu  Cu2       1.0  0.004819999999999974  0.004820000000000018  0.57537  1.0000
  Cu  Cu3       1.0  0.99518  0.42463  0.99518  1.0000
  Cu  Cu4       1.0  0.004820000000000008  0.57537  0.00482  1.0000
  Cu  Cu5       1.0  0.4246299999999999  0.99518  0.99518  1.0000
  Cu  Cu6       1.0  0.57537  0.004819999999999999  0.00482  1.0000
  F   F1        1.0  0.3185799999999999  0.06762  0.69273  1.0000
  F   F2        1.0  0.32569  0.68075  0.0653  1.0000
  F   F3        1.0  0.9319100000000001  0.68231  0.30866  1.0000
  F   F4        1.0  0.062279999999999974  0.31888  0.69275  1.0000
  F   F5        1.0  0.73569  0.048799999999999996  0.7348  1.0000
  F   F6        1.0  0.2644  0.95305  0.26373  1.0000
  F   F7        1.0  0.04169000000000008  0.73792  0.73762  1.0000
  F   F8        1.0  0.9607799999999999  0.2612799999999999  0.26159  1.0000
  F   F9        1.0  0.73152  0.73001  0.05992  1.0000
  F   F10       1.0  0.25972  0.25922  0.97074  1.0000
  F   F11       1.0  0.63533  0.06254999999999995  0.27565  1.0000
  F   F12       1.0  0.06799  0.69077  0.3194  1.0000
  F   F13       1.0  0.92625  0.31055  0.68179  1.0000
  F   F14       1.0  0.74871  0.41982999999999976  0.85014  1.0000
  F   F15       1.0  0.30455000000000004  0.6865899999999999  0.92621  1.0000
  F   F16       1.0  0.30778  0.9282200000000002  0.68226  1.0000
  F   F17       1.0  0.7269299999999999  0.9299800000000001  0.36843  1.0000
  F   F18       1.0  0.6833900000000002  0.2994299999999999  0.93363  1.0000
  H   H1        1.0  0.4164500000000001  0.09172000000000004  0.7590199999999998  1.0000
  H   H2        1.0  0.42016999999999993  0.75183  0.0886  1.0000
  H   H3        1.0  0.9129799999999999  0.58665  0.23726  1.0000
  H   H4        1.0  0.08398000000000004  0.4135799999999998  0.76283  1.0000
  H   H5        1.0  0.53093  0.0648  0.20103  1.0000
  H   H6        1.0  0.0884100000000001  0.7612899999999998  0.4147199999999999  1.0000
  H   H7        1.0  0.90872  0.23865999999999998  0.58554  1.0000
  H   H8        1.0  0.81416  0.49826000000000004  0.9006899999999999  1.0000
  H   H9        1.0  0.23408000000000004  0.5887899999999998  0.90878  1.0000
  H   H10       1.0  0.24081000000000016  0.90604  0.58366  1.0000
  H   H11       1.0  0.80087  0.9308800000000002  0.47216  1.0000
  H   H12       1.0  0.5882500000000002  0.2332699999999999  0.91  1.0000
  O   O1        1.0  0.12453999999999998  0.97864  0.38546  1.0000
  O   O2        1.0  0.12454000000000001  0.38546  0.97864  1.0000
  O   O3        1.0  0.021360000000000108  0.8754599999999997  0.61454  1.0000
  O   O4        1.0  0.97864  0.12454  0.38546  1.0000
  O   O5        1.0  0.013780000000000152  0.8673699999999998  0.48719  1.0000
  O   O6        1.0  0.98622  0.13262999999999991  0.51281  1.0000
  O   O7        1.0  0.8673700000000001  0.4871899999999999  0.01378  1.0000
  O   O8        1.0  0.13263  0.51281  0.98622  1.0000
  O   O9        1.0  0.48719  0.013780000000000002  0.86737  1.0000
  O   O10       1.0  0.51281  0.9862199999999998  0.13263  1.0000
  O   O11       1.0  0.51281  0.13263  0.98622  1.0000
  O   O12       1.0  0.8754599999999998  0.021360000000000007  0.61454  1.0000
  O   O13       1.0  0.48719  0.8673699999999998  0.01378  1.0000
  O   O14       1.0  0.98622  0.51281  0.13263  1.0000
  O   O15       1.0  0.013780000000000098  0.4871899999999998  0.86737  1.0000
  O   O16       1.0  0.13263000000000008  0.9862199999999995  0.51281  1.0000
  O   O17       1.0  0.86737  0.013780000000000002  0.48719  1.0000
  O   O18       1.0  0.9786400000000002  0.3854599999999999  0.12453999999999997  1.0000
  O   O19       1.0  0.021360000000000056  0.6145399999999998  0.87546  1.0000
  O   O20       1.0  0.38545999999999997  0.12454000000000003  0.97864  1.0000
  O   O21       1.0  0.6145400000000004  0.8754599999999998  0.02136  1.0000
  O   O22       1.0  0.6145400000000001  0.021359999999999976  0.87546  1.0000
  O   O23       1.0  0.38546  0.97864  0.12453999999999997  1.0000
  O   O24       1.0  0.8754599999999999  0.6145399999999998  0.02136  1.0000
