data_image0
_chemical_formula_structural       O3CO2CO2VOCOCVOCH3C13H5C2H2C6H3C2H2C6H4CH3C13H5O3CO2CO2VOCOCVO2CH2CH3
_chemical_formula_sum              "O21 C54 V4 H32"
_cell_length_a       6.94473
_cell_length_b       13.47534
_cell_length_c       20.124689999999998
_cell_angle_alpha    104.13344000000001
_cell_angle_beta     90.32328000000001
_cell_angle_gamma    90.32503000000001

_space_group_name_H-M_alt    "P 1"
_space_group_IT_number       1

loop_
  _space_group_symop_operation_xyz
  'x, y, z'

loop_
  _atom_site_type_symbol
  _atom_site_label
  _atom_site_symmetry_multiplicity
  _atom_site_fract_x
  _atom_site_fract_y
  _atom_site_fract_z
  _atom_site_occupancy
  O   O1        1.0  0.50678  0.60006  0.44995  1.0000
  O   O2        1.0  0.17984  0.59711  0.58941  1.0000
  O   O3        1.0  0.004569999999999999  0.39994  0.55005  1.0000
  C   C1        1.0  0.3487499999999999  0.6189899999999999  0.61692  1.0000
  O   O4        1.0  0.17738  0.61216  0.45289  1.0000
  O   O5        1.0  0.002099999999999999  0.4151  0.4125599999999999  1.0000
  C   C2        1.0  0.34592999999999996  0.6388899999999998  0.43623  1.0000
  O   O6        1.0  0.50925  0.5849  0.58744  1.0000
  O   O7        1.0  0.33757  0.43533  0.48693  1.0000
  V   V1        1.0  0.06465000000000001  0.5120000000000001  0.50243  1.0000
  O   O8        1.0  0.67209  0.4028900000000001  0.41059000000000007  1.0000
  C   C3        1.0  0.8401399999999999  0.3818299999999999  0.38285  1.0000
  O   O9        1.0  0.6745399999999998  0.38784  0.54711  1.0000
  C   C4        1.0  0.8433799999999999  0.3610199999999999  0.56368  1.0000
  V   V2        1.0  0.56404  0.48799999999999993  0.49757  1.0000
  O   O10       1.0  0.84099  0.56467  0.51307  1.0000
  C   C5        1.0  0.8743  0.10678999999999995  0.60794  1.0000
  H   H1        1.0  0.8682  0.15632  0.5144  1.0000
  H   H2        1.0  0.89014  0.9807899999999998  0.69037  1.0000
  H   H3        1.0  0.88433  0.026799999999999984  0.58112  1.0000
  C   C6        1.0  0.8522399999999998  0.28354  0.60318  1.0000
  C   C7        1.0  0.84744  0.31944  0.93302  1.0000
  C   C8        1.0  0.83824  0.3962399999999999  0.8980099999999999  1.0000
  C   C9        1.0  0.84146  0.37207000000000007  0.8266200000000001  1.0000
  C   C10       1.0  0.85417  0.26911  0.78805  1.0000
  C   C11       1.0  0.86376  0.19069000000000003  0.82441  1.0000
  C   C12       1.0  0.8576099999999999  0.24132  0.7148  1.0000
  C   C13       1.0  0.8706799999999998  0.13618999999999995  0.67984  1.0000
  C   C14       1.0  0.88011  0.06101  0.71671  1.0000
  C   C15       1.0  0.8766899999999999  0.08761000000000001  0.78777  1.0000
  C   C16       1.0  0.8485499999999999  0.31409  0.67474  1.0000
  C   C17       1.0  0.86512  0.18012  0.56985  1.0000
  C   C18       1.0  0.8601699999999998  0.21707000000000004  0.8969800000000001  1.0000
  H   H4        1.0  0.8386699999999998  0.39508  0.69725  1.0000
  H   H5        1.0  0.84457  0.33983  0.98853  1.0000
  H   H6        1.0  0.83374  0.43597  0.80342  1.0000
  H   H7        1.0  0.8284  0.4753800000000001  0.9264600000000001  1.0000
  H   H8        1.0  0.88431  0.026229999999999982  0.81378  1.0000
  C   C19       1.0  0.69114  0.19556999999999994  0.23690999999999998  1.0000
  C   C20       1.0  0.83307  0.19453  0.29661  1.0000
  H   H9        1.0  0.81419  0.14927  0.33544  1.0000
  H   H10       1.0  0.55593  0.14997  0.22595  1.0000
  C   C21       1.0  0.84832  0.31212  0.31214  1.0000
  C   C22       1.0  0.70498  0.31406999999999996  0.25333  1.0000
  C   C23       1.0  0.87803  0.30472  0.20469  1.0000
  C   C24       1.0  0.021899999999999996  0.30457999999999996  0.26319  1.0000
  C   C25       1.0  0.005509999999999998  0.18608999999999998  0.24677999999999997  1.0000
  C   C26       1.0  0.86362  0.18794  0.18785  1.0000
  H   H11       1.0  0.58178  0.36708  0.25619  1.0000
  H   H12       1.0  0.15747999999999998  0.34989  0.27398  1.0000
  H   H13       1.0  0.12825  0.13284999999999994  0.24368  1.0000
  C   C27       1.0  0.53837  0.7248699999999998  0.73087  1.0000
  C   C28       1.0  0.45843  0.83527  0.75004  1.0000
  H   H14       1.0  0.54236  0.9058599999999998  0.75064  1.0000
  H   H15       1.0  0.68844  0.7036899999999998  0.71495  1.0000
  C   C29       1.0  0.35665  0.8115699999999998  0.81227  1.0000
  C   C30       1.0  0.43667  0.7020199999999998  0.79391  1.0000
  C   C31       1.0  0.25435  0.6655599999999999  0.74977  1.0000
  C   C32       1.0  0.17444  0.77596  0.76892  1.0000
  C   C33       1.0  0.27613  0.79878  0.70587  1.0000
  C   C34       1.0  0.35617  0.68919  0.68753  1.0000
  H   H16       1.0  0.50238  0.66247  0.83071  1.0000
  H   H17       1.0  0.17036999999999994  0.59499  0.7492  1.0000
  H   H18       1.0  0.024429999999999997  0.7973299999999999  0.78484  1.0000
  H   H19       1.0  0.21036  0.83839  0.66911  1.0000
  C   C35       1.0  0.33505  0.8932599999999998  0.39181  1.0000
  H   H20       1.0  0.32866  0.8436899999999998  0.48528  1.0000
  H   H21       1.0  0.32574  0.019069999999999993  0.30928  1.0000
  H   H22       1.0  0.32344999999999996  0.97324  0.4184800000000001  1.0000
  C   C36       1.0  0.35313  0.7164999999999998  0.39682  1.0000
  C   C37       1.0  0.37961  0.68031  0.06723  1.0000
  C   C38       1.0  0.39028  0.60381  0.10242  1.0000
  C   C39       1.0  0.38371  0.62804  0.17374  1.0000
  C   C40       1.0  0.36516999999999994  0.73078  0.21203  1.0000
  C   C41       1.0  0.35492  0.8090099999999999  0.17551  1.0000
  C   C42       1.0  0.35835  0.75864  0.28522  1.0000
  C   C43       1.0  0.3437  0.86378  0.32  1.0000
  C   C44       1.0  0.33630999999999994  0.93885  0.28303  1.0000
  C   C45       1.0  0.34129  0.9120899999999998  0.21199  1.0000
  C   C46       1.0  0.36365  0.6858999999999997  0.32536  1.0000
  C   C47       1.0  0.33855  0.81992  0.42995  1.0000
  C   C48       1.0  0.36183  0.7825799999999998  0.10297  1.0000
  H   H23       1.0  0.3717099999999999  0.60481  0.30293  1.0000
  H   H24       1.0  0.3877  0.65985  0.01179  1.0000
  H   H25       1.0  0.39490999999999987  0.56443  0.19709  1.0000
  H   H26       1.0  0.40493  0.52483  0.07419  1.0000
  H   H27       1.0  0.33457  0.97332  0.18586  1.0000
  O   O11       1.0  0.20358  0.9149199999999998  0.91261  1.0000
  O   O12       1.0  0.53571  0.8878099999999999  0.04712  1.0000
  O   O13       1.0  0.71073  0.08495  0.08743  1.0000
  C   C49       1.0  0.36739  0.8608799999999999  0.0637  1.0000
  O   O14       1.0  0.53301  0.90285  0.9105999999999999  1.0000
  O   O15       1.0  0.7080099999999998  0.10008999999999994  0.9499299999999999  1.0000
  C   C50       1.0  0.36413  0.8813  0.883  1.0000
  O   O16       1.0  0.2063  0.89978  0.0501  1.0000
  O   O17       1.0  0.37517  0.06458  0.0131  1.0000
  V   V3        1.0  0.6481999999999999  0.98802  0.99757  1.0000
  O   O18       1.0  0.03803  0.11233000000000007  0.9528400000000001  1.0000
  C   C51       1.0  0.86914  0.1390299999999999  0.93632  1.0000
  O   O19       1.0  0.04073  0.0973  0.08936  1.0000
  C   C52       1.0  0.87254  0.11836999999999999  0.11707999999999999  1.0000
  V   V4        1.0  0.14878  0.01222  0.00236  1.0000
  O   O20       1.0  0.87193  0.9354299999999999  0.9868999999999999  1.0000
  O   O21       1.0  0.89926  0.3572600000000001  0.15248  1.0000
  C   C53       1.0  0.9143599999999998  0.46335  0.18183  1.0000
  H   H28       1.0  0.05216  0.48165  0.21085  1.0000
  H   H29       1.0  0.79152  0.4917  0.21649999999999997  1.0000
  C   C54       1.0  0.91167  0.51964  0.12491  1.0000
  H   H30       1.0  0.77293  0.50516  0.09644  1.0000
  H   H31       1.0  0.92881  0.60322  0.14702  1.0000
  H   H32       1.0  0.03082  0.49246  0.08862  1.0000
