data_image0
_chemical_formula_structural       Br16C188F36H8O48Zn12
_chemical_formula_sum              "Br16 C188 F36 H8 O48 Zn12"
_cell_length_a       28.17796
_cell_length_b       18.33717
_cell_length_c       16.93601
_cell_angle_alpha    90.48974
_cell_angle_beta     61.77801000000001
_cell_angle_gamma    90.98516999999998

_space_group_name_H-M_alt    "P 1"
_space_group_IT_number       1

loop_
  _space_group_symop_operation_xyz
  'x, y, z'

loop_
  _atom_site_type_symbol
  _atom_site_label
  _atom_site_symmetry_multiplicity
  _atom_site_fract_x
  _atom_site_fract_y
  _atom_site_fract_z
  _atom_site_occupancy
  Br  Br1       1.0  0.1804  0.33723  0.33986  1.0000
  Br  Br2       1.0  0.39391  0.69065  0.7792299999999999  1.0000
  Br  Br3       1.0  0.42683999999999994  0.22217  0.78953  1.0000
  Br  Br4       1.0  0.58764  0.8070200000000001  0.18532  1.0000
  Br  Br5       1.0  0.10459999999999993  0.80646  0.2217  1.0000
  Br  Br6       1.0  0.89479  0.19344  0.77875  1.0000
  Br  Br7       1.0  0.9084300000000001  0.69358  0.82076  1.0000
  Br  Br8       1.0  0.11235  0.20438  0.21133  1.0000
  Br  Br9       1.0  0.8886800000000002  0.71018  0.55619  1.0000
  Br  Br10      1.0  0.9269500000000002  0.30487  0.31742  1.0000
  Br  Br11      1.0  0.06377  0.6949800000000002  0.64248  1.0000
  Br  Br12      1.0  0.6048500000000002  0.7825100000000001  0.45978  1.0000
  Br  Br13      1.0  0.43455  0.20595  0.34978  1.0000
  Br  Br14      1.0  0.43575000000000014  0.79949  0.361  1.0000
  Br  Br15      1.0  0.57009  0.20213  0.66385  1.0000
  Br  Br16      1.0  0.60389  0.3042  0.22196  1.0000
  C   C1        1.0  0.70085  0.26557  0.67695  1.0000
  C   C2        1.0  0.09920999999999999  0.50046  0.50167  1.0000
  C   C3        1.0  0.20266000000000003  0.19385  0.89808  1.0000
  C   C4        1.0  0.61764  0.32748  0.04764  1.0000
  C   C5        1.0  0.38114  0.67059  0.95317  1.0000
  C   C6        1.0  0.3966700000000001  0.30191  0.9478599999999998  1.0000
  C   C7        1.0  0.60638  0.70656  0.04863  1.0000
  C   C8        1.0  0.11796  0.82824  0.04745  1.0000
  C   C9        1.0  0.88145  0.17125  0.95288  1.0000
  C   C10       1.0  0.8900100000000002  0.7965500000000001  0.95447  1.0000
  C   C11       1.0  0.12418  0.17199000000000003  0.04075  1.0000
  C   C12       1.0  0.64646  0.31158  0.09343  1.0000
  C   C13       1.0  0.41183  0.0038099999999999996  0.46352  1.0000
  C   C14       1.0  0.35192000000000007  0.68551  0.90784  1.0000
  C   C15       1.0  0.37454  0.2679500000000001  0.89809  1.0000
  C   C16       1.0  0.63278  0.74039  0.09211  1.0000
  C   C17       1.0  0.14691  0.81272  0.09311  1.0000
  C   C18       1.0  0.85242  0.18668  0.90733  1.0000
  C   C19       1.0  0.86356  0.7621300000000001  0.91156  1.0000
  C   C20       1.0  0.15425  0.18433  0.08545  1.0000
  C   C21       1.0  0.73913  0.18899  0.79816  1.0000
  C   C22       1.0  0.2604099999999999  0.81038  0.20194  1.0000
  C   C23       1.0  0.26204  0.18127  0.20409  1.0000
  C   C24       1.0  0.5802700000000001  0.99965  0.55312  1.0000
  C   C25       1.0  0.7693400000000001  0.71313  0.77143  1.0000
  C   C26       1.0  0.23878999999999997  0.68868  0.79855  1.0000
  C   C27       1.0  0.76005  0.30988  0.20223  1.0000
  C   C28       1.0  0.72688  0.78698  0.233  1.0000
  C   C29       1.0  0.28117  0.21906  0.75685  1.0000
  C   C30       1.0  0.76953  0.17501  0.84194  1.0000
  C   C31       1.0  0.22991  0.8241800000000001  0.15827  1.0000
  C   C32       1.0  0.23226  0.16564  0.15925  1.0000
  C   C33       1.0  0.79938  0.7373700000000001  0.81248  1.0000
  C   C34       1.0  0.26889  0.6742700000000001  0.84274  1.0000
  C   C35       1.0  0.12000000000000001  0.37832  0.44179  1.0000
  C   C36       1.0  0.72933  0.32335  0.15886  1.0000
  C   C37       1.0  0.69726  0.76293  0.19115  1.0000
  C   C38       1.0  0.30891000000000013  0.24403000000000002  0.8013899999999999  1.0000
  C   C39       1.0  0.07300000000000002  0.10242  0.93599  1.0000
  C   C40       1.0  0.9303000000000001  0.8944400000000001  0.06119  1.0000
  C   C41       1.0  0.92688  0.10174  0.06466  1.0000
  C   C42       1.0  0.07298000000000002  0.8981200000000001  0.93541  1.0000
  C   C43       1.0  0.56826  0.6067  0.94007  1.0000
  C   C44       1.0  0.42873  0.396  0.06301  1.0000
  C   C45       1.0  0.4269  0.60178  0.06468  1.0000
  C   C46       1.0  0.91962  0.6351  0.4638799999999999  1.0000
  C   C47       1.0  0.57294  0.39806  0.93546  1.0000
  C   C48       1.0  0.5353  0.13476  0.54473  1.0000
  C   C49       1.0  0.44521000000000005  0.87238  0.50268  1.0000
  C   C50       1.0  0.45949999999999996  0.13637  0.47811  1.0000
  C   C51       1.0  0.52283  0.8715600000000001  0.55958  1.0000
  C   C52       1.0  0.05248  0.6317  0.49656  1.0000
  C   C53       1.0  0.97742  0.37071000000000004  0.41552  1.0000
  C   C54       1.0  0.9740300000000001  0.63374  0.44161  1.0000
  C   C55       1.0  0.0709  0.37287  0.43902  1.0000
  C   C56       1.0  0.51745  0.20133  0.5277  1.0000
  C   C57       1.0  0.93169  0.37297  0.40134  1.0000
  C   C58       1.0  0.45426  0.80791  0.53675  1.0000
  C   C59       1.0  0.48120999999999997  0.20208  0.49253  1.0000
  C   C60       1.0  0.49034999999999995  0.80874  0.5711  1.0000
  C   C61       1.0  0.03914  0.6982000000000002  0.47278  1.0000
  C   C62       1.0  0.00625  0.30609  0.40693  1.0000
  C   C63       1.0  0.0033200000000000057  0.69842  0.43776  1.0000
  C   C64       1.0  0.05283000000000001  0.30757  0.41733  1.0000
  C   C65       1.0  0.47431999999999996  0.07032000000000001  0.50154  1.0000
  C   C66       1.0  0.5061899999999999  0.9380200000000001  0.54261  1.0000
  C   C67       1.0  0.51433  0.06934  0.52971  1.0000
  C   C68       1.0  0.08181  0.62783  0.54361  1.0000
  C   C69       1.0  0.46613999999999994  0.9387  0.51562  1.0000
  C   C70       1.0  0.99451  0.56722  0.44852  1.0000
  C   C71       1.0  0.04090000000000001  0.43592  0.45289  1.0000
  C   C72       1.0  0.03586999999999998  0.56656  0.47218  1.0000
  C   C73       1.0  0.99554  0.43567  0.43811  1.0000
  C   C74       1.0  0.97032  0.50174  0.44135  1.0000
  C   C75       1.0  0.058010000000000006  0.50074  0.47709  1.0000
  C   C76       1.0  0.45149999999999996  0.00443  0.49197  1.0000
  C   C77       1.0  0.53308  0.0024  0.54345  1.0000
  C   C78       1.0  0.89864  0.43592  0.4269  1.0000
  C   C79       1.0  0.57675  0.86628  0.54078  1.0000
  C   C80       1.0  0.11197  0.56455  0.53493  1.0000
  C   C81       1.0  0.12949000000000005  0.43748  0.48806  1.0000
  C   C82       1.0  0.89253  0.56918  0.45537  1.0000
  C   C83       1.0  0.39101  0.9367899999999999  0.45132  1.0000
  C   C84       1.0  0.6032300000000003  0.06593  0.5635999999999998  1.0000
  C   C85       1.0  0.60613  0.9315000000000001  0.54488  1.0000
  C   C86       1.0  0.3933  0.06951  0.44697999999999993  1.0000
  C   C87       1.0  0.8450900000000001  0.43577  0.43779  1.0000
  C   C88       1.0  0.15745  0.56441  0.5503499999999999  1.0000
  C   C89       1.0  0.16828000000000004  0.4373000000000001  0.52005  1.0000
  C   C90       1.0  0.42385  0.13433  0.44054  1.0000
  C   C91       1.0  0.84106  0.56586  0.45564  1.0000
  C   C92       1.0  0.34361  0.9360500000000002  0.44165  1.0000
  C   C93       1.0  0.65496  0.06471000000000002  0.55981  1.0000
  C   C94       1.0  0.65748  0.93405  0.54631  1.0000
  C   C95       1.0  0.34469  0.067  0.43898  1.0000
  C   C96       1.0  0.82109  0.50091  0.43975  1.0000
  C   C97       1.0  0.17944000000000002  0.49956000000000006  0.55527  1.0000
  C   C98       1.0  0.32367000000000007  0.00081  0.42853  1.0000
  C   C99       1.0  0.67742  0.9991600000000002  0.56208  1.0000
  C   C100      1.0  0.41689  0.87245  0.45424  1.0000
  C   C101      1.0  0.29914  0.73444  0.32305  1.0000
  C   C102      1.0  0.57365  0.13116  0.57597  1.0000
  C   C103      1.0  0.7176  0.26135  0.9573099999999998  1.0000
  C   C104      1.0  0.28135  0.73703  0.04358  1.0000
  C   C105      1.0  0.29401  0.23825000000000002  0.03438  1.0000
  C   C106      1.0  0.71859  0.7315200000000001  0.95647  1.0000
  C   C107      1.0  0.21763999999999997  0.76152  0.95733  1.0000
  C   C108      1.0  0.78136  0.23703  0.04348  1.0000
  C   C109      1.0  0.77774  0.77203  0.04706  1.0000
  C   C110      1.0  0.2344  0.2059  0.94278  1.0000
  C   C111      1.0  0.7640600000000001  0.21792000000000003  0.91531  1.0000
  C   C112      1.0  0.2998199999999999  0.26405  0.323  1.0000
  C   C113      1.0  0.23511  0.7809  0.08531  1.0000
  C   C114      1.0  0.24383  0.20183  0.07896  1.0000
  C   C115      1.0  0.7756200000000001  0.7425000000000002  0.90701  1.0000
  C   C116      1.0  0.26375  0.71746  0.91573  1.0000
  C   C117      1.0  0.7348200000000001  0.28032  0.08556999999999998  1.0000
  C   C118      1.0  0.72082  0.76003  0.09658  1.0000
  C   C119      1.0  0.2886699999999999  0.23171000000000003  0.89391  1.0000
  C   C120      1.0  0.79859  0.2109  0.9551  1.0000
  C   C121      1.0  0.20059  0.788  0.04551  1.0000
  C   C122      1.0  0.21089000000000002  0.19488000000000003  0.036689999999999987  1.0000
  C   C123      1.0  0.70418  0.7249900000000001  0.67517  1.0000
  C   C124      1.0  0.80591  0.76009  0.95307  1.0000
  C   C125      1.0  0.29828  0.71031  0.95552  1.0000
  C   C126      1.0  0.7002900000000001  0.28731  0.04576  1.0000
  C   C127      1.0  0.69046  0.74286  0.0505  1.0000
  C   C128      1.0  0.31893  0.24817000000000003  0.94037  1.0000
  C   C129      1.0  0.6396900000000001  0.31737  0.95419  1.0000
  C   C130      1.0  0.35952000000000006  0.68146  0.0464  1.0000
  C   C131      1.0  0.3685800000000001  0.30237  0.04206  1.0000
  C   C132      1.0  0.63421  0.69286  0.95658  1.0000
  C   C133      1.0  0.13984  0.8177300000000001  0.95408  1.0000
  C   C134      1.0  0.20082000000000003  0.76551  0.67697  1.0000
  C   C135      1.0  0.85959  0.18161  0.04625  1.0000
  C   C136      1.0  0.8622700000000001  0.8111  0.0463  1.0000
  C   C137      1.0  0.14821000000000012  0.17175  0.9468699999999998  1.0000
  C   C138      1.0  0.61394  0.34108  0.9033699999999999  1.0000
  C   C139      1.0  0.38572000000000006  0.6585400000000001  0.09683  1.0000
  C   C140      1.0  0.38974000000000003  0.33538  0.09535  1.0000
  C   C141      1.0  0.60842  0.66565  0.9071  1.0000
  C   C142      1.0  0.11398000000000003  0.84117  0.90334  1.0000
  C   C143      1.0  0.88558  0.15829  0.09687  1.0000
  C   C144      1.0  0.88863  0.83755  0.09516999999999999  1.0000
  C   C145      1.0  0.79902  0.2342  0.3230899999999999  1.0000
  C   C146      1.0  0.11866000000000003  0.15344  0.90021  1.0000
  C   C147      1.0  0.63157  0.31637  0.8166199999999999  1.0000
  C   C148      1.0  0.36844  0.68388  0.18324  1.0000
  C   C149      1.0  0.36996  0.31495  0.18408  1.0000
  C   C150      1.0  0.62931  0.68373  0.8176  1.0000
  C   C151      1.0  0.13145  0.81616  0.81673  1.0000
  C   C152      1.0  0.86793  0.18293  0.18361  1.0000
  C   C153      1.0  0.86796  0.81978  0.18438  1.0000
  C   C154      1.0  0.13788  0.17404  0.81263  1.0000
  C   C155      1.0  0.67658  0.27279  0.77533  1.0000
  C   C156      1.0  0.79481  0.77655  0.32582  1.0000
  C   C157      1.0  0.32325  0.72709  0.22469  1.0000
  C   C158      1.0  0.32535  0.26889  0.22488  1.0000
  C   C159      1.0  0.68247  0.70663  0.77059  1.0000
  C   C160      1.0  0.17653999999999997  0.77272  0.77539  1.0000
  C   C161      1.0  0.823  0.22661  0.22484  1.0000
  C   C162      1.0  0.81491  0.79674  0.23175  1.0000
  C   C163      1.0  0.19056999999999996  0.19812  0.76373  1.0000
  C   C164      1.0  0.70217  0.24698  0.82583  1.0000
  C   C165      1.0  0.29732  0.75234  0.17445  1.0000
  C   C166      1.0  0.30161  0.23779  0.17337  1.0000
  C   C167      1.0  0.20707000000000006  0.22106000000000003  0.6722599999999999  1.0000
  C   C168      1.0  0.7138399999999999  0.7120100000000001  0.81643  1.0000
  C   C169      1.0  0.20211999999999997  0.74698  0.82593  1.0000
  C   C170      1.0  0.79716  0.25206  0.17453  1.0000
  C   C171      1.0  0.78268  0.79166  0.18713  1.0000
  C   C172      1.0  0.22538  0.2027  0.80441  1.0000
  C   C173      1.0  0.6908400000000001  0.12935  0.53623  1.0000
  C   C174      1.0  0.30871  0.8709  0.46451999999999993  1.0000
  C   C175      1.0  0.30919  0.12993  0.46241  1.0000
  C   C176      1.0  0.69219  0.87126  0.5302  1.0000
  C   C177      1.0  0.19113  0.62943  0.53533  1.0000
  C   C178      1.0  0.92088  0.50254  0.4392  1.0000
  C   C179      1.0  0.80937  0.37056  0.46277  1.0000
  C   C180      1.0  0.80718  0.62865  0.47123  1.0000
  C   C181      1.0  0.19576  0.37223  0.52055  1.0000
  C   C182      1.0  0.68688  0.27606  0.91193  1.0000
  C   C183      1.0  0.31231  0.72274  0.08869  1.0000
  C   C184      1.0  0.32103  0.26023  0.08374  1.0000
  C   C185      1.0  0.68876  0.7133  0.91006  1.0000
  C   C186      1.0  0.18695  0.77626  0.91192  1.0000
  C   C187      1.0  0.8122900000000001  0.22269000000000003  0.08863  1.0000
  C   C188      1.0  0.80756  0.79099  0.09333  1.0000
  F   F1        1.0  0.07821  0.24404000000000003  0.41214  1.0000
  F   F2        1.0  0.21511999999999998  0.4986  0.58831  1.0000
  F   F3        1.0  0.28064  0.9996300000000001  0.41256  1.0000
  F   F4        1.0  0.72141  0.99937  0.57554  1.0000
  F   F5        1.0  0.6050900000000001  0.3366  0.77096  1.0000
  F   F6        1.0  0.39552000000000004  0.6648  0.22835999999999995  1.0000
  F   F7        1.0  0.3937899999999999  0.34186  0.23208  1.0000
  F   F8        1.0  0.5988400000000003  0.67392  0.7754  1.0000
  F   F9        1.0  0.10467000000000004  0.83577  0.77132  1.0000
  F   F10       1.0  0.8943000000000002  0.16242  0.22933999999999996  1.0000
  F   F11       1.0  0.8990600000000001  0.82856  0.22565  1.0000
  F   F12       1.0  0.99089  0.76299  0.41377  1.0000
  F   F13       1.0  0.10471999999999998  0.16939  0.77471  1.0000
  F   F14       1.0  0.74046  0.13855  0.738  1.0000
  F   F15       1.0  0.25925999999999993  0.8610900000000001  0.2617  1.0000
  F   F16       1.0  0.25658  0.13436  0.26955  1.0000
  F   F17       1.0  0.7933400000000002  0.67658  0.69369  1.0000
  F   F18       1.0  0.24003000000000002  0.63836  0.73835  1.0000
  F   F19       1.0  0.75885  0.36071  0.2619  1.0000
  F   F20       1.0  0.70085  0.81574  0.31558  1.0000
  F   F21       1.0  0.3111699999999999  0.20723  0.66757  1.0000
  F   F22       1.0  0.7986200000000002  0.11289999999999999  0.8200499999999997  1.0000
  F   F23       1.0  0.98842  0.24052  0.39299  1.0000
  F   F24       1.0  0.20103999999999994  0.88647  0.17975  1.0000
  F   F25       1.0  0.19746  0.10779  0.18765  1.0000
  F   F26       1.0  0.84911  0.7646400000000001  0.75772  1.0000
  F   F27       1.0  0.29729  0.61158  0.82169  1.0000
  F   F28       1.0  0.69995  0.3852  0.18098  1.0000
  F   F29       1.0  0.6479700000000002  0.73382  0.24512  1.0000
  F   F30       1.0  0.35284000000000004  0.28673  0.75336  1.0000
  F   F31       1.0  0.06126  0.76211  0.48156  1.0000
  F   F32       1.0  0.4992400000000001  0.74585  0.60355  1.0000
  F   F33       1.0  0.4654499999999999  0.26771000000000006  0.47745  1.0000
  F   F34       1.0  0.42843  0.74467  0.53684  1.0000
  F   F35       1.0  0.53781  0.266  0.53856  1.0000
  F   F36       1.0  0.77602  0.50048  0.42933  1.0000
  H   H1        1.0  0.5759  0.34130000000000005  0.08838  1.0000
  H   H2        1.0  0.4228600000000001  0.65698  0.912  1.0000
  H   H3        1.0  0.43875000000000003  0.31805  0.91309  1.0000
  H   H4        1.0  0.56282  0.70181  0.08329999999999999  1.0000
  H   H5        1.0  0.07625  0.84206  0.08835  1.0000
  H   H6        1.0  0.92321  0.15766  0.91191  1.0000
  H   H7        1.0  0.9336000000000001  0.80062  0.91981  1.0000
  H   H8        1.0  0.08088  0.16793  0.08084  1.0000
  O   O1        1.0  0.7464900000000001  0.23633  0.63808  1.0000
  O   O2        1.0  0.32583  0.81384  0.48372999999999994  1.0000
  O   O3        1.0  0.32583  0.18616  0.48372999999999994  1.0000
  O   O4        1.0  0.67417  0.81384  0.51627  1.0000
  O   O5        1.0  0.17417  0.68616  0.51627  1.0000
  O   O6        1.0  0.82583  0.31384  0.48372999999999994  1.0000
  O   O7        1.0  0.82583  0.68616  0.48372999999999994  1.0000
  O   O8        1.0  0.17417000000000002  0.31384  0.51627  1.0000
  O   O9        1.0  0.7399600000000001  0.12762  0.525  1.0000
  O   O10       1.0  0.26004  0.87238  0.475  1.0000
  O   O11       1.0  0.26004  0.12762  0.475  1.0000
  O   O12       1.0  0.25351  0.76367  0.36192  1.0000
  O   O13       1.0  0.7399600000000001  0.87238  0.525  1.0000
  O   O14       1.0  0.23996  0.62762  0.525  1.0000
  O   O15       1.0  0.76004  0.37238  0.475  1.0000
  O   O16       1.0  0.76004  0.62762  0.475  1.0000
  O   O17       1.0  0.23996  0.37238  0.525  1.0000
  O   O18       1.0  0.6807000000000002  0.29487  0.62935  1.0000
  O   O19       1.0  0.3193  0.70513  0.37065  1.0000
  O   O20       1.0  0.3193  0.29487  0.37065  1.0000
  O   O21       1.0  0.6807000000000002  0.70513  0.62935  1.0000
  O   O22       1.0  0.18070000000000006  0.7948700000000001  0.62935  1.0000
  O   O23       1.0  0.25351  0.23633  0.36192  1.0000
  O   O24       1.0  0.8193  0.20513  0.37065  1.0000
  O   O25       1.0  0.8193  0.7948700000000001  0.37065  1.0000
  O   O26       1.0  0.18070000000000006  0.20513  0.62935  1.0000
  O   O27       1.0  0.06202  0.07284  0.00717  1.0000
  O   O28       1.0  0.9379800000000001  0.92716  0.99283  1.0000
  O   O29       1.0  0.9379800000000001  0.07284  0.99283  1.0000
  O   O30       1.0  0.06202000000000001  0.92716  0.00717  1.0000
  O   O31       1.0  0.56202  0.57284  0.00717  1.0000
  O   O32       1.0  0.43798000000000004  0.42716  0.99283  1.0000
  O   O33       1.0  0.43798000000000004  0.57284  0.99283  1.0000
  O   O34       1.0  0.7464900000000001  0.76367  0.63808  1.0000
  O   O35       1.0  0.56202  0.42716  0.00717  1.0000
  O   O36       1.0  0.94786  0.07395  0.10929  1.0000
  O   O37       1.0  0.05213999999999998  0.9260500000000002  0.89071  1.0000
  O   O38       1.0  0.05214000000000001  0.07395  0.89071  1.0000
  O   O39       1.0  0.94786  0.9260500000000002  0.10929  1.0000
  O   O40       1.0  0.44786  0.57395  0.10929  1.0000
  O   O41       1.0  0.55214  0.42605  0.89071  1.0000
  O   O42       1.0  0.55214  0.57395  0.89071  1.0000
  O   O43       1.0  0.44786  0.42605  0.10929  1.0000
  O   O44       1.0  0.24649  0.73633  0.63808  1.0000
  O   O45       1.0  0.75351  0.26367  0.36192  1.0000
  O   O46       1.0  0.75351  0.73633  0.36192  1.0000
  O   O47       1.0  0.24649000000000001  0.26367  0.63808  1.0000
  O   O48       1.0  0.67417  0.18616  0.51627  1.0000
  Zn  Zn1       1.0  0.79234  0.20875000000000002  0.50767  1.0000
  Zn  Zn2       1.0  0.49404  0.5  0.91948  1.0000
  Zn  Zn3       1.0  0.00596  0.0  0.08052  1.0000
  Zn  Zn4       1.0  0.9940400000000003  0.0  0.91948  1.0000
  Zn  Zn5       1.0  0.20766000000000004  0.79125  0.49233  1.0000
  Zn  Zn6       1.0  0.20766  0.20875000000000002  0.49233  1.0000
  Zn  Zn7       1.0  0.79234  0.79125  0.50767  1.0000
  Zn  Zn8       1.0  0.29234000000000004  0.70875  0.50767  1.0000
  Zn  Zn9       1.0  0.70766  0.29125  0.49233  1.0000
  Zn  Zn10      1.0  0.70766  0.70875  0.49233  1.0000
  Zn  Zn11      1.0  0.29234  0.29125  0.50767  1.0000
  Zn  Zn12      1.0  0.50596  0.5  0.08052  1.0000
