data_image0
_chemical_formula_structural       C20F4H8N2O8Zn2
_chemical_formula_sum              "C20 F4 H8 N2 O8 Zn2"
_cell_length_a       7.94156
_cell_length_b       8.55345
_cell_length_c       10.536529999999999
_cell_angle_alpha    91.57792
_cell_angle_beta     84.50916
_cell_angle_gamma    93.47525

_symmetry_space_group_name_H-M    'P 1'
_symmetry_Int_Tables_number       1

loop_
  _symmetry_equiv_pos_as_xyz
  'x,y,z'

loop_
  _atom_site_type_symbol
  _atom_site_label
  _atom_site_symmetry_multiplicity
  _atom_site_fract_x
  _atom_site_fract_y
  _atom_site_fract_z
  _atom_site_occupancy
  C   C1        1.0  0.54505  0.79395  0.49665000000000004  1.0000
  C   C2        1.0  0.9389099999999998  0.39234  0.01853  1.0000
  C   C3        1.0  0.03917999999999997  0.50257  0.08341000000000001  1.0000
  C   C4        1.0  0.9608199999999998  0.49745  0.9165900000000002  1.0000
  C   C5        1.0  0.18139999999999995  0.44461  0.12912000000000004  1.0000
  C   C6        1.0  0.8185999999999998  0.55541  0.87087  1.0000
  C   C7        1.0  0.3429899999999999  0.4825400000000001  0.06983  1.0000
  C   C8        1.0  0.6570099999999998  0.51747  0.93017  1.0000
  C   C9        1.0  0.3593799999999999  0.56098  0.9546  1.0000
  C   C10       1.0  0.6406199999999997  0.43903  0.0454  1.0000
  C   C11       1.0  0.4889699999999999  0.44522  0.12352000000000002  1.0000
  C   C12       1.0  0.45493999999999984  0.20605  0.50335  1.0000
  C   C13       1.0  0.5110299999999998  0.55479  0.8764800000000003  1.0000
  C   C14       1.0  0.5684199999999998  0.9577999999999999  0.49486  1.0000
  C   C15       1.0  0.4315799999999999  0.0422  0.50514  1.0000
  C   C16       1.0  0.50413  0.52351  0.73944  1.0000
  C   C17       1.0  0.4958799999999999  0.4764900000000001  0.26056  1.0000
  C   C18       1.0  0.22337999999999997  0.64284  0.9220000000000002  1.0000
  C   C19       1.0  0.7766199999999998  0.35717  0.078  1.0000
  C   C20       1.0  0.061089999999999985  0.60767  0.9814700000000001  1.0000
  F   F1        1.0  0.24615  0.75565  0.83252  1.0000
  F   F2        1.0  0.75385  0.24435  0.16748  1.0000
  F   F3        1.0  0.15844999999999998  0.32668  0.21405  1.0000
  F   F4        1.0  0.8415499999999999  0.67333  0.7859500000000001  1.0000
  H   H1        1.0  0.02999  0.4469  0.83224  1.0000
  H   H2        1.0  0.9700099999999998  0.55311  0.16776  1.0000
  H   H3        1.0  0.002099999999999995  0.71854  0.00225  1.0000
  H   H4        1.0  0.9978999999999999  0.28147  0.9977500000000001  1.0000
  H   H5        1.0  0.6978799999999997  0.0084  0.48504  1.0000
  H   H6        1.0  0.3021199999999999  0.9916000000000001  0.51496  1.0000
  H   H7        1.0  0.0074699999999999975  0.36672999999999994  0.41767  1.0000
  H   H8        1.0  0.9925299999999996  0.6332700000000001  0.58233  1.0000
  N   N1        1.0  0.9503299999999998  0.45795  0.4662500000000001  1.0000
  N   N2        1.0  0.049670000000000006  0.54205  0.53375  1.0000
  O   O1        1.0  0.3892499999999999  0.73857  0.50828  1.0000
  O   O2        1.0  0.6107499999999998  0.26143  0.49172000000000005  1.0000
  O   O3        1.0  0.67839  0.71163  0.48665  1.0000
  O   O4        1.0  0.3216099999999999  0.28837  0.51335  1.0000
  O   O5        1.0  0.3554299999999999  0.51348  0.69404  1.0000
  O   O6        1.0  0.6445699999999999  0.48652000000000006  0.30596  1.0000
  O   O7        1.0  0.6445699999999999  0.4865399999999999  0.67241  1.0000
  O   O8        1.0  0.3554299999999999  0.51346  0.32759000000000005  1.0000
  Zn  Zn1       1.0  0.30694000000000005  0.51799  0.51444  1.0000
  Zn  Zn2       1.0  0.69306  0.48201000000000005  0.4855600000000001  1.0000
