data_image0
_chemical_formula_structural       C40Cr6H24O26C3H7CNCNC3H7C3H7C3H7C3H7CN
_chemical_formula_sum              "C58 Cr6 H59 O26 N3"
_cell_length_a       11.04028
_cell_length_b       10.969780000000002
_cell_length_c       18.79494
_cell_angle_alpha    90.42043
_cell_angle_beta     89.25761
_cell_angle_gamma    59.93796

_space_group_name_H-M_alt    "P 1"
_space_group_IT_number       1

loop_
  _space_group_symop_operation_xyz
  'x, y, z'

loop_
  _atom_site_type_symbol
  _atom_site_label
  _atom_site_symmetry_multiplicity
  _atom_site_fract_x
  _atom_site_fract_y
  _atom_site_fract_z
  _atom_site_occupancy
  C   C1        1.0  0.23646999999999996  0.64655  0.60856  1.0000
  C   C2        1.0  0.63994  0.56988  0.8004800000000001  1.0000
  C   C3        1.0  0.7053600000000001  0.66309  0.8122  1.0000
  C   C4        1.0  0.6675  0.65172  0.6757500000000001  1.0000
  C   C5        1.0  0.82106  0.61849  0.68944  1.0000
  C   C6        1.0  0.6361299999999998  0.54761  0.71929  1.0000
  C   C7        1.0  0.66751  0.16992  0.67242  1.0000
  C   C8        1.0  0.6942099999999999  0.17166  0.8304300000000001  1.0000
  C   C9        1.0  0.8005  0.12593  0.7814400000000001  1.0000
  C   C10       1.0  0.77612  0.16473  0.7059900000000001  1.0000
  C   C11       1.0  0.17973000000000003  0.66836  0.68057  1.0000
  C   C12       1.0  0.6530200000000002  0.62397  0.60081  1.0000
  C   C13       1.0  0.19123  0.6632  0.8383000000000002  1.0000
  C   C14       1.0  0.17379999999999995  0.57401  0.79671  1.0000
  C   C15       1.0  0.20399000000000003  0.55823  0.72033  1.0000
  C   C16       1.0  0.69149  0.68621  0.34035  1.0000
  C   C17       1.0  0.6877300000000001  0.71536  0.17928000000000002  1.0000
  C   C18       1.0  0.7981800000000001  0.66119  0.22294000000000003  1.0000
  C   C19       1.0  0.79865  0.60672  0.29414  1.0000
  C   C20       1.0  0.62721  0.21239  0.31601  1.0000
  C   C21       1.0  0.6317199999999997  0.20674  0.16237  1.0000
  C   C22       1.0  0.519  0.23219  0.20069  1.0000
  C   C23       1.0  0.62577  0.23141  0.60242  1.0000
  C   C24       1.0  0.51155  0.26038  0.27652  1.0000
  C   C25       1.0  0.23915000000000003  0.63729  0.32271  1.0000
  C   C26       1.0  0.14200000000000002  0.66508  0.18171  1.0000
  C   C27       1.0  0.06109999999999999  0.74671  0.23555  1.0000
  C   C28       1.0  0.10161000000000005  0.70982  0.30891  1.0000
  C   C29       1.0  0.7059999999999998  0.09941  0.8972700000000001  1.0000
  C   C30       1.0  0.72398  0.68465  0.88873  1.0000
  C   C31       1.0  0.11909999999999998  0.70591  0.9073800000000001  1.0000
  C   C32       1.0  0.67208  0.11464  0.10092  1.0000
  C   C33       1.0  0.7258199999999999  0.71794  0.10504  1.0000
  C   C34       1.0  0.28906999999999994  0.61978  0.39309  1.0000
  C   C35       1.0  0.09418999999999998  0.70786  0.11178  1.0000
  C   C36       1.0  0.6492  0.62721  0.39815000000000006  1.0000
  C   C37       1.0  0.60977  0.24219  0.39149  1.0000
  C   C38       1.0  0.60219  0.81299  0.78039  1.0000
  C   C39       1.0  0.55707  0.80093  0.70451  1.0000
  C   C40       1.0  0.8524199999999998  0.5920600000000001  0.77015  1.0000
  Cr  Cr1       1.0  0.39301  0.39805  0.50148  1.0000
  Cr  Cr2       1.0  0.39882  0.70798  0.50163  1.0000
  Cr  Cr3       1.0  0.7081399999999998  0.39394  0.49685  1.0000
  Cr  Cr4       1.0  0.93795  0.93845  0.00894  1.0000
  Cr  Cr5       1.0  0.62618  0.93703  0.99475  1.0000
  Cr  Cr6       1.0  0.93779  0.62576  0.00141  1.0000
  H   H1        1.0  0.65449  0.87733  0.78087  1.0000
  H   H2        1.0  0.71145  0.43709000000000003  0.7042  1.0000
  H   H3        1.0  0.89537  0.523  0.65804  1.0000
  H   H4        1.0  0.8510399999999999  0.18401  0.6774200000000001  1.0000
  H   H5        1.0  0.59599  0.14737  0.70147  1.0000
  H   H6        1.0  0.14170000000000002  0.50577  0.81983  1.0000
  H   H7        1.0  0.24664  0.45351  0.69688  1.0000
  H   H8        1.0  0.24095000000000005  0.71936  0.81707  1.0000
  H   H9        1.0  0.5049000000000001  0.8702499999999999  0.81368  1.0000
  H   H10       1.0  0.1337  0.7733  0.70408  1.0000
  H   H11       1.0  0.8997999999999999  0.63182  0.19997  1.0000
  H   H12       1.0  0.6257599999999998  0.7979400000000001  0.33277  1.0000
  H   H13       1.0  0.43916999999999995  0.21294000000000002  0.17911  1.0000
  H   H14       1.0  0.40766  0.31182  0.30105  1.0000
  H   H15       1.0  0.70742  0.23356  0.18245000000000003  1.0000
  H   H16       1.0  0.73131  0.16351  0.29235  1.0000
  H   H17       1.0  0.96243  0.84231  0.22548000000000004  1.0000
  H   H18       1.0  0.45577000000000006  0.80249  0.70952  1.0000
  H   H19       1.0  0.23104  0.56042  0.18909  1.0000
  H   H20       1.0  0.31968  0.60483  0.28161  1.0000
  H   H21       1.0  0.9081599999999999  0.64716  0.7879700000000001  1.0000
  H   H22       1.0  0.70069  0.46693000000000007  0.82706  1.0000
  H   H23       1.0  0.53184  0.62252  0.82359  1.0000
  H   H24       1.0  0.53131  0.56299  0.70605  1.0000
  O   O1        1.0  0.50711  0.25628  0.5803  1.0000
  O   O2        1.0  0.52464  0.69537  0.4251  1.0000
  O   O3        1.0  0.73589  0.50439  0.41598  1.0000
  O   O4        1.0  0.69056  0.27782  0.42235  1.0000
  O   O5        1.0  0.49999  0.49998999999999993  0.49998  1.0000
  O   O6        1.0  0.08918999999999998  0.82587  0.93232  1.0000
  O   O7        1.0  0.81907  0.053960000000000015  0.9314400000000002  1.0000
  O   O8        1.0  0.60707  0.07644  0.91646  1.0000
  O   O9        1.0  0.6471100000000001  0.80655  0.91769  1.0000
  O   O10       1.0  0.8370800000000002  0.59386  0.9153  1.0000
  O   O11       1.0  0.06477000000000002  0.63608  0.93255  1.0000
  O   O12       1.0  0.28082999999999997  0.52719  0.5779400000000001  1.0000
  O   O13       1.0  0.06824999999999999  0.8292  0.09294  1.0000
  O   O14       1.0  0.79965  0.05704  0.08033  1.0000
  O   O15       1.0  0.58613  0.07976  0.07708  1.0000
  O   O16       1.0  0.6277  0.80963  0.06658  1.0000
  O   O17       1.0  0.8161399999999999  0.59718  0.07592  1.0000
  O   O18       1.0  0.045359999999999984  0.63917  0.08144  1.0000
  O   O19       1.0  0.83398  0.83375  0.0017  1.0000
  O   O20       1.0  0.26136  0.73899  0.58427  1.0000
  O   O21       1.0  0.53259  0.69478  0.57437  1.0000
  O   O22       1.0  0.74447  0.50375  0.577  1.0000
  O   O23       1.0  0.6985200000000001  0.27723  0.57162  1.0000
  O   O24       1.0  0.4985299999999999  0.25692  0.41928  1.0000
  O   O25       1.0  0.27288  0.52778  0.42868000000000006  1.0000
  O   O26       1.0  0.25278  0.73963  0.42325000000000007  1.0000
  C   C41       1.0  0.9576000000000001  0.42675  0.77628  1.0000
  C   C42       1.0  0.014459999999999992  0.35446  0.84814  1.0000
  C   C43       1.0  0.14633999999999997  0.21097  0.83749  1.0000
  H   H25       1.0  0.13641999999999996  0.15397  0.79118  1.0000
  H   H26       1.0  0.2377699999999999  0.22552  0.82796  1.0000
  H   H27       1.0  0.16572999999999996  0.14689  0.88596  1.0000
  H   H28       1.0  0.04725000000000001  0.41365  0.88289  1.0000
  H   H29       1.0  0.9334900000000002  0.33972  0.87608  1.0000
  H   H30       1.0  0.9141999999999999  0.36671  0.75009  1.0000
  H   H31       1.0  0.05096  0.4034  0.7428800000000001  1.0000
  C   C44       1.0  0.9449500000000001  0.04046  0.79953  1.0000
  N   N1        1.0  0.06211999999999992  0.9746900000000002  0.81257  1.0000
  C   C45       1.0  0.5625600000000001  0.29473  0.81777  1.0000
  N   N2        1.0  0.45827000000000007  0.39544  0.80745  1.0000
  C   C46       1.0  0.91769  0.4589500000000001  0.31212000000000006  1.0000
  C   C47       1.0  0.04669000000000003  0.39487  0.26203  1.0000
  C   C48       1.0  0.16023  0.25332  0.28947  1.0000
  H   H32       1.0  0.19978999999999997  0.26803  0.34102  1.0000
  H   H33       1.0  0.11780999999999998  0.1814  0.29717  1.0000
  H   H34       1.0  0.24885  0.20478  0.2505  1.0000
  H   H35       1.0  0.017029999999999983  0.37883  0.20792  1.0000
  H   H36       1.0  0.09103999999999998  0.46576  0.25903  1.0000
  H   H37       1.0  0.95576  0.46429000000000004  0.36595  1.0000
  H   H38       1.0  0.87581  0.38547  0.31239  1.0000
  C   C49       1.0  0.5356  0.77823  0.20634  1.0000
  C   C50       1.0  0.41719999999999996  0.83673  0.15214  1.0000
  C   C51       1.0  0.27615000000000006  0.89414  0.19025  1.0000
  H   H39       1.0  0.19056999999999996  0.94361  0.15151  1.0000
  H   H40       1.0  0.27143000000000006  0.80827  0.21782000000000004  1.0000
  H   H41       1.0  0.26131  0.97503  0.23039  1.0000
  H   H42       1.0  0.41215000000000007  0.92791  0.12418000000000001  1.0000
  H   H43       1.0  0.43234  0.75314  0.11327  1.0000
  H   H44       1.0  0.5271699999999999  0.69696  0.23752  1.0000
  H   H45       1.0  0.51163  0.87038  0.24067  1.0000
  C   C52       1.0  0.98771  0.76184  0.36635  1.0000
  C   C53       1.0  0.9466899999999999  0.90916  0.3951100000000001  1.0000
  C   C54       1.0  0.89786  0.92851  0.47284  1.0000
  H   H46       1.0  0.86876  0.03588  0.49182  1.0000
  H   H47       1.0  0.8052899999999998  0.91446  0.47855  1.0000
  H   H48       1.0  0.9834499999999998  0.8510300000000001  0.50647  1.0000
  H   H49       1.0  0.032899999999999895  0.9327800000000002  0.3897  1.0000
  H   H50       1.0  0.8606000000000001  0.9873099999999999  0.3629800000000001  1.0000
  H   H51       1.0  0.89292  0.76799  0.34373000000000004  1.0000
  H   H52       1.0  0.018980000000000052  0.68416  0.4097  1.0000
  C   C55       1.0  0.5275099999999999  0.9289700000000001  0.6577400000000001  1.0000
  C   C56       1.0  0.38658  0.06135000000000001  0.67663  1.0000
  C   C57       1.0  0.26077  0.05489  0.6479  1.0000
  H   H53       1.0  0.27501  0.02904  0.59006  1.0000
  H   H54       1.0  0.24482000000000004  0.9756899999999998  0.67638  1.0000
  H   H55       1.0  0.16467  0.15916  0.65582  1.0000
  H   H56       1.0  0.37573  0.07835  0.73505  1.0000
  H   H57       1.0  0.38516000000000006  0.15442  0.65317  1.0000
  H   H58       1.0  0.61079  0.9543599999999999  0.66501  1.0000
  H   H59       1.0  0.5299899999999997  0.90672  0.6000800000000001  1.0000
  C   C58       1.0  0.85027  0.72709  0.66213  1.0000
  N   N3        1.0  0.8736699999999998  0.8117  0.64034  1.0000
