data_image0
_chemical_formula_structural       C49Cr6H17NO26
_chemical_formula_sum              "C49 Cr6 H17 N1 O26"
_cell_length_a       10.73107
_cell_length_b       10.73099
_cell_length_c       17.10167
_cell_angle_alpha    100.00328
_cell_angle_beta     99.74210999999998
_cell_angle_gamma    60.39079

_symmetry_space_group_name_H-M    'P 1'
_symmetry_Int_Tables_number       1

loop_
  _symmetry_equiv_pos_as_xyz
  'x,y,z'

loop_
  _atom_site_type_symbol
  _atom_site_label
  _atom_site_symmetry_multiplicity
  _atom_site_fract_x
  _atom_site_fract_y
  _atom_site_fract_z
  _atom_site_occupancy
  C   C1        1.0  0.35472000000000004  0.77749  0.40171  1.0000
  C   C2        1.0  0.8519099999999997  0.31777  0.33132  1.0000
  C   C3        1.0  0.31781999999999994  0.8620900000000001  0.16882  1.0000
  C   C4        1.0  0.39852  0.36762  0.35395  1.0000
  C   C5        1.0  0.45375999999999983  0.8138900000000002  0.21226  1.0000
  C   C6        1.0  0.46225  0.82072  0.29606  1.0000
  C   C7        1.0  0.20519999999999997  0.89812  0.28781  1.0000
  C   C8        1.0  0.19439999999999988  0.90788  0.20804  1.0000
  C   C9        1.0  0.58089  0.75853  0.1746  1.0000
  C   C10       1.0  0.7119799999999998  0.7243300000000001  0.21964  1.0000
  C   C11       1.0  0.7180999999999997  0.74807  0.30244  1.0000
  C   C12       1.0  0.81161  0.23647  0.19183  1.0000
  C   C13       1.0  0.5943499999999999  0.79846  0.34046  1.0000
  C   C14       1.0  0.33892000000000005  0.84603  0.33152  1.0000
  C   C15       1.0  0.29911000000000004  0.2751  0.79919  1.0000
  C   C16       1.0  0.78032  0.37242  0.40475  1.0000
  C   C17       1.0  0.42636  0.17420000000000002  0.76254  1.0000
  C   C18       1.0  0.4777299999999998  0.22266  0.71134  1.0000
  C   C19       1.0  0.24624  0.44377999999999995  0.70594  1.0000
  C   C20       1.0  0.20866000000000004  0.40827  0.76921  1.0000
  C   C21       1.0  0.50804  0.028369999999999992  0.77871  1.0000
  C   C22       1.0  0.64724  0.9415000000000001  0.75669  1.0000
  C   C23       1.0  0.8225899999999997  0.22096000000000002  0.27324  1.0000
  C   C24       1.0  0.7081300000000003  0.99866  0.71804  1.0000
  C   C25       1.0  0.62407  0.13774  0.69535  1.0000
  C   C26       1.0  0.37964  0.35158  0.6759  1.0000
  C   C27       1.0  0.77235  0.36767  0.71474  1.0000
  C   C28       1.0  0.35788  0.76931  0.62748  1.0000
  C   C29       1.0  0.8166  0.32867  0.78052  1.0000
  C   C30       1.0  0.33909  0.80907  0.70952  1.0000
  C   C31       1.0  0.3134400000000001  0.83648  0.77758  1.0000
  C   C32       1.0  0.8978699999999998  0.30833  0.08998  1.0000
  C   C33       1.0  0.29673000000000005  0.26868  0.12445000000000002  1.0000
  C   C34       1.0  0.91211  0.39378  0.3095  1.0000
  C   C35       1.0  0.29156999999999994  0.8957600000000001  0.08713  1.0000
  C   C36       1.0  0.8806799999999994  0.3002  0.86014  1.0000
  C   C37       1.0  0.27894  0.25206  0.877  1.0000
  C   C38       1.0  0.27951  0.88387  0.85737  1.0000
  C   C39       1.0  0.40678999999999993  0.3751  0.60018  1.0000
  C   C40       1.0  0.7204499999999998  0.41101  0.63585  1.0000
  C   C41       1.0  0.35475000000000007  0.34123  0.27331  1.0000
  C   C42       1.0  0.3237499999999999  0.31209  0.20509  1.0000
  C   C43       1.0  0.86385  0.32205000000000006  0.17055  1.0000
  C   C44       1.0  0.8555099999999999  0.91384  0.69971  1.0000
  C   C45       1.0  0.9225100000000002  0.39175  0.23011  1.0000
  C   C46       1.0  0.7536199999999998  0.16205000000000003  0.13436  1.0000
  C   C47       1.0  0.7253899999999998  0.06045  0.1565  1.0000
  C   C48       1.0  0.7514499999999998  0.03417  0.23575  1.0000
  C   C49       1.0  0.80157  0.11116  0.29352  1.0000
  Cr  Cr1       1.0  0.6081  0.61086  0.52225  1.0000
  Cr  Cr2       1.0  0.2888899999999999  0.5999900000000001  0.48842  1.0000
  Cr  Cr3       1.0  0.6030399999999999  0.28919  0.48938999999999994  1.0000
  Cr  Cr4       1.0  0.05396  0.05224999999999999  0.9673799999999999  1.0000
  Cr  Cr5       1.0  0.05988999999999995  0.37316  0.9927099999999999  1.0000
  Cr  Cr6       1.0  0.37337  0.06168999999999998  0.9917099999999999  1.0000
  H   H1        1.0  0.94447  0.46069000000000004  0.35358  1.0000
  H   H2        1.0  0.7299699999999999  0.18114000000000002  0.0722  1.0000
  H   H3        1.0  0.9760299999999997  0.44658  0.21546  1.0000
  H   H4        1.0  0.68565  0.00016999999999999952  0.11199  1.0000
  H   H5        1.0  0.7311999999999999  0.95556  0.25327  1.0000
  H   H6        1.0  0.82797  0.07981  0.35335  1.0000
  H   H7        1.0  0.10961999999999997  0.92297  0.31432  1.0000
  H   H8        1.0  0.5807599999999998  0.73962  0.1104  1.0000
  H   H9        1.0  0.08711999999999995  0.9510100000000002  0.17698  1.0000
  H   H10       1.0  0.80785  0.68626  0.19005  1.0000
  H   H11       1.0  0.8187199999999998  0.72967  0.33725  1.0000
  H   H12       1.0  0.6033899999999999  0.8238800000000001  0.4044  1.0000
  H   H13       1.0  0.17124999999999996  0.54364  0.68078  1.0000
  H   H14       1.0  0.46629  0.98098  0.80964  1.0000
  H   H15       1.0  0.10956999999999997  0.48543  0.79505  1.0000
  H   H16       1.0  0.7084299999999999  0.8316200000000002  0.77205  1.0000
  H   H17       1.0  0.6743199999999999  0.17766  0.6649  1.0000
  N   N1        1.0  0.97394  0.84594  0.685  1.0000
  O   O1        1.0  0.74981  0.49979  0.43804  1.0000
  O   O2        1.0  0.41172999999999993  0.18102  0.09153  1.0000
  O   O3        1.0  0.36500999999999995  0.9443600000000001  0.06332  1.0000
  O   O4        1.0  0.4776599999999999  0.72626  0.43929  1.0000
  O   O5        1.0  0.15938  0.90667  0.87621  1.0000
  O   O6        1.0  0.93082  0.17742  0.88673  1.0000
  O   O7        1.0  0.9103599999999997  0.39542  0.89572  1.0000
  O   O8        1.0  0.18601  0.36173  0.91987  1.0000
  O   O9        1.0  0.39999999999999997  0.17301  0.91463  1.0000
  O   O10       1.0  0.35413999999999995  0.93694  0.89934  1.0000
  O   O11       1.0  0.16241000000000003  0.16237  0.98393  1.0000
  O   O12       1.0  0.29896999999999996  0.4688  0.55739  1.0000
  O   O13       1.0  0.2601499999999999  0.743  0.41227  1.0000
  O   O14       1.0  0.29773999999999995  0.4665500000000001  0.39472  1.0000
  O   O15       1.0  0.48808000000000007  0.2535  0.38643  1.0000
  O   O16       1.0  0.72267  0.3038  0.42194  1.0000
  O   O17       1.0  0.75113  0.50222  0.61352  1.0000
  O   O18       1.0  0.4788899999999999  0.72851  0.60196  1.0000
  O   O19       1.0  0.26146999999999987  0.74543  0.58775  1.0000
  O   O20       1.0  0.4893999999999999  0.25593  0.56191  1.0000
  O   O21       1.0  0.72389  0.30605000000000004  0.58461  1.0000
  O   O22       1.0  0.5000099999999997  0.50001  0.50002  1.0000
  O   O23       1.0  0.17110000000000006  0.91468  0.0531  1.0000
  O   O24       1.0  0.94168  0.18484  0.05071  1.0000
  O   O25       1.0  0.9220799999999999  0.40342  0.07261  1.0000
  O   O26       1.0  0.19688  0.36915  0.08385  1.0000
