data_image0
_chemical_formula_structural       C38Cl2H26N4O12Zn2
_chemical_formula_sum              "C38 Cl2 H26 N4 O12 Zn2"
_cell_length_a       7.74902
_cell_length_b       8.57919
_cell_length_c       22.99218
_cell_angle_alpha    90.87294
_cell_angle_beta     85.8716
_cell_angle_gamma    93.14513

_symmetry_space_group_name_H-M    'P 1'
_symmetry_Int_Tables_number       1

loop_
  _symmetry_equiv_pos_as_xyz
  'x,y,z'

loop_
  _atom_site_type_symbol
  _atom_site_label
  _atom_site_symmetry_multiplicity
  _atom_site_fract_x
  _atom_site_fract_y
  _atom_site_fract_z
  _atom_site_occupancy
  C   C1        1.0  0.5446900000000005  0.79451  0.4986200000000001  1.0000
  C   C2        1.0  0.4051000000000001  0.43478999999999995  0.29101  1.0000
  C   C3        1.0  0.6253100000000003  0.7186  0.7452600000000001  1.0000
  C   C4        1.0  0.4076900000000001  0.46669  0.23139000000000004  1.0000
  C   C5        1.0  0.52246  0.63323  0.78822  1.0000
  C   C6        1.0  0.50201  0.6023799999999998  0.20988  1.0000
  C   C7        1.0  0.5624100000000002  0.9548  0.48831  1.0000
  C   C8        1.0  0.4379300000000002  0.0452  0.51201  1.0000
  C   C9        1.0  0.50264  0.50273  0.61086  1.0000
  C   C10       1.0  0.49819  0.50151  0.38915000000000005  1.0000
  C   C11       1.0  0.6643500000000002  0.5978099999999997  0.11709000000000001  1.0000
  C   C12       1.0  0.45536000000000004  0.20548  0.50152  1.0000
  C   C13       1.0  0.39884000000000003  0.72526  0.8807900000000002  1.0000
  C   C14       1.0  0.38257  0.70025  0.12435  1.0000
  C   C15       1.0  0.6789  0.61912  0.87422  1.0000
  C   C16       1.0  0.38895  0.71929  0.06389  1.0000
  C   C17       1.0  0.6848899999999999  0.6264999999999998  0.9347200000000001  1.0000
  C   C18       1.0  0.5363200000000002  0.6728999999999998  0.029830000000000002  1.0000
  C   C19       1.0  0.5405100000000003  0.67927  0.96869  1.0000
  C   C20       1.0  0.6771600000000002  0.6149999999999998  0.056670000000000005  1.0000
  C   C21       1.0  0.3975  0.73243  0.94164  1.0000
  C   C22       1.0  0.25009  0.7781799999999998  0.03664  1.0000
  C   C23       1.0  0.41278999999999993  0.5064599999999998  0.77241  1.0000
  C   C24       1.0  0.8277800000000002  0.5757  0.96199  1.0000
  C   C25       1.0  0.25440999999999997  0.7848299999999999  0.976  1.0000
  C   C26       1.0  0.8240600000000002  0.57022  0.02252  1.0000
  C   C27       1.0  0.73509  0.86367  0.75968  1.0000
  C   C28       1.0  0.6588400000000001  0.01047  0.73683  1.0000
  C   C29       1.0  0.76592  0.15786  0.7524700000000001  1.0000
  C   C30       1.0  0.31766  0.35082  0.19178  1.0000
  C   C31       1.0  0.12027000000000004  0.34891  0.20355  1.0000
  C   C32       1.0  0.029640000000000007  0.237  0.16182  1.0000
  C   C33       1.0  0.5934000000000003  0.7007799999999997  0.24725  1.0000
  C   C34       1.0  0.40607  0.46198999999999996  0.7142900000000001  1.0000
  C   C35       1.0  0.59358  0.66532  0.3058  1.0000
  C   C36       1.0  0.51404  0.54065  0.67198  1.0000
  C   C37       1.0  0.49928999999999996  0.53284  0.3276  1.0000
  C   C38       1.0  0.623  0.6680899999999997  0.68725  1.0000
  Cl  Cl1       1.0  0.7241299999999999  0.01279  0.43268  1.0000
  Cl  Cl2       1.0  0.27693  0.9871999999999999  0.56787  1.0000
  H   H1        1.0  0.13605  0.81554  0.06194  1.0000
  H   H2        1.0  0.33448999999999995  0.33143  0.3086  1.0000
  H   H3        1.0  0.013949999999999999  0.38178999999999996  0.45662  1.0000
  H   H4        1.0  0.9860399999999999  0.61819  0.54339  1.0000
  H   H5        1.0  0.76648  0.17171  0.80058  1.0000
  H   H6        1.0  0.9012899999999999  0.15209999999999996  0.7333900000000001  1.0000
  H   H7        1.0  0.70881  0.26158000000000003  0.7348000000000001  1.0000
  H   H8        1.0  0.65541  0.0030100000000000014  0.68861  1.0000
  H   H9        1.0  0.52397  0.0197  0.75615  1.0000
  H   H10       1.0  0.7445100000000002  0.87795  0.8074  1.0000
  H   H11       1.0  0.8690200000000002  0.8523299999999998  0.73981  1.0000
  H   H12       1.0  0.9410200000000003  0.53652  0.9367100000000003  1.0000
  H   H13       1.0  0.05854000000000002  0.27535  0.11604  1.0000
  H   H14       1.0  0.07297  0.11672  0.16637  1.0000
  H   H15       1.0  0.8873300000000001  0.23547999999999997  0.17213  1.0000
  H   H16       1.0  0.08292  0.31158  0.249  1.0000
  H   H17       1.0  0.07533999999999999  0.46821  0.19816000000000003  1.0000
  H   H18       1.0  0.35161  0.37737  0.14513  1.0000
  H   H19       1.0  0.3633500000000001  0.23261  0.19923  1.0000
  H   H20       1.0  0.14352000000000012  0.82707  0.95616  1.0000
  H   H21       1.0  0.9344800000000002  0.5268899999999997  0.04233  1.0000
  H   H22       1.0  0.3339100000000001  0.44147  0.80553  1.0000
  H   H23       1.0  0.66707  0.80337  0.23045  1.0000
  H   H24       1.0  0.31941  0.36514  0.70242  1.0000
  H   H25       1.0  0.66583  0.7419399999999999  0.3343  1.0000
  H   H26       1.0  0.70208  0.73133  0.6536  1.0000
  N   N1        1.0  0.51683  0.63586  0.14912000000000003  1.0000
  N   N2        1.0  0.53619  0.6656399999999998  0.8488  1.0000
  N   N3        1.0  0.9503300000000002  0.45795  0.48456000000000005  1.0000
  N   N4        1.0  0.04967000000000003  0.54205  0.51544  1.0000
  O   O1        1.0  0.38925000000000004  0.73857  0.50379  1.0000
  O   O2        1.0  0.26272  0.77361  0.85374  1.0000
  O   O3        1.0  0.24292  0.74299  0.15807  1.0000
  O   O4        1.0  0.8122  0.5618299999999999  0.84097  1.0000
  O   O5        1.0  0.6107500000000002  0.26143  0.49621  1.0000
  O   O6        1.0  0.6783900000000002  0.71162  0.49389  1.0000
  O   O7        1.0  0.32161  0.28838  0.50611  1.0000
  O   O8        1.0  0.3554  0.51352  0.58879  1.0000
  O   O9        1.0  0.6446  0.48647999999999997  0.41121  1.0000
  O   O10       1.0  0.64455  0.48657  0.5789  1.0000
  O   O11       1.0  0.35545000000000015  0.51343  0.4211  1.0000
  O   O12       1.0  0.7964  0.5403299999999998  0.14368  1.0000
  Zn  Zn1       1.0  0.30693  0.518  0.50661  1.0000
  Zn  Zn2       1.0  0.6930700000000002  0.48199999999999993  0.49339000000000005  1.0000
