data_image0
_chemical_formula_structural       C42Cr6H12O27CH3OCH4OCH4OCH3
_chemical_formula_sum              "C46 Cr6 H26 O30"
_cell_length_a       10.63449
_cell_length_b       10.62324
_cell_length_c       16.92445
_cell_angle_alpha    98.54152
_cell_angle_beta     98.78149
_cell_angle_gamma    61.94064

_space_group_name_H-M_alt    "P 1"
_space_group_IT_number       1

loop_
  _space_group_symop_operation_xyz
  'x, y, z'

loop_
  _atom_site_type_symbol
  _atom_site_label
  _atom_site_symmetry_multiplicity
  _atom_site_fract_x
  _atom_site_fract_y
  _atom_site_fract_z
  _atom_site_occupancy
  C   C1        1.0  0.35246000000000005  0.77958  0.4002  1.0000
  C   C2        1.0  0.66165  0.38276999999999994  0.23337999999999995  1.0000
  C   C3        1.0  0.7599900000000003  0.3795099999999999  0.31058999999999987  1.0000
  C   C4        1.0  0.8780599999999997  0.23864  0.27845999999999993  1.0000
  C   C5        1.0  0.9384200000000003  0.32214  0.24347999999999997  1.0000
  C   C6        1.0  0.81864  0.46452  0.27559  1.0000
  C   C7        1.0  0.7202600000000001  0.46868  0.19766  1.0000
  C   C8        1.0  0.83891  0.32752  0.16641999999999996  1.0000
  C   C9        1.0  0.41422999999999993  0.89831  0.23824999999999993  1.0000
  C   C10       1.0  0.46697999999999995  0.7522  0.27014  1.0000
  C   C11       1.0  0.3389  0.8235100000000001  0.32117  1.0000
  C   C12       1.0  0.36984  0.34634  0.35911  1.0000
  C   C13       1.0  0.28866000000000014  0.97026  0.2907399999999999  1.0000
  C   C14       1.0  0.19603999999999988  0.9305400000000001  0.22214999999999993  1.0000
  C   C15       1.0  0.24541999999999997  0.7843  0.25338  1.0000
  C   C16       1.0  0.37251  0.71382  0.20168  1.0000
  C   C17       1.0  0.32347  0.8586499999999999  0.17088999999999993  1.0000
  C   C18       1.0  0.45195000000000013  0.23371999999999996  0.7677599999999998  1.0000
  C   C19       1.0  0.42537000000000014  0.37087  0.73417  1.0000
  C   C20       1.0  0.33521  0.33443  0.6622999999999998  1.0000
  C   C21       1.0  0.36377000000000004  0.19642000000000004  0.69628  1.0000
  C   C22       1.0  0.22655  0.28507  0.7406399999999997  1.0000
  C   C23       1.0  0.7125900000000002  0.4122  0.39022  1.0000
  C   C24       1.0  0.20099000000000003  0.42236  0.7062999999999998  1.0000
  C   C25       1.0  0.28896  0.45899999999999996  0.7787699999999997  1.0000
  C   C26       1.0  0.31799999999999995  0.32032  0.81233  1.0000
  C   C27       1.0  0.7721400000000002  0.3659999999999999  0.71518  1.0000
  C   C28       1.0  0.8160700000000002  0.32872  0.78187  1.0000
  C   C29       1.0  0.3570399999999999  0.7665  0.7144999999999998  1.0000
  C   C30       1.0  0.32542  0.81261  0.78194  1.0000
  C   C31       1.0  0.8919  0.30978  0.09027999999999997  1.0000
  C   C32       1.0  0.31875  0.29862  0.12047999999999999  1.0000
  C   C33       1.0  0.2945300000000001  0.8915899999999999  0.08874  1.0000
  C   C34       1.0  0.3788999999999999  0.71697  0.6318599999999998  1.0000
  C   C35       1.0  0.8795  0.3019  0.8620199999999998  1.0000
  C   C36       1.0  0.30762  0.29311  0.89134  1.0000
  C   C37       1.0  0.28188  0.88075  0.8595999999999998  1.0000
  C   C38       1.0  0.36659  0.34549  0.58471  1.0000
  C   C39       1.0  0.7202699999999999  0.40925  0.6356999999999998  1.0000
  C   C40       1.0  0.34206  0.33511  0.27544  1.0000
  C   C41       1.0  0.33061  0.32462  0.20421  1.0000
  C   C42       1.0  0.78226  0.23914000000000002  0.2001  1.0000
  Cr  Cr1       1.0  0.60834  0.61104  0.52043  1.0000
  Cr  Cr2       1.0  0.28765  0.60112  0.48935  1.0000
  Cr  Cr3       1.0  0.60404  0.28787  0.49028  1.0000
  Cr  Cr4       1.0  0.054020000000000026  0.05269999999999997  0.9708499999999999  1.0000
  Cr  Cr5       1.0  0.059230000000000005  0.37512  0.99339  1.0000
  Cr  Cr6       1.0  0.3749500000000001  0.0612  0.99234  1.0000
  H   H1        1.0  0.54785  0.40864  0.23249  1.0000
  H   H2        1.0  0.08607000000000002  0.0016399999999999984  0.19747  1.0000
  H   H3        1.0  0.17328999999999994  0.73836  0.25996  1.0000
  H   H4        1.0  0.4023300000000001  0.61318  0.1619  1.0000
  H   H5        1.0  0.5065699999999999  0.40609  0.72971  1.0000
  H   H6        1.0  0.39308  0.09114  0.66115  1.0000
  H   H7        1.0  0.14293000000000003  0.25284  0.74571  1.0000
  H   H8        1.0  0.26031  0.5638  0.81429  1.0000
  H   H9        1.0  0.053350000000000015  0.29455  0.24559  1.0000
  H   H10       1.0  0.8349500000000001  0.55589  0.30709  1.0000
  H   H11       1.0  0.57581  0.6881  0.29772  1.0000
  H   H12       1.0  0.25639999999999996  0.07341999999999999  0.3284799999999999  1.0000
  O   O1        1.0  0.75122  0.49923  0.4351699999999999  1.0000
  O   O2        1.0  0.29788  0.46908  0.56005  1.0000
  O   O3        1.0  0.48972  0.25459  0.56481  1.0000
  O   O4        1.0  0.7252200000000002  0.30423  0.58508  1.0000
  O   O5        1.0  0.50001  0.50001  0.50002  1.0000
  O   O6        1.0  0.17183000000000007  0.91388  0.05750999999999999  1.0000
  O   O7        1.0  0.9406900000000001  0.18605  0.054729999999999994  1.0000
  O   O8        1.0  0.92047  0.40572  0.07501  1.0000
  O   O9        1.0  0.19669  0.37046  0.08411999999999997  1.0000
  O   O10       1.0  0.41299  0.18075  0.09160999999999997  1.0000
  O   O11       1.0  0.36662  0.9431300000000001  0.06576  1.0000
  O   O12       1.0  0.47722  0.7276  0.4368699999999999  1.0000
  O   O13       1.0  0.16051000000000007  0.90633  0.87921  1.0000
  O   O14       1.0  0.93019  0.17905000000000001  0.88945  1.0000
  O   O15       1.0  0.9091400000000002  0.39817  0.89671  1.0000
  O   O16       1.0  0.18619000000000005  0.36345999999999995  0.91883  1.0000
  O   O17       1.0  0.40166999999999997  0.17319999999999994  0.9133099999999997  1.0000
  O   O18       1.0  0.35612000000000005  0.9361299999999999  0.90047  1.0000
  O   O19       1.0  0.16274  0.16301  0.98553  1.0000
  O   O20       1.0  0.25865  0.74512  0.4114699999999999  1.0000
  O   O21       1.0  0.2970700000000001  0.46724  0.39595999999999987  1.0000
  O   O22       1.0  0.48882999999999993  0.25261  0.38779  1.0000
  O   O23       1.0  0.7244  0.30239  0.42098  1.0000
  O   O24       1.0  0.7520999999999999  0.50121  0.61219  1.0000
  O   O25       1.0  0.47804000000000013  0.72944  0.60097  1.0000
  O   O26       1.0  0.25953000000000004  0.7471099999999999  0.58849  1.0000
  O   O27       1.0  0.58459  0.13932000000000003  0.80583  1.0000
  C   C43       1.0  0.68093  0.05881000000000002  0.74766  1.0000
  H   H13       1.0  0.68987  0.12833  0.70799  1.0000
  H   H14       1.0  0.6494600000000003  0.98018  0.71134  1.0000
  H   H15       1.0  0.7886600000000002  0.9975699999999998  0.7788599999999998  1.0000
  O   O28       1.0  0.07069000000000003  0.51793  0.66696  1.0000
  C   C44       1.0  0.97314  0.60034  0.7242799999999999  1.0000
  H   H16       1.0  0.008819999999999962  0.6731899999999998  0.7638199999999998  1.0000
  H   H17       1.0  0.95599  0.53157  0.76063  1.0000
  H   H18       1.0  0.86851  0.66876  0.69239  1.0000
  H   H19       1.0  0.7672000000000001  0.14854  0.16637  1.0000
  O   O29       1.0  0.9680300000000001  0.12663  0.32743  1.0000
  C   C45       1.0  0.91562  0.025989999999999975  0.3224499999999999  1.0000
  H   H20       1.0  0.91307  0.9746400000000001  0.26048  1.0000
  H   H21       1.0  0.8088499999999998  0.07492999999999997  0.3446799999999999  1.0000
  H   H22       1.0  0.9884900000000002  0.9403099999999999  0.3616399999999999  1.0000
  H   H23       1.0  0.65927  0.56065  0.16055  1.0000
  O   O30       1.0  0.497  0.9608  0.22148  1.0000
  C   C46       1.0  0.6032800000000001  0.9456300000000001  0.2849699999999999  1.0000
  H   H24       1.0  0.6917600000000002  0.83442  0.28226  1.0000
  H   H25       1.0  0.5601600000000001  0.97673  0.3446799999999999  1.0000
  H   H26       1.0  0.64718  0.01808999999999999  0.27706  1.0000
