data_image0
_chemical_formula_structural       C112Cr12H60O52H4Cl4
_chemical_formula_sum              "C112 Cr12 H64 O52 Cl4"
_cell_length_a       18.8667
_cell_length_b       11.03372
_cell_length_c       18.756599999999995
_cell_angle_alpha    89.98357
_cell_angle_beta     90.23287
_cell_angle_gamma    90.13673000000001

_symmetry_space_group_name_H-M    'P 1'
_symmetry_Int_Tables_number       1

loop_
  _symmetry_equiv_pos_as_xyz
  'x,y,z'

loop_
  _atom_site_type_symbol
  _atom_site_label
  _atom_site_symmetry_multiplicity
  _atom_site_fract_x
  _atom_site_fract_y
  _atom_site_fract_z
  _atom_site_occupancy
  C   C1        1.0  0.72757  0.95222  0.85283  1.0000
  C   C2        1.0  0.27244  0.95236  0.14711  1.0000
  C   C3        1.0  0.22757000000000002  0.45223  0.85283  1.0000
  C   C4        1.0  0.77244  0.45236  0.14711  1.0000
  C   C5        1.0  0.6826600000000002  0.39188  0.05185  1.0000
  C   C6        1.0  0.31723  0.39134  0.94795  1.0000
  C   C7        1.0  0.18266  0.8918800000000001  0.05185  1.0000
  C   C8        1.0  0.81723  0.89133  0.94795  1.0000
  C   C9        1.0  0.67131  0.36213  0.98071  1.0000
  C   C10       1.0  0.32855  0.36175  0.0191  1.0000
  C   C11       1.0  0.17132  0.86213  0.98071  1.0000
  C   C12       1.0  0.82855  0.86174  0.0191  1.0000
  C   C13       1.0  0.79185  0.29873  0.9711900000000001  1.0000
  C   C14       1.0  0.20752  0.30022  0.029060000000000002  1.0000
  C   C15       1.0  0.29186  0.79876  0.9711900000000001  1.0000
  C   C16       1.0  0.70752  0.80024  0.02907  1.0000
  C   C17       1.0  0.8028  0.32071  0.04291  1.0000
  C   C18       1.0  0.19665  0.32155  0.9573000000000002  1.0000
  C   C19       1.0  0.3028  0.8207199999999999  0.04291  1.0000
  C   C20       1.0  0.69665  0.82156  0.9573000000000002  1.0000
  C   C21       1.0  0.6262900000000001  0.48574  0.05087  1.0000
  C   C22       1.0  0.37442  0.48421000000000003  0.9485  1.0000
  C   C23       1.0  0.12628  0.98571  0.05088  1.0000
  C   C24       1.0  0.8744300000000002  0.98417  0.9484900000000002  1.0000
  C   C25       1.0  0.61467  0.45476  0.97242  1.0000
  C   C26       1.0  0.38599  0.4535  0.02699  1.0000
  C   C27       1.0  0.11466  0.9547399999999999  0.97243  1.0000
  C   C28       1.0  0.8860000000000001  0.95347  0.026980000000000004  1.0000
  C   C29       1.0  0.72807  0.32887  0.9371400000000001  1.0000
  C   C30       1.0  0.27165000000000006  0.32954  0.06287  1.0000
  C   C31       1.0  0.22807000000000002  0.82889  0.9371400000000001  1.0000
  C   C32       1.0  0.7716500000000001  0.82954  0.06288  1.0000
  C   C33       1.0  0.5052900000000001  0.16019  0.42203  1.0000
  C   C34       1.0  0.5138400000000001  0.17117  0.56969  1.0000
  C   C35       1.0  0.0053  0.66019  0.42203  1.0000
  C   C36       1.0  0.01385  0.67117  0.56968  1.0000
  C   C37       1.0  0.54044  0.25667  0.45435  1.0000
  C   C38       1.0  0.54253  0.2624  0.52694  1.0000
  C   C39       1.0  0.04045  0.75667  0.45435  1.0000
  C   C40       1.0  0.04255  0.76239  0.52694  1.0000
  C   C41       1.0  0.49072  0.06384  0.53762  1.0000
  C   C42       1.0  0.48711  0.05762  0.46356  1.0000
  C   C43       1.0  0.9907200000000002  0.56385  0.53761  1.0000
  C   C44       1.0  0.9871100000000002  0.55763  0.46356  1.0000
  C   C45       1.0  0.52987  0.17767  0.85074  1.0000
  C   C46       1.0  0.47013000000000005  0.17782  0.14927  1.0000
  C   C47       1.0  0.02987  0.67767  0.85074  1.0000
  C   C48       1.0  0.97013  0.67782  0.14927  1.0000
  C   C49       1.0  0.53366  0.39177  0.44784000000000007  1.0000
  C   C50       1.0  0.53173  0.39614000000000005  0.52842  1.0000
  C   C51       1.0  0.03367  0.89177  0.44784000000000007  1.0000
  C   C52       1.0  0.03177  0.89614  0.52842  1.0000
  C   C53       1.0  0.75992  0.43299  0.42825  1.0000
  C   C54       1.0  0.251  0.39395  0.5823500000000001  1.0000
  C   C55       1.0  0.25978  0.9327299999999998  0.42817  1.0000
  C   C56       1.0  0.7510100000000002  0.89399  0.58234  1.0000
  C   C57       1.0  0.81058  0.36515  0.46430000000000005  1.0000
  C   C58       1.0  0.20111  0.32363  0.54517  1.0000
  C   C59       1.0  0.31028  0.86447  0.46416  1.0000
  C   C60       1.0  0.7011300000000001  0.8235999999999999  0.54518  1.0000
  C   C61       1.0  0.8088600000000002  0.35392  0.53681  1.0000
  C   C62       1.0  0.20972  0.2974  0.47422000000000003  1.0000
  C   C63       1.0  0.30858  0.85323  0.53667  1.0000
  C   C64       1.0  0.70974  0.79737  0.47423000000000004  1.0000
  C   C65       1.0  0.71273  0.49645  0.54317  1.0000
  C   C66       1.0  0.32523  0.38929  0.47686000000000006  1.0000
  C   C67       1.0  0.21277  0.99639  0.54313  1.0000
  C   C68       1.0  0.82521  0.88941  0.47683  1.0000
  C   C69       1.0  0.7137400000000002  0.50552  0.46860000000000007  1.0000
  C   C70       1.0  0.31611000000000006  0.41840999999999995  0.5493000000000001  1.0000
  C   C71       1.0  0.21375  0.00547  0.4685599999999999  1.0000
  C   C72       1.0  0.81609  0.9185399999999999  0.54927  1.0000
  C   C73       1.0  0.8321200000000002  0.23692  0.45261  1.0000
  C   C74       1.0  0.12318  0.34356  0.53553  1.0000
  C   C75       1.0  0.3313400000000001  0.7360100000000002  0.45244000000000006  1.0000
  C   C76       1.0  0.6232  0.8434600000000001  0.5355500000000001  1.0000
  C   C77       1.0  0.82958  0.22305  0.5327400000000001  1.0000
  C   C78       1.0  0.13301  0.31668  0.45735000000000003  1.0000
  C   C79       1.0  0.32883000000000007  0.72215  0.5325600000000001  1.0000
  C   C80       1.0  0.63302  0.81659  0.45737  1.0000
  C   C81       1.0  0.75631  0.41136  0.577  1.0000
  C   C82       1.0  0.26952  0.33589  0.4374700000000001  1.0000
  C   C83       1.0  0.25623  0.91108  0.57691  1.0000
  C   C84       1.0  0.7695200000000002  0.8359200000000001  0.43746000000000007  1.0000
  C   C85       1.0  0.72355  0.31111  0.8598200000000001  1.0000
  C   C86       1.0  0.27637  0.31121  0.14012  1.0000
  C   C87       1.0  0.22356000000000004  0.8111099999999999  0.8598200000000001  1.0000
  C   C88       1.0  0.7763700000000001  0.8112100000000001  0.14012  1.0000
  C   C89       1.0  0.72849  0.95304  0.64815  1.0000
  C   C90       1.0  0.2728300000000001  0.95803  0.35369000000000006  1.0000
  C   C91       1.0  0.22850000000000004  0.45303  0.64815  1.0000
  C   C92       1.0  0.77286  0.45809  0.35372  1.0000
  C   C93       1.0  0.53088  0.17672  0.644  1.0000
  C   C94       1.0  0.47103  0.17548  0.35437  1.0000
  C   C95       1.0  0.03088  0.67673  0.644  1.0000
  C   C96       1.0  0.9710300000000001  0.67548  0.35437  1.0000
  C   C97       1.0  0.74042  0.3628700000000001  0.64688  1.0000
  C   C98       1.0  0.27444  0.31198  0.3610900000000001  1.0000
  C   C99       1.0  0.24040000000000003  0.86284  0.64686  1.0000
  C   C100      1.0  0.77444  0.8119900000000001  0.3610900000000001  1.0000
  C   C101      1.0  0.49706  0.16857  0.9209100000000001  1.0000
  C   C102      1.0  0.50301  0.16887  0.07913  1.0000
  C   C103      1.0  0.99706  0.66856  0.9209100000000001  1.0000
  C   C104      1.0  0.00301  0.66887  0.07913  1.0000
  C   C105      1.0  0.4920900000000001  0.07068  0.03827  1.0000
  C   C106      1.0  0.50809  0.07064  0.9619  1.0000
  C   C107      1.0  0.9920800000000001  0.57068  0.03827  1.0000
  C   C108      1.0  0.00808  0.57064  0.9619  1.0000
  C   C109      1.0  0.75076  0.38625  0.08224  1.0000
  C   C110      1.0  0.24902000000000002  0.3863  0.9177300000000002  1.0000
  C   C111      1.0  0.25076  0.88625  0.08224  1.0000
  C   C112      1.0  0.7490200000000001  0.8863  0.9177300000000002  1.0000
  Cr  Cr1       1.0  0.7692600000000002  0.16375  0.7507300000000001  1.0000
  Cr  Cr2       1.0  0.23074000000000003  0.16375  0.24927  1.0000
  Cr  Cr3       1.0  0.26926  0.66375  0.7507300000000001  1.0000
  Cr  Cr4       1.0  0.73074  0.66375  0.24927  1.0000
  Cr  Cr5       1.0  0.61264  0.00991  0.74878  1.0000
  Cr  Cr6       1.0  0.38736  0.00991  0.25122  1.0000
  Cr  Cr7       1.0  0.11264000000000002  0.50991  0.74878  1.0000
  Cr  Cr8       1.0  0.88736  0.50991  0.25122  1.0000
  Cr  Cr9       1.0  0.61419  0.3224  0.74771  1.0000
  Cr  Cr10      1.0  0.3858100000000001  0.3224  0.25229000000000007  1.0000
  Cr  Cr11      1.0  0.11419  0.8224  0.74771  1.0000
  Cr  Cr12      1.0  0.88581  0.8224  0.25229000000000007  1.0000
  H   H1        1.0  0.46998000000000006  0.9884300000000001  0.060689999999999994  1.0000
  H   H2        1.0  0.5302100000000001  0.98856  0.93957  1.0000
  H   H3        1.0  0.96996  0.48844  0.06068  1.0000
  H   H4        1.0  0.0302  0.48855  0.93957  1.0000
  H   H5        1.0  0.9843800000000001  0.92566  0.42326  1.0000
  H   H6        1.0  0.07665000000000001  0.94493  0.55282  1.0000
  H   H7        1.0  0.48438  0.42567  0.42324  1.0000
  H   H8        1.0  0.5765900000000002  0.44494000000000006  0.55283  1.0000
  H   H9        1.0  0.58208  0.43265  0.42477  1.0000
  H   H10       1.0  0.47903  0.42140000000000005  0.5499  1.0000
  H   H11       1.0  0.08209  0.93265  0.42476  1.0000
  H   H12       1.0  0.97909  0.92143  0.54992  1.0000
  H   H13       1.0  0.67541  0.54964  0.57356  1.0000
  H   H14       1.0  0.37320000000000003  0.41649  0.45060000000000006  1.0000
  H   H15       1.0  0.17555000000000004  0.04975  0.57355  1.0000
  H   H16       1.0  0.8731600000000002  0.91668  0.45056  1.0000
  H   H17       1.0  0.6779700000000001  0.56713  0.44236000000000003  1.0000
  H   H18       1.0  0.35691  0.46885  0.57717  1.0000
  H   H19       1.0  0.17807  0.06729  0.44235  1.0000
  H   H20       1.0  0.8568700000000001  0.96905  0.57712  1.0000
  H   H21       1.0  0.8866100000000001  0.22977000000000003  0.4307000000000001  1.0000
  H   H22       1.0  0.10825000000000001  0.43900000000000006  0.54573  1.0000
  H   H23       1.0  0.38578  0.7282700000000001  0.43048000000000003  1.0000
  H   H24       1.0  0.60823  0.93888  0.54575  1.0000
  H   H25       1.0  0.7910100000000001  0.18276  0.42417  1.0000
  H   H26       1.0  0.09087  0.27423  0.56371  1.0000
  H   H27       1.0  0.29001000000000005  0.68229  0.42403  1.0000
  H   H28       1.0  0.59091  0.7741  0.56373  1.0000
  H   H29       1.0  0.7862  0.162  0.5504200000000001  1.0000
  H   H30       1.0  0.10518000000000001  0.2329  0.44001000000000007  1.0000
  H   H31       1.0  0.28524  0.66156  0.55028  1.0000
  H   H32       1.0  0.6052  0.7328100000000001  0.44003  1.0000
  H   H33       1.0  0.8823900000000001  0.20568  0.55715  1.0000
  H   H34       1.0  0.12372000000000001  0.39713  0.42281  1.0000
  H   H35       1.0  0.3816  0.70422  0.5569300000000001  1.0000
  H   H36       1.0  0.6237  0.89704  0.42284  1.0000
  H   H37       1.0  0.52751  0.24948000000000004  0.05687  1.0000
  H   H38       1.0  0.47258000000000006  0.24901000000000004  0.9431000000000002  1.0000
  H   H39       1.0  0.02752  0.7494700000000001  0.05687  1.0000
  H   H40       1.0  0.97257  0.74901  0.9431000000000002  1.0000
  H   H41       1.0  0.14793  0.07696  0.05994  1.0000
  H   H42       1.0  0.8536700000000002  0.0758  0.93923  1.0000
  H   H43       1.0  0.64795  0.57698  0.05993  1.0000
  H   H44       1.0  0.35364  0.57583  0.9392400000000001  1.0000
  H   H45       1.0  0.58064  0.46074  0.08518  1.0000
  H   H46       1.0  0.41974  0.45814  0.91412  1.0000
  H   H47       1.0  0.08063  0.96069  0.08519  1.0000
  H   H48       1.0  0.91975  0.95808  0.91411  1.0000
  H   H49       1.0  0.56197  0.41361  0.9616200000000001  1.0000
  H   H50       1.0  0.43837  0.4116  0.03775  1.0000
  H   H51       1.0  0.06197  0.91358  0.96163  1.0000
  H   H52       1.0  0.9383800000000001  0.91155  0.03774  1.0000
  H   H53       1.0  0.63051  0.5279  0.9351900000000001  1.0000
  H   H54       1.0  0.37088  0.52708  0.06411  1.0000
  H   H55       1.0  0.13049  0.02789  0.9352000000000001  1.0000
  H   H56       1.0  0.8709000000000001  0.02706  0.0641  1.0000
  H   H57       1.0  0.47414  0.9869  0.56941  1.0000
  H   H58       1.0  0.46294  0.97795  0.43995000000000006  1.0000
  H   H59       1.0  0.9741300000000002  0.48691999999999996  0.56941  1.0000
  H   H60       1.0  0.96294  0.47796  0.43995000000000006  1.0000
  O   O1        1.0  0.78429  0.29036  0.83054  1.0000
  O   O2        1.0  0.21571  0.29036  0.16946  1.0000
  O   O3        1.0  0.28429  0.79036  0.83054  1.0000
  O   O4        1.0  0.71571  0.79036  0.16946  1.0000
  O   O5        1.0  0.5546900000000001  0.08044  0.6734800000000001  1.0000
  O   O6        1.0  0.44531  0.08044  0.32652000000000003  1.0000
  O   O7        1.0  0.05469000000000001  0.58044  0.6734800000000001  1.0000
  O   O8        1.0  0.9453100000000001  0.58044  0.32652000000000003  1.0000
  O   O9        1.0  0.54398  0.28211  0.66677  1.0000
  O   O10       1.0  0.45602000000000004  0.28211  0.33323  1.0000
  O   O11       1.0  0.04398  0.7821100000000001  0.66677  1.0000
  O   O12       1.0  0.95602  0.7821100000000001  0.33323  1.0000
  O   O13       1.0  0.67907  0.37403  0.67443  1.0000
  O   O14       1.0  0.32093  0.37403  0.32557  1.0000
  O   O15       1.0  0.17907000000000003  0.87403  0.67443  1.0000
  O   O16       1.0  0.82093  0.87403  0.32557  1.0000
  O   O17       1.0  0.6653600000000001  0.16535  0.74907  1.0000
  O   O18       1.0  0.33464  0.16535  0.25093000000000004  1.0000
  O   O19       1.0  0.16536  0.66535  0.74907  1.0000
  O   O20       1.0  0.83464  0.66535  0.25093000000000004  1.0000
  O   O21       1.0  0.76261  0.04107  0.82523  1.0000
  O   O22       1.0  0.23739  0.04107  0.17477  1.0000
  O   O23       1.0  0.26261  0.54107  0.82523  1.0000
  O   O24       1.0  0.73739  0.54107  0.17477  1.0000
  O   O25       1.0  0.66739  0.92416  0.82997  1.0000
  O   O26       1.0  0.3326100000000001  0.92416  0.17003  1.0000
  O   O27       1.0  0.16739  0.42416  0.82997  1.0000
  O   O28       1.0  0.83261  0.42416  0.17003  1.0000
  O   O29       1.0  0.55398  0.08142  0.82178  1.0000
  O   O30       1.0  0.4460200000000001  0.08142  0.17822000000000002  1.0000
  O   O31       1.0  0.05398000000000001  0.58142  0.82178  1.0000
  O   O32       1.0  0.9460200000000001  0.58142  0.17822000000000002  1.0000
  O   O33       1.0  0.54321  0.28317  0.82674  1.0000
  O   O34       1.0  0.45679  0.28317  0.17326  1.0000
  O   O35       1.0  0.04321000000000001  0.78317  0.82674  1.0000
  O   O36       1.0  0.9567900000000001  0.78317  0.17326  1.0000
  O   O37       1.0  0.67835  0.375  0.8227200000000001  1.0000
  O   O38       1.0  0.32165  0.375  0.17728  1.0000
  O   O39       1.0  0.17835  0.8750000000000001  0.8227200000000001  1.0000
  O   O40       1.0  0.8216500000000002  0.8750000000000001  0.17728  1.0000
  O   O41       1.0  0.78506  0.2893  0.6705800000000001  1.0000
  O   O42       1.0  0.21494  0.2893  0.32942000000000005  1.0000
  O   O43       1.0  0.28506  0.7893  0.6705800000000001  1.0000
  O   O44       1.0  0.71494  0.7893  0.32942000000000005  1.0000
  O   O45       1.0  0.76333  0.04009  0.67694  1.0000
  O   O46       1.0  0.23667  0.04009  0.32306000000000007  1.0000
  O   O47       1.0  0.26333  0.54009  0.67694  1.0000
  O   O48       1.0  0.7366700000000002  0.54009  0.32306000000000007  1.0000
  O   O49       1.0  0.66816  0.92311  0.67  1.0000
  O   O50       1.0  0.33184  0.92311  0.33  1.0000
  O   O51       1.0  0.16816  0.42311  0.67  1.0000
  O   O52       1.0  0.83184  0.42311  0.33  1.0000
  H   H61       1.0  0.83677  0.26711  0.9411300000000001  1.0000
  H   H62       1.0  0.1624  0.26935  0.05926  1.0000
  H   H63       1.0  0.33678  0.76716  0.94112  1.0000
  H   H64       1.0  0.66239  0.76938  0.05927  1.0000
  Cl  Cl1       1.0  0.8872600000000002  0.27464  0.07447  1.0000
  Cl  Cl2       1.0  0.11199000000000002  0.27552  0.9258900000000001  1.0000
  Cl  Cl3       1.0  0.38727  0.77465  0.07447  1.0000
  Cl  Cl4       1.0  0.61199  0.7755300000000002  0.9258900000000001  1.0000
