data_image0
_chemical_formula_structural       O16H8C8H16O4V4H8C72F8
_chemical_formula_sum              "O20 H32 C80 V4 F8"
_cell_length_a       7.22262
_cell_length_b       12.12553
_cell_length_c       29.11042
_cell_angle_alpha    89.99883999999999
_cell_angle_beta     89.95496
_cell_angle_gamma    90.24603

_space_group_name_H-M_alt    "P 1"
_space_group_IT_number       1

loop_
  _space_group_symop_operation_xyz
  'x, y, z'

loop_
  _atom_site_type_symbol
  _atom_site_label
  _atom_site_symmetry_multiplicity
  _atom_site_fract_x
  _atom_site_fract_y
  _atom_site_fract_z
  _atom_site_occupancy
  O   O1        1.0  0.6471700000000002  0.84918  0.20122  1.0000
  O   O2        1.0  0.35283  0.15082  0.79878  1.0000
  O   O3        1.0  0.35283  0.15082  0.7012199999999998  1.0000
  O   O4        1.0  0.6471700000000002  0.84918  0.29878  1.0000
  O   O5        1.0  0.14717  0.6508200000000001  0.29878  1.0000
  O   O6        1.0  0.8528300000000002  0.34918000000000005  0.7012199999999998  1.0000
  O   O7        1.0  0.8528300000000002  0.34918000000000005  0.79878  1.0000
  O   O8        1.0  0.14717  0.6508200000000001  0.20122  1.0000
  O   O9        1.0  0.3174300000000001  0.86221  0.29845  1.0000
  O   O10       1.0  0.68257  0.13779  0.70155  1.0000
  O   O11       1.0  0.68257  0.13779  0.79845  1.0000
  O   O12       1.0  0.3174300000000001  0.86221  0.20154999999999998  1.0000
  O   O13       1.0  0.81743  0.6377900000000001  0.20154999999999998  1.0000
  O   O14       1.0  0.18257  0.36221000000000003  0.79845  1.0000
  O   O15       1.0  0.18257  0.36221000000000003  0.70155  1.0000
  O   O16       1.0  0.81743  0.6377900000000001  0.29845  1.0000
  H   H1        1.0  0.9640900000000002  0.22410000000000005  0.45527  1.0000
  H   H2        1.0  0.03591  0.7759000000000003  0.54473  1.0000
  H   H3        1.0  0.028240000000000008  0.77614  0.9551899999999998  1.0000
  H   H4        1.0  0.97176  0.22386000000000006  0.04481  1.0000
  H   H5        1.0  0.54484  0.27521  0.045  1.0000
  H   H6        1.0  0.4551600000000001  0.7247900000000003  0.955  1.0000
  H   H7        1.0  0.4635200000000001  0.72438  0.54503  1.0000
  H   H8        1.0  0.53648  0.27562  0.45497  1.0000
  C   C1        1.0  0.48601  0.88779  0.31335  1.0000
  C   C2        1.0  0.51399  0.11221000000000002  0.68664  1.0000
  C   C3        1.0  0.5138800000000001  0.11221000000000002  0.81335  1.0000
  C   C4        1.0  0.48612  0.88779  0.18665  1.0000
  C   C5        1.0  0.9854800000000002  0.6121700000000001  0.18662999999999993  1.0000
  C   C6        1.0  0.014520000000000003  0.38783  0.81337  1.0000
  C   C7        1.0  0.01463  0.38784  0.68663  1.0000
  C   C8        1.0  0.9853700000000002  0.6121600000000001  0.31336999999999987  1.0000
  H   H9        1.0  0.9586200000000002  0.26012  0.37375999999999987  1.0000
  H   H10       1.0  0.04138  0.73988  0.62624  1.0000
  H   H11       1.0  0.0338  0.7401100000000003  0.8736699999999998  1.0000
  H   H12       1.0  0.9662000000000002  0.25989  0.12632  1.0000
  H   H13       1.0  0.5412400000000003  0.23908  0.12653  1.0000
  H   H14       1.0  0.45876  0.7609200000000002  0.8734699999999999  1.0000
  H   H15       1.0  0.4671300000000001  0.7605  0.62655  1.0000
  H   H16       1.0  0.53287  0.2395  0.37345  1.0000
  H   H17       1.0  0.9858100000000002  0.33775  0.59962  1.0000
  H   H18       1.0  0.01419  0.66225  0.40038  1.0000
  H   H19       1.0  0.010570000000000001  0.6624500000000001  0.09958  1.0000
  H   H20       1.0  0.9894300000000001  0.33755  0.90042  1.0000
  H   H21       1.0  0.52711  0.1622  0.90054  1.0000
  H   H22       1.0  0.4728900000000001  0.8378000000000002  0.09946  1.0000
  H   H23       1.0  0.4769500000000001  0.83757  0.40056  1.0000
  H   H24       1.0  0.52305  0.16243  0.59944  1.0000
  O   O17       1.0  0.48063  0.68063  0.25  1.0000
  O   O18       1.0  0.5193700000000002  0.31937000000000004  0.75  1.0000
  O   O19       1.0  0.9806300000000002  0.8193700000000003  0.25  1.0000
  O   O20       1.0  0.01937  0.18063  0.75  1.0000
  V   V1        1.0  0.2058  0.76286  0.25  1.0000
  V   V2        1.0  0.7942  0.23714  0.75  1.0000
  V   V3        1.0  0.7058  0.73714  0.25  1.0000
  V   V4        1.0  0.29420000000000013  0.26286  0.75  1.0000
  H   H25       1.0  0.9751600000000002  0.28331  0.5327  1.0000
  H   H26       1.0  0.02483  0.7166900000000003  0.4673  1.0000
  H   H27       1.0  0.019180000000000006  0.7169200000000001  0.03264  1.0000
  H   H28       1.0  0.9808200000000002  0.28308  0.9673599999999999  1.0000
  H   H29       1.0  0.5358  0.21636  0.96751  1.0000
  H   H30       1.0  0.4642  0.78364  0.03249  1.0000
  H   H31       1.0  0.47038  0.7833200000000002  0.4675299999999999  1.0000
  H   H32       1.0  0.5296200000000002  0.21668  0.53247  1.0000
  C   C9        1.0  0.9910400000000001  0.5340000000000001  0.3517  1.0000
  C   C10       1.0  0.00896  0.466  0.6483  1.0000
  C   C11       1.0  0.008420000000000004  0.4659500000000001  0.8516999999999999  1.0000
  C   C12       1.0  0.9915800000000002  0.53405  0.1483  1.0000
  C   C13       1.0  0.4954800000000001  0.9657300000000001  0.14829  1.0000
  C   C14       1.0  0.50452  0.03427  0.85171  1.0000
  C   C15       1.0  0.50508  0.03427  0.64829  1.0000
  C   C16       1.0  0.49492000000000014  0.9657300000000001  0.3517099999999999  1.0000
  C   C17       1.0  0.9713400000000002  0.34771  0.38061  1.0000
  C   C18       1.0  0.02866000000000001  0.6522900000000001  0.61939  1.0000
  C   C19       1.0  0.023580000000000007  0.65241  0.88056  1.0000
  C   C20       1.0  0.9764200000000001  0.34759000000000007  0.11944  1.0000
  C   C21       1.0  0.52607  0.15167  0.11957  1.0000
  C   C22       1.0  0.47393000000000013  0.8483300000000003  0.88043  1.0000
  C   C23       1.0  0.47953  0.8480700000000001  0.61959  1.0000
  C   C24       1.0  0.52046  0.15193  0.38041  1.0000
  C   C25       1.0  0.97449  0.42080000000000006  0.34373  1.0000
  C   C26       1.0  0.02551000000000001  0.5792  0.65627  1.0000
  C   C27       1.0  0.02173  0.57928  0.84369  1.0000
  C   C28       1.0  0.9782700000000002  0.4207200000000001  0.15631  1.0000
  C   C29       1.0  0.51501  0.07869000000000001  0.15641  1.0000
  C   C30       1.0  0.48499  0.9213100000000002  0.84359  1.0000
  C   C31       1.0  0.48917  0.92112  0.65642  1.0000
  C   C32       1.0  0.5108300000000001  0.07888  0.34358  1.0000
  C   C33       1.0  0.0032400000000000007  0.57411  0.3967  1.0000
  C   C34       1.0  0.99676  0.4258900000000001  0.6033  1.0000
  C   C35       1.0  0.9980600000000002  0.42578  0.8967199999999997  1.0000
  C   C36       1.0  0.00194  0.57422  0.10328  1.0000
  C   C37       1.0  0.4875500000000001  0.92574  0.10322  1.0000
  C   C38       1.0  0.51245  0.07426  0.89677  1.0000
  C   C39       1.0  0.51097  0.07436  0.60322  1.0000
  C   C40       1.0  0.48903000000000013  0.9256400000000001  0.39678  1.0000
  C   C41       1.0  0.9972100000000003  0.5017400000000001  0.43495  1.0000
  C   C42       1.0  0.002790000000000001  0.49827  0.56505  1.0000
  C   C43       1.0  0.0025  0.49823  0.93495  1.0000
  C   C44       1.0  0.9975  0.50177  0.06505  1.0000
  C   C45       1.0  0.49936000000000014  0.9980700000000001  0.06505  1.0000
  C   C46       1.0  0.50064  0.00193  0.93495  1.0000
  C   C47       1.0  0.50094  0.00194  0.56505  1.0000
  C   C48       1.0  0.4990600000000001  0.9980600000000002  0.43495  1.0000
  C   C49       1.0  0.9818600000000002  0.3869700000000001  0.4259099999999999  1.0000
  C   C50       1.0  0.01815  0.61303  0.57409  1.0000
  C   C51       1.0  0.014660000000000001  0.6131100000000002  0.92588  1.0000
  C   C52       1.0  0.9853400000000002  0.38689  0.07412  1.0000
  C   C53       1.0  0.51847  0.11259000000000002  0.07421  1.0000
  C   C54       1.0  0.4815300000000001  0.8874100000000003  0.92579  1.0000
  C   C55       1.0  0.48534  0.88724  0.57422  1.0000
  C   C56       1.0  0.5146600000000002  0.11276000000000001  0.42578  1.0000
  C   C57       1.0  0.00408  0.53924  0.48161  1.0000
  C   C58       1.0  0.9959200000000002  0.46076000000000006  0.51839  1.0000
  C   C59       1.0  0.9968900000000003  0.46071  0.98163  1.0000
  C   C60       1.0  0.00311  0.53929  0.018369999999999994  1.0000
  C   C61       1.0  0.4934  0.96078  0.01835  1.0000
  C   C62       1.0  0.5066000000000002  0.03922  0.9816499999999999  1.0000
  C   C63       1.0  0.5055300000000001  0.03928  0.51834  1.0000
  C   C64       1.0  0.4944700000000001  0.9607200000000002  0.48166  1.0000
  C   C65       1.0  0.9819400000000001  0.34752000000000005  0.50725  1.0000
  C   C66       1.0  0.01806  0.6524800000000001  0.49275  1.0000
  C   C67       1.0  0.014010000000000003  0.6526300000000002  0.00721  1.0000
  C   C68       1.0  0.98599  0.34737  0.99279  1.0000
  C   C69       1.0  0.5249600000000001  0.1522  0.9929  1.0000
  C   C70       1.0  0.47504  0.8478000000000001  0.0071  1.0000
  C   C71       1.0  0.47946000000000005  0.8475800000000002  0.49291  1.0000
  C   C72       1.0  0.52053  0.15242  0.50709  1.0000
  C   C73       1.0  0.9754800000000002  0.31184000000000006  0.46202999999999994  1.0000
  C   C74       1.0  0.02452000000000001  0.6881600000000001  0.53797  1.0000
  C   C75       1.0  0.019269999999999995  0.68832  0.96197  1.0000
  C   C76       1.0  0.9807300000000002  0.31168  0.03803  1.0000
  C   C77       1.0  0.53041  0.18767  0.03816  1.0000
  C   C78       1.0  0.4695900000000001  0.81233  0.9618399999999999  1.0000
  C   C79       1.0  0.47531000000000007  0.81206  0.53818  1.0000
  C   C80       1.0  0.52468  0.18794  0.46182  1.0000
  F   F1        1.0  0.039400000000000004  0.61882  0.69973  1.0000
  F   F2        1.0  0.9606000000000002  0.38118  0.30027  1.0000
  F   F3        1.0  0.9663900000000002  0.38101  0.1998  1.0000
  F   F4        1.0  0.033610000000000015  0.61899  0.8002  1.0000
  F   F5        1.0  0.4763400000000001  0.8818100000000002  0.8000299999999998  1.0000
  F   F6        1.0  0.52366  0.11819000000000003  0.19997  1.0000
  F   F7        1.0  0.51719  0.1185  0.30001  1.0000
  F   F8        1.0  0.48281000000000013  0.8815000000000001  0.6999799999999998  1.0000
