data_image0
_chemical_formula_structural       C60Cu2H78N10O8
_chemical_formula_sum              "C60 Cu2 H78 N10 O8"
_cell_length_a       15.84503
_cell_length_b       13.02487
_cell_length_c       11.75219
_cell_angle_alpha    99.50587
_cell_angle_beta     94.83483
_cell_angle_gamma    91.96772000000001

_space_group_name_H-M_alt    "P 1"
_space_group_IT_number       1

loop_
  _space_group_symop_operation_xyz
  'x, y, z'

loop_
  _atom_site_type_symbol
  _atom_site_label
  _atom_site_symmetry_multiplicity
  _atom_site_fract_x
  _atom_site_fract_y
  _atom_site_fract_z
  _atom_site_occupancy
  C   C1        1.0  0.50097  0.29955  0.47938  1.0000
  C   C2        1.0  0.52907  0.97177  0.45906  1.0000
  C   C3        1.0  0.39772000000000013  0.43846  0.02399  1.0000
  C   C4        1.0  0.59786  0.5719000000000002  0.97792  1.0000
  C   C5        1.0  0.4146700000000001  0.42759  0.14202  1.0000
  C   C6        1.0  0.58262  0.57739  0.8582100000000001  1.0000
  C   C7        1.0  0.5441600000000002  0.52775  0.15641  1.0000
  C   C8        1.0  0.4552  0.4737800000000001  0.8443  1.0000
  C   C9        1.0  0.5361300000000002  0.52477  0.03404  1.0000
  C   C10       1.0  0.4623100000000001  0.47896  0.96693  1.0000
  C   C11       1.0  0.33989  0.4992400000000001  0.49925  1.0000
  C   C12       1.0  0.5010600000000002  0.69995  0.52063  1.0000
  C   C13       1.0  0.66017  0.50024  0.5007  1.0000
  C   C14       1.0  0.9742200000000002  0.43364  0.57118  1.0000
  C   C15       1.0  0.026150000000000003  0.56219  0.42934000000000005  1.0000
  C   C16       1.0  0.022610000000000016  0.40074  0.4628100000000001  1.0000
  C   C17       1.0  0.9779000000000002  0.59511  0.53782  1.0000
  C   C18       1.0  0.25025  0.49850000000000005  0.49818  1.0000
  C   C19       1.0  0.74989  0.4996900000000001  0.50172  1.0000
  C   C20       1.0  0.03571  0.5307  0.60833  1.0000
  C   C21       1.0  0.9647800000000002  0.46504  0.39214  1.0000
  C   C22       1.0  0.08323  0.4973400000000001  0.50043  1.0000
  C   C23       1.0  0.57228  0.027600000000000006  0.3851200000000001  1.0000
  C   C24       1.0  0.91707  0.49857  0.49998000000000004  1.0000
  C   C25       1.0  0.17479  0.49794  0.49885  1.0000
  C   C26       1.0  0.8254000000000002  0.49903  0.5012  1.0000
  C   C27       1.0  0.4929400000000001  0.81119  0.52891  1.0000
  C   C28       1.0  0.5084300000000003  0.18681  0.4695  1.0000
  C   C29       1.0  0.054500000000000014  0.29124  0.42892  1.0000
  C   C30       1.0  0.98161  0.20808  0.40188  1.0000
  C   C31       1.0  0.015250000000000003  0.09888  0.37888  1.0000
  C   C32       1.0  0.9469300000000003  0.7049  0.57297  1.0000
  C   C33       1.0  0.020410000000000005  0.7874100000000003  0.59792  1.0000
  C   C34       1.0  0.4133600000000001  0.96379  0.58522  1.0000
  C   C35       1.0  0.9877100000000002  0.89704  0.62141  1.0000
  C   C36       1.0  0.92072  0.43452  0.26952000000000004  1.0000
  C   C37       1.0  0.9847000000000002  0.40925  0.17916  1.0000
  C   C38       1.0  0.94089  0.38992  0.05636  1.0000
  C   C39       1.0  0.08148000000000004  0.56049  0.7300300000000001  1.0000
  C   C40       1.0  0.019220000000000025  0.5819700000000001  0.8231200000000001  1.0000
  C   C41       1.0  0.06591000000000005  0.6019  0.9442700000000003  1.0000
  C   C42       1.0  0.6911600000000002  0.81684  0.49929  1.0000
  C   C43       1.0  0.48359  0.19842  0.7473000000000001  1.0000
  C   C44       1.0  0.37716  0.79912  0.75683  1.0000
  C   C45       1.0  0.5618700000000002  0.13507  0.39086000000000004  1.0000
  C   C46       1.0  0.5842700000000002  0.1926  0.20694  1.0000
  C   C47       1.0  0.58359  0.91568  0.20048000000000002  1.0000
  C   C48       1.0  0.26893  0.011609999999999987  0.54701  1.0000
  C   C49       1.0  0.63749  0.65865  0.81457  1.0000
  C   C50       1.0  0.61841  0.7698600000000001  0.87116  1.0000
  C   C51       1.0  0.6557000000000002  0.85289  0.8097  1.0000
  C   C52       1.0  0.3544600000000001  0.35288  0.18718  1.0000
  C   C53       1.0  0.35413  0.24009  0.12111000000000001  1.0000
  C   C54       1.0  0.33382  0.15945000000000004  0.19716000000000003  1.0000
  C   C55       1.0  0.28059  0.34515000000000007  0.8876000000000001  1.0000
  C   C56       1.0  0.4257900000000001  0.85808  0.58537  1.0000
  C   C57       1.0  0.7415700000000002  0.5486  0.05237  1.0000
  C   C58       1.0  0.4655100000000001  0.13143  0.5426  1.0000
  C   C59       1.0  0.54572  0.86735  0.46771  1.0000
  C   C60       1.0  0.46865  0.02245999999999999  0.52853  1.0000
  Cu  Cu1       1.0  0.5062  0.50773  0.61593  1.0000
  Cu  Cu2       1.0  0.4938000000000001  0.49227  0.38407  1.0000
  H   H1        1.0  0.9513500000000003  0.38125  0.62881  1.0000
  H   H2        1.0  0.09205  0.28936000000000006  0.35309000000000007  1.0000
  H   H3        1.0  0.09754000000000003  0.27439  0.50258  1.0000
  H   H4        1.0  0.94767  0.9130000000000001  0.54463  1.0000
  H   H5        1.0  0.94986  0.90576  0.69752  1.0000
  H   H6        1.0  0.04219000000000001  0.9551000000000001  0.6398  1.0000
  H   H7        1.0  0.061820000000000014  0.77484  0.67482  1.0000
  H   H8        1.0  0.05901000000000001  0.78154  0.5226  1.0000
  H   H9        1.0  0.9028200000000002  0.72215  0.50063  1.0000
  H   H10       1.0  0.9109100000000002  0.70702  0.65027  1.0000
  H   H11       1.0  0.8914200000000002  0.32573  0.04631  1.0000
  H   H12       1.0  0.049  0.61448  0.37159000000000003  1.0000
  H   H13       1.0  0.9113900000000003  0.46172  0.03654000000000001  1.0000
  H   H14       1.0  0.9883200000000002  0.36782  0.9934000000000001  1.0000
  H   H15       1.0  0.03265  0.47495  0.18693  1.0000
  H   H16       1.0  0.01795000000000001  0.33834000000000003  0.19357  1.0000
  H   H17       1.0  0.8759800000000002  0.36647  0.26663  1.0000
  H   H18       1.0  0.8832700000000002  0.5009400000000003  0.24950000000000003  1.0000
  H   H19       1.0  0.10069  0.5323400000000001  0.96055  1.0000
  H   H20       1.0  0.11154000000000003  0.67012  0.95381  1.0000
  H   H21       1.0  0.01953  0.6183  0.00993  1.0000
  H   H22       1.0  0.98313  0.65139  0.81068  1.0000
  H   H23       1.0  0.40189  0.43286  0.79117  1.0000
  H   H24       1.0  0.9735500000000002  0.5141  0.81658  1.0000
  H   H25       1.0  0.12086000000000002  0.49479000000000006  0.74738  1.0000
  H   H26       1.0  0.12473  0.62993  0.73293  1.0000
  H   H27       1.0  0.6049200000000001  0.75254  0.35997000000000007  1.0000
  H   H28       1.0  0.70633  0.89465  0.55352  1.0000
  H   H29       1.0  0.7464800000000003  0.7945400000000001  0.4502300000000001  1.0000
  H   H30       1.0  0.6800700000000002  0.75778  0.55524  1.0000
  H   H31       1.0  0.3928800000000001  0.24785  0.6282  1.0000
  H   H32       1.0  0.50075  0.12138  0.76864  1.0000
  H   H33       1.0  0.4514100000000001  0.23989000000000002  0.8198500000000002  1.0000
  H   H34       1.0  0.59814  0.56697  0.21009000000000003  1.0000
  H   H35       1.0  0.5425  0.24444000000000002  0.73948  1.0000
  H   H36       1.0  0.3464000000000001  0.72557  0.5851  1.0000
  H   H37       1.0  0.40397000000000005  0.72523  0.7750300000000001  1.0000
  H   H38       1.0  0.3147600000000001  0.80642  0.7929900000000001  1.0000
  H   H39       1.0  0.4199900000000001  0.8658  0.8012500000000001  1.0000
  H   H40       1.0  0.64131  0.26226  0.37066  1.0000
  H   H41       1.0  0.5698400000000001  0.27291  0.19384000000000004  1.0000
  H   H42       1.0  0.52633  0.14126  0.1793  1.0000
  H   H43       1.0  0.6349  0.16483  0.1514  1.0000
  H   H44       1.0  0.6785400000000003  0.01997999999999999  0.28983  1.0000
  H   H45       1.0  0.05424000000000001  0.09095  0.30393  1.0000
  H   H46       1.0  0.62946  0.86478  0.1556  1.0000
  H   H47       1.0  0.5581500000000003  0.96751  0.14133  1.0000
  H   H48       1.0  0.53075  0.8653300000000002  0.22062  1.0000
  H   H49       1.0  0.32268  0.98318  0.7054100000000001  1.0000
  H   H50       1.0  0.21701  0.05349000000000002  0.58946  1.0000
  H   H51       1.0  0.24502  0.9311000000000001  0.50842  1.0000
  H   H52       1.0  0.2877400000000001  0.05359  0.47738  1.0000
  H   H53       1.0  0.72415  0.84171  0.80057  1.0000
  H   H54       1.0  0.62113  0.8492800000000001  0.72306  1.0000
  H   H55       1.0  0.64851  0.93136  0.86062  1.0000
  H   H56       1.0  0.05443  0.08302  0.45645  1.0000
  H   H57       1.0  0.54885  0.77799  0.86996  1.0000
  H   H58       1.0  0.6455000000000002  0.7856100000000003  0.96264  1.0000
  H   H59       1.0  0.7056500000000002  0.645  0.83405  1.0000
  H   H60       1.0  0.62961  0.65591  0.72163  1.0000
  H   H61       1.0  0.3835200000000002  0.16340999999999997  0.27032  1.0000
  H   H62       1.0  0.27142  0.17346  0.232  1.0000
  H   H63       1.0  0.3313500000000001  0.07998  0.14493  1.0000
  H   H64       1.0  0.30473000000000006  0.2284  0.04749  1.0000
  H   H65       1.0  0.41629  0.22408000000000003  0.08653  1.0000
  H   H66       1.0  0.3713300000000001  0.34769000000000005  0.27704  1.0000
  H   H67       1.0  0.9612500000000003  0.04022  0.35885  1.0000
  H   H68       1.0  0.2890800000000001  0.38124  0.18235  1.0000
  H   H69       1.0  0.29054  0.50345  0.9574500000000001  1.0000
  H   H70       1.0  0.22092  0.31186  0.9128  1.0000
  H   H71       1.0  0.32697  0.28357  0.8774  1.0000
  H   H72       1.0  0.26582  0.37075  0.80281  1.0000
  H   H73       1.0  0.6664  0.66971  0.11614  1.0000
  H   H74       1.0  0.7999400000000002  0.59351  0.09447000000000001  1.0000
  H   H75       1.0  0.7553  0.50775  0.96565  1.0000
  H   H76       1.0  0.72383  0.49027  0.10643  1.0000
  H   H77       1.0  0.9420000000000002  0.21328  0.47611  1.0000
  H   H78       1.0  0.9410400000000002  0.22058  0.32418  1.0000
  N   N1        1.0  0.5155400000000002  0.51935  0.7901400000000001  1.0000
  N   N2        1.0  0.67415  0.61916  0.04091000000000001  1.0000
  N   N3        1.0  0.4844600000000001  0.48065  0.20986  1.0000
  N   N4        1.0  0.6175500000000003  0.8203  0.41879000000000005  1.0000
  N   N5        1.0  0.42828  0.18506  0.64056  1.0000
  N   N6        1.0  0.3652800000000001  0.79751  0.63297  1.0000
  N   N7        1.0  0.6135600000000002  0.19245  0.32699  1.0000
  N   N8        1.0  0.62654  0.9762  0.3051  1.0000
  N   N9        1.0  0.34005  0.008720000000000009  0.63193  1.0000
  N   N10       1.0  0.3115  0.43314  0.97513  1.0000
  O   O1        1.0  0.5044  0.35446  0.582  1.0000
  O   O2        1.0  0.4956000000000001  0.64554  0.418  1.0000
  O   O3        1.0  0.49392  0.34141  0.3862  1.0000
  O   O4        1.0  0.5060800000000002  0.65859  0.6138  1.0000
  O   O5        1.0  0.38432  0.50652  0.59788  1.0000
  O   O6        1.0  0.61568  0.4934800000000001  0.40212000000000003  1.0000
  O   O7        1.0  0.3738400000000001  0.49346  0.40208000000000005  1.0000
  O   O8        1.0  0.62616  0.50654  0.59792  1.0000
