data_image0
_chemical_formula_structural       O4C2O4C2O2V2C2H4C26H2C32H2O4C2O4C2O2V2F4C2H5C2H5F2C2H5C2H5F2C2H5C2H5F10
_chemical_formula_sum              "O20 C80 V4 H38 F18"
_cell_length_a       21.78379
_cell_length_b       7.1912
_cell_length_c       18.53381
_cell_angle_alpha    90.01156
_cell_angle_beta     96.11224999999999
_cell_angle_gamma    90.00145

_space_group_name_H-M_alt    "P 1"
_space_group_IT_number       1

loop_
  _space_group_symop_operation_xyz
  'x, y, z'

loop_
  _atom_site_type_symbol
  _atom_site_label
  _atom_site_symmetry_multiplicity
  _atom_site_fract_x
  _atom_site_fract_y
  _atom_site_fract_z
  _atom_site_occupancy
  O   O1        1.0  0.44965  0.5065  0.41448  1.0000
  O   O2        1.0  0.55035  0.0065  0.58552  1.0000
  O   O3        1.0  0.43201000000000006  0.17315  0.56025  1.0000
  O   O4        1.0  0.56799  0.67315  0.4397499999999999  1.0000
  C   C1        1.0  0.4159300000000001  0.3445599999999999  0.58058  1.0000
  C   C2        1.0  0.58407  0.84454  0.41942  1.0000
  O   O5        1.0  0.44232  0.17665  0.41348  1.0000
  O   O6        1.0  0.55768  0.6766499999999999  0.58652  1.0000
  O   O7        1.0  0.56073  0.00838  0.4377  1.0000
  O   O8        1.0  0.43927  0.50838  0.5623  1.0000
  C   C3        1.0  0.42841  0.34524999999999995  0.38744  1.0000
  C   C4        1.0  0.57158  0.84528  0.61256  1.0000
  O   O9        1.0  0.5388400000000001  0.33986  0.50812  1.0000
  O   O10       1.0  0.46116  0.83986  0.49188  1.0000
  V   V1        1.0  0.49280000000000007  0.06422  0.49849  1.0000
  V   V2        1.0  0.5072  0.56422  0.50151  1.0000
  C   C5        1.0  0.8735100000000002  0.9028399999999999  0.68875  1.0000
  C   C6        1.0  0.12651  0.40384  0.31126  1.0000
  H   H1        1.0  0.96071  0.90961  0.7528  1.0000
  H   H2        1.0  0.03929  0.4105899999999999  0.24722  1.0000
  H   H3        1.0  0.8963  0.89234  0.63996  1.0000
  H   H4        1.0  0.10372  0.39377  0.36008  1.0000
  C   C7        1.0  0.88607  0.93599  0.81925  1.0000
  C   C8        1.0  0.11394  0.43614  0.18073  1.0000
  C   C9        1.0  0.58651  0.8187999999999998  0.74585  1.0000
  C   C10       1.0  0.41345000000000004  0.318  0.25417  1.0000
  C   C11       1.0  0.62356  0.7989099999999999  0.81125  1.0000
  C   C12       1.0  0.37638  0.29783  0.1888  1.0000
  C   C13       1.0  0.68754  0.8179499999999997  0.81452  1.0000
  C   C14       1.0  0.3124100000000001  0.31717  0.18552  1.0000
  C   C15       1.0  0.71618  0.8705699999999998  0.75225  1.0000
  C   C16       1.0  0.28381  0.3704  0.24775  1.0000
  C   C17       1.0  0.67823  0.876  0.68427  1.0000
  C   C18       1.0  0.32177  0.37616  0.31572  1.0000
  C   C19       1.0  0.78157  0.9019299999999998  0.754  1.0000
  C   C20       1.0  0.21843  0.40204  0.24598999999999996  1.0000
  C   C21       1.0  0.8085800000000001  0.9021199999999998  0.68709  1.0000
  C   C22       1.0  0.19143  0.40286  0.31291  1.0000
  C   C23       1.0  0.7703  0.90304  0.62012  1.0000
  C   C24       1.0  0.22972  0.40411999999999987  0.37987  1.0000
  C   C25       1.0  0.70613  0.8964899999999998  0.62001  1.0000
  C   C26       1.0  0.2939  0.39726  0.37997  1.0000
  C   C27       1.0  0.8214  0.9367699999999998  0.8193  1.0000
  C   C28       1.0  0.17861  0.43657999999999997  0.18067  1.0000
  C   C29       1.0  0.9113000000000002  0.9136  0.75391  1.0000
  C   C30       1.0  0.08871  0.4143399999999999  0.2461  1.0000
  C   C31       1.0  0.613  0.8519399999999998  0.68156  1.0000
  C   C32       1.0  0.38699  0.35178  0.31844  1.0000
  H   H5        1.0  0.6778800000000001  0.8996  0.56825  1.0000
  H   H6        1.0  0.32216  0.40063  0.43172  1.0000
  C   C33       1.0  0.64004  0.7210499999999999  0.31723  1.0000
  C   C34       1.0  0.35994  0.22101999999999997  0.68272  1.0000
  C   C35       1.0  0.63434  0.85584  0.37115000000000004  1.0000
  C   C36       1.0  0.36567000000000005  0.35589  0.62886  1.0000
  C   C37       1.0  0.67596  0.00546  0.37777  1.0000
  C   C38       1.0  0.32409  0.50561  0.62231  1.0000
  C   C39       1.0  0.7233500000000002  0.019089999999999992  0.33222  1.0000
  C   C40       1.0  0.2767  0.51921  0.66784  1.0000
  C   C41       1.0  0.72852  0.8868199999999999  0.27696  1.0000
  C   C42       1.0  0.27149  0.38685999999999987  0.72306  1.0000
  C   C43       1.0  0.6863200000000002  0.73715  0.26932  1.0000
  C   C44       1.0  0.31367  0.23712999999999995  0.7306400000000001  1.0000
  C   C45       1.0  0.7656800000000001  0.16415  0.34166  1.0000
  C   C46       1.0  0.23439  0.66432  0.65845  1.0000
  C   C47       1.0  0.81329  0.18083  0.29798  1.0000
  C   C48       1.0  0.18677000000000002  0.68097  0.70212  1.0000
  C   C49       1.0  0.8194400000000001  0.05362  0.24017000000000002  1.0000
  C   C50       1.0  0.18058  0.55369  0.75988  1.0000
  C   C51       1.0  0.77549  0.90553  0.22939000000000004  1.0000
  C   C52       1.0  0.22452000000000003  0.40556  0.77062  1.0000
  C   C53       1.0  0.7781000000000001  0.77655  0.17156000000000002  1.0000
  C   C54       1.0  0.22189  0.27653  0.82841  1.0000
  C   C55       1.0  0.7359  0.62293  0.16521  1.0000
  C   C56       1.0  0.26408  0.12287999999999998  0.83471  1.0000
  C   C57       1.0  0.69087  0.60643  0.21402  1.0000
  C   C58       1.0  0.30909999999999993  0.10635999999999997  0.7859  1.0000
  C   C59       1.0  0.8679600000000001  0.06755  0.19385  1.0000
  C   C60       1.0  0.13206  0.56759  0.8062  1.0000
  C   C61       1.0  0.8682  0.94379  0.13379  1.0000
  C   C62       1.0  0.13181  0.44377  0.86621  1.0000
  C   C63       1.0  0.82243  0.80619  0.12208  1.0000
  C   C64       1.0  0.17756  0.3061499999999999  0.8778900000000001  1.0000
  H   H7        1.0  0.76263  0.26633  0.38415  1.0000
  H   H8        1.0  0.23746000000000006  0.7665599999999998  0.61601  1.0000
  O   O11       1.0  0.06082000000000001  0.29005  0.9378000000000001  1.0000
  O   O12       1.0  0.9391800000000001  0.79005  0.0622  1.0000
  O   O13       1.0  0.05769  0.61662  0.08654  1.0000
  O   O14       1.0  0.94231  0.11662  0.9134599999999999  1.0000
  C   C65       1.0  0.07190000000000002  0.4482  0.11252  1.0000
  C   C66       1.0  0.92811  0.94817  0.88748  1.0000
  O   O15       1.0  0.06801000000000001  0.61989  0.9397700000000001  1.0000
  O   O16       1.0  0.9319900000000002  0.11988999999999997  0.06023  1.0000
  O   O17       1.0  0.94964  0.78794  0.91446  1.0000
  O   O18       1.0  0.05036  0.28794  0.08554  1.0000
  C   C67       1.0  0.08342  0.45198  0.91783  1.0000
  C   C68       1.0  0.91658  0.95199  0.08218  1.0000
  O   O19       1.0  0.96121  0.45307999999999987  0.99194  1.0000
  O   O20       1.0  0.03879  0.95308  0.00806  1.0000
  V   V3        1.0  0.0072000000000000015  0.72882  0.0015  1.0000
  V   V4        1.0  0.9928  0.22882  0.9984999999999999  1.0000
  F   F1        1.0  0.67111  0.13699  0.42966  1.0000
  F   F2        1.0  0.32899  0.63727  0.5705  1.0000
  F   F3        1.0  0.85187  0.32604  0.31405  1.0000
  F   F4        1.0  0.14821  0.8262099999999999  0.68608  1.0000
  C   C69       1.0  0.92136  0.20435999999999996  0.21022  1.0000
  C   C70       1.0  0.90523  0.3993199999999999  0.18026  1.0000
  H   H9        1.0  0.89868  0.39891  0.12022  1.0000
  H   H10       1.0  0.86224  0.45254  0.19952  1.0000
  H   H11       1.0  0.9428  0.4984999999999999  0.19784  1.0000
  H   H12       1.0  0.9365  0.20917  0.26917  1.0000
  H   H13       1.0  0.9638800000000001  0.15552  0.18821  1.0000
  C   C71       1.0  0.07867  0.70441  0.78987  1.0000
  C   C72       1.0  0.09474  0.89926  0.82002  1.0000
  H   H14       1.0  0.10182999999999999  0.8982299999999999  0.8800299999999999  1.0000
  H   H15       1.0  0.13742  0.95344  0.80031  1.0000
  H   H16       1.0  0.0569  0.9980199999999998  0.80309  1.0000
  H   H17       1.0  0.06355000000000001  0.70948  0.73091  1.0000
  H   H18       1.0  0.03613999999999999  0.65536  0.81179  1.0000
  F   F5        1.0  0.82065  0.70789  0.05940000000000001  1.0000
  F   F6        1.0  0.17931  0.20776999999999995  0.94053  1.0000
  C   C73       1.0  0.7374300000000001  0.46867  0.10912  1.0000
  C   C74       1.0  0.69602  0.51538  0.03977  1.0000
  H   H19       1.0  0.64706  0.52301  0.05122  1.0000
  H   H20       1.0  0.7091600000000001  0.65075  0.01716  1.0000
  H   H21       1.0  0.70032  0.40527  0.9986  1.0000
  H   H22       1.0  0.78478  0.43511  0.09716  1.0000
  H   H23       1.0  0.72131  0.3351599999999999  0.13076  1.0000
  C   C75       1.0  0.26256  0.9686399999999997  0.8908  1.0000
  C   C76       1.0  0.30393000000000003  0.01548  0.9601700000000001  1.0000
  H   H24       1.0  0.3529  0.02315  0.94874  1.0000
  H   H25       1.0  0.29078  0.15087  0.9827699999999999  1.0000
  H   H26       1.0  0.29962  0.90542  0.00134  1.0000
  H   H27       1.0  0.2152  0.935  0.9027200000000001  1.0000
  H   H28       1.0  0.27871000000000007  0.83514  0.8691699999999999  1.0000
  F   F7        1.0  0.65058  0.46137  0.2065  1.0000
  F   F8        1.0  0.34937  0.96127  0.79337  1.0000
  C   C77       1.0  0.7957  0.9160799999999998  0.5471100000000001  1.0000
  C   C78       1.0  0.81262  0.7244  0.51992  1.0000
  H   H29       1.0  0.84835  0.65748  0.55857  1.0000
  H   H30       1.0  0.77104  0.63398  0.51308  1.0000
  H   H31       1.0  0.8309300000000001  0.73849  0.4665  1.0000
  H   H32       1.0  0.7608200000000002  0.97797  0.50616  1.0000
  H   H33       1.0  0.83579  0.01188  0.54928  1.0000
  C   C79       1.0  0.20434000000000002  0.41787  0.45287  1.0000
  C   C80       1.0  0.18738  0.22647999999999996  0.48029  1.0000
  H   H34       1.0  0.15163000000000001  0.15934  0.44171999999999995  1.0000
  H   H35       1.0  0.22894  0.13601  0.4872  1.0000
  H   H36       1.0  0.1691  0.24108  0.5337  1.0000
  H   H37       1.0  0.23924  0.48003  0.49373999999999996  1.0000
  H   H38       1.0  0.16428  0.51375  0.45062  1.0000
  F   F9        1.0  0.79871  0.9896  0.88155  1.0000
  F   F10       1.0  0.20131  0.48885  0.11837000000000002  1.0000
  F   F11       1.0  0.52454  0.79459  0.74447  1.0000
  F   F12       1.0  0.47541  0.29344  0.25556  1.0000
  F   F13       1.0  0.72063  0.7603099999999999  0.87654  1.0000
  F   F14       1.0  0.27928  0.25922  0.12356  1.0000
  F   F15       1.0  0.59742  0.7509199999999999  0.87185  1.0000
  F   F16       1.0  0.40249000000000007  0.24923999999999993  0.12823  1.0000
  F   F17       1.0  0.59884  0.5784999999999999  0.30998000000000003  1.0000
  F   F18       1.0  0.40110000000000007  0.0784  0.68992  1.0000
