data_image0
_chemical_formula_structural       C48Cr6H17O27CH2CH3
_chemical_formula_sum              "C50 Cr6 H22 O27"
_cell_length_a       10.75264
_cell_length_b       10.85837
_cell_length_c       17.074580000000005
_cell_angle_alpha    99.94414
_cell_angle_beta     100.23739
_cell_angle_gamma    60.368339999999996

_symmetry_space_group_name_H-M    'P 1'
_symmetry_Int_Tables_number       1

loop_
  _symmetry_equiv_pos_as_xyz
  'x,y,z'

loop_
  _atom_site_type_symbol
  _atom_site_label
  _atom_site_symmetry_multiplicity
  _atom_site_fract_x
  _atom_site_fract_y
  _atom_site_fract_z
  _atom_site_occupancy
  C   C1        1.0  0.35458999999999996  0.77038  0.39905  1.0000
  C   C2        1.0  0.85329  0.22088999999999998  0.20386  1.0000
  C   C3        1.0  0.87408  0.20816  0.28642  1.0000
  C   C4        1.0  0.90375  0.41700999999999994  0.3144  1.0000
  C   C5        1.0  0.9133400000000002  0.41396  0.23424  1.0000
  C   C6        1.0  0.81183  0.12971  0.152  1.0000
  C   C7        1.0  0.82818  0.00943  0.17897  1.0000
  C   C8        1.0  0.88484  0.97816  0.25776  1.0000
  C   C9        1.0  0.89774  0.08227  0.31296  1.0000
  C   C10       1.0  0.8692300000000001  0.32287  0.33957  1.0000
  C   C11       1.0  0.34830000000000005  0.83167  0.16217  1.0000
  C   C12       1.0  0.36909  0.34678  0.35748  1.0000
  C   C13       1.0  0.4317800000000001  0.87517  0.22371  1.0000
  C   C14       1.0  0.4208999999999999  0.8705800000000001  0.30429  1.0000
  C   C15       1.0  0.2714  0.7558  0.25883  1.0000
  C   C16       1.0  0.27738999999999997  0.7641  0.18074  1.0000
  C   C17       1.0  0.5208000000000002  0.9287  0.20906  1.0000
  C   C18       1.0  0.5865700000000001  0.98301  0.27165  1.0000
  C   C19       1.0  0.58299  0.9695699999999999  0.3499  1.0000
  C   C20       1.0  0.49311000000000005  0.9234899999999998  0.36663  1.0000
  C   C21       1.0  0.3398900000000001  0.81109  0.32082  1.0000
  C   C22       1.0  0.29995  0.27599  0.79928  1.0000
  C   C23       1.0  0.78409  0.37302  0.40745  1.0000
  C   C24       1.0  0.42890000000000006  0.17795  0.76414  1.0000
  C   C25       1.0  0.47893999999999987  0.22787  0.71347  1.0000
  C   C26       1.0  0.24463  0.44187  0.70444  1.0000
  C   C27       1.0  0.20767999999999995  0.40633  0.76776  1.0000
  C   C28       1.0  0.51387  0.03403  0.78131  1.0000
  C   C29       1.0  0.6538599999999999  0.9517900000000001  0.7607  1.0000
  C   C30       1.0  0.71221  0.011500000000000017  0.72299  1.0000
  C   C31       1.0  0.62585  0.14831  0.69972  1.0000
  C   C32       1.0  0.37929  0.35278  0.67612  1.0000
  C   C33       1.0  0.8456600000000001  0.3301  0.7057  1.0000
  C   C34       1.0  0.35498000000000013  0.77555  0.62606  1.0000
  C   C35       1.0  0.89196  0.29442  0.77227  1.0000
  C   C36       1.0  0.32357  0.83923  0.70527  1.0000
  C   C37       1.0  0.28600999999999993  0.8841600000000001  0.77121  1.0000
  C   C38       1.0  0.90671  0.30555  0.09313  1.0000
  C   C39       1.0  0.3196700000000001  0.2998  0.11997  1.0000
  C   C40       1.0  0.29695  0.89135  0.08562  1.0000
  C   C41       1.0  0.94169  0.27394  0.85479  1.0000
  C   C42       1.0  0.27898  0.25327  0.87699  1.0000
  C   C43       1.0  0.24708999999999998  0.9376600000000002  0.85059  1.0000
  C   C44       1.0  0.40683  0.37444  0.60007  1.0000
  C   C45       1.0  0.77714  0.37923  0.62907  1.0000
  C   C46       1.0  0.34274  0.33729  0.27406  1.0000
  C   C47       1.0  0.33219000000000004  0.32685  0.20325  1.0000
  C   C48       1.0  0.878  0.32138  0.1765  1.0000
  Cr  Cr1       1.0  0.6081  0.61086  0.52225  1.0000
  Cr  Cr2       1.0  0.2888899999999999  0.59999  0.48842  1.0000
  Cr  Cr3       1.0  0.60304  0.28919  0.48939000000000005  1.0000
  Cr  Cr4       1.0  0.053960000000000015  0.05224999999999996  0.9673799999999999  1.0000
  Cr  Cr5       1.0  0.059890000000000006  0.37316  0.9927100000000001  1.0000
  Cr  Cr6       1.0  0.3733700000000001  0.06169000000000001  0.9917100000000001  1.0000
  H   H1        1.0  0.9164500000000001  0.49828  0.35628  1.0000
  H   H2        1.0  0.63435  0.04227  0.25951  1.0000
  H   H3        1.0  0.64273  0.00365  0.39821  1.0000
  H   H4        1.0  0.4789500000000001  0.9337699999999999  0.42891  1.0000
  H   H5        1.0  0.16807999999999998  0.53929  0.67794  1.0000
  H   H6        1.0  0.4745600000000001  0.98443  0.81205  1.0000
  H   H7        1.0  0.10745000000000003  0.48103  0.7923  1.0000
  H   H8        1.0  0.7183099999999999  0.84345  0.77635  1.0000
  H   H9        1.0  0.8231500000000002  0.9509  0.71005  1.0000
  H   H10       1.0  0.67485  0.19052  0.6706  1.0000
  H   H11       1.0  0.7658200000000001  0.15056  0.09096  1.0000
  H   H12       1.0  0.78925  0.9465300000000001  0.1387  1.0000
  H   H13       1.0  0.9014100000000003  0.8820499999999999  0.27843  1.0000
  H   H14       1.0  0.92725  0.06407  0.37558  1.0000
  H   H15       1.0  0.21475000000000002  0.70248  0.27036  1.0000
  H   H16       1.0  0.54779  0.92603  0.151  1.0000
  H   H17       1.0  0.21753  0.72589  0.13468  1.0000
  O   O1        1.0  0.74981  0.49979  0.43804  1.0000
  O   O2        1.0  0.2989700000000001  0.46879999999999994  0.55739  1.0000
  O   O3        1.0  0.4894  0.25593  0.56191  1.0000
  O   O4        1.0  0.72389  0.30605  0.58461  1.0000
  O   O5        1.0  0.5000100000000001  0.50001  0.50002  1.0000
  O   O6        1.0  0.17110000000000003  0.91468  0.0531  1.0000
  O   O7        1.0  0.94168  0.18484  0.05071  1.0000
  O   O8        1.0  0.92208  0.40342  0.07261  1.0000
  O   O9        1.0  0.19688  0.36915  0.08385  1.0000
  O   O10       1.0  0.41173000000000004  0.18102  0.09153  1.0000
  O   O11       1.0  0.36501000000000006  0.94436  0.06332  1.0000
  O   O12       1.0  0.47766000000000003  0.72626  0.43929  1.0000
  O   O13       1.0  0.1593800000000002  0.9066699999999999  0.87621  1.0000
  O   O14       1.0  0.93082  0.17742  0.88673  1.0000
  O   O15       1.0  0.9103600000000001  0.39542  0.89572  1.0000
  O   O16       1.0  0.18601000000000004  0.36173  0.91987  1.0000
  O   O17       1.0  0.4  0.17301  0.91463  1.0000
  O   O18       1.0  0.35414  0.93694  0.89934  1.0000
  O   O19       1.0  0.16241  0.16237  0.98393  1.0000
  O   O20       1.0  0.26014999999999994  0.743  0.41227  1.0000
  O   O21       1.0  0.29774  0.46655  0.39472  1.0000
  O   O22       1.0  0.48808  0.2535  0.38643  1.0000
  O   O23       1.0  0.72267  0.3038  0.42194  1.0000
  O   O24       1.0  0.75113  0.50222  0.61352  1.0000
  O   O25       1.0  0.47889000000000004  0.72851  0.60196  1.0000
  O   O26       1.0  0.26147000000000004  0.74543  0.58775  1.0000
  O   O27       1.0  0.96972  0.49314  0.21451  1.0000
  C   C49       1.0  0.8565600000000001  0.6257  0.19226  1.0000
  H   H18       1.0  0.8295899999999998  0.70408  0.24599000000000001  1.0000
  H   H19       1.0  0.75617  0.62161  0.16443  1.0000
  C   C50       1.0  0.9059  0.67544  0.1314  1.0000
  H   H20       1.0  0.97428  0.58878  0.0897  1.0000
  H   H21       1.0  0.8107000000000001  0.7468  0.0932  1.0000
  H   H22       1.0  0.9731800000000002  0.72396  0.16211  1.0000
