data_image0
_chemical_formula_structural       O8C4O8C4O4V4C4H8C52H16CHOCHOCHOCHOCHOCHOCHOCHO
_chemical_formula_sum              "O28 C72 V4 H32"
_cell_length_a       7.23787
_cell_length_b       15.27729
_cell_length_c       22.30411
_cell_angle_alpha    90.0
_cell_angle_beta     90.00002
_cell_angle_gamma    90.00001

_space_group_name_H-M_alt    "P 1"
_space_group_IT_number       1

loop_
  _space_group_symop_operation_xyz
  'x, y, z'

loop_
  _atom_site_type_symbol
  _atom_site_label
  _atom_site_symmetry_multiplicity
  _atom_site_fract_x
  _atom_site_fract_y
  _atom_site_fract_z
  _atom_site_occupancy
  O   O1        1.0  0.39081  0.84481  0.44734  1.0000
  O   O2        1.0  0.10919  0.15519000000000005  0.94734  1.0000
  O   O3        1.0  0.89081  0.65519  0.55266  1.0000
  O   O4        1.0  0.6091899999999999  0.34481  0.05266  1.0000
  O   O5        1.0  0.72055  0.65582  0.44042  1.0000
  O   O6        1.0  0.77945  0.3441800000000001  0.94042  1.0000
  O   O7        1.0  0.22055  0.84418  0.55958  1.0000
  O   O8        1.0  0.27945  0.15582  0.05958  1.0000
  C   C1        1.0  0.55249  0.62743  0.42619  1.0000
  C   C2        1.0  0.94751  0.37256000000000006  0.92619  1.0000
  C   C3        1.0  0.05249  0.87257  0.57381  1.0000
  C   C4        1.0  0.44751  0.12743  0.0738  1.0000
  O   O9        1.0  0.72053  0.8441300000000003  0.44042  1.0000
  O   O10       1.0  0.77947  0.15587  0.94042  1.0000
  O   O11       1.0  0.22053  0.65587  0.55958  1.0000
  O   O12       1.0  0.27946999999999994  0.34413  0.05958  1.0000
  O   O13       1.0  0.89083  0.84481  0.55266  1.0000
  O   O14       1.0  0.60917  0.15519000000000005  0.05266  1.0000
  O   O15       1.0  0.39083  0.65519  0.44734  1.0000
  O   O16       1.0  0.10917  0.34481  0.94734  1.0000
  C   C5        1.0  0.55251  0.8728300000000002  0.42629  1.0000
  C   C6        1.0  0.94749  0.12717  0.92629  1.0000
  C   C7        1.0  0.05251  0.62717  0.57371  1.0000
  C   C8        1.0  0.44749  0.37283  0.07371  1.0000
  O   O17       1.0  0.55731  0.7499800000000001  0.53682  1.0000
  O   O18       1.0  0.94269  0.25002  0.03682  1.0000
  O   O19       1.0  0.05731  0.75002  0.46318  1.0000
  O   O20       1.0  0.44269  0.24998  0.96318  1.0000
  V   V1        1.0  0.8321599999999999  0.7499800000000001  0.49317  1.0000
  V   V2        1.0  0.66784  0.25002  0.9931700000000001  1.0000
  V   V3        1.0  0.33216  0.75002  0.50683  1.0000
  V   V4        1.0  0.16784  0.24998  0.00683  1.0000
  C   C9        1.0  0.9576099999999999  0.6015900000000002  0.86447  1.0000
  C   C10       1.0  0.54239  0.39841  0.36447  1.0000
  C   C11       1.0  0.45761  0.89841  0.13553  1.0000
  C   C12       1.0  0.04239  0.10159000000000003  0.63553  1.0000
  H   H1        1.0  0.9824999999999999  0.5403500000000002  0.9513300000000001  1.0000
  H   H2        1.0  0.5175  0.45965  0.45132999999999995  1.0000
  H   H3        1.0  0.4825  0.95965  0.04867  1.0000
  H   H4        1.0  0.0175  0.04035  0.54867  1.0000
  H   H5        1.0  0.87147  0.71876  0.7762900000000001  1.0000
  H   H6        1.0  0.62853  0.28124  0.27629  1.0000
  H   H7        1.0  0.37147  0.78124  0.22371  1.0000
  H   H8        1.0  0.12853  0.21876  0.72371  1.0000
  C   C13       1.0  0.95444  0.4442700000000001  0.8819600000000001  1.0000
  C   C14       1.0  0.54556  0.55573  0.38196  1.0000
  C   C15       1.0  0.4544399999999999  0.055730000000000016  0.11804  1.0000
  C   C16       1.0  0.04555  0.9442700000000003  0.61804  1.0000
  C   C17       1.0  0.13555  0.47541  0.59761  1.0000
  C   C18       1.0  0.36445  0.5246  0.09761000000000002  1.0000
  C   C19       1.0  0.63555  0.02459  0.40239  1.0000
  C   C20       1.0  0.86445  0.9754  0.90239  1.0000
  C   C21       1.0  0.16854999999999998  0.40808  0.63811  1.0000
  C   C22       1.0  0.33145  0.59192  0.13811  1.0000
  C   C23       1.0  0.66855  0.09192  0.36189  1.0000
  C   C24       1.0  0.83145  0.9080800000000002  0.86189  1.0000
  C   C25       1.0  0.11106  0.41559  0.69745  1.0000
  C   C26       1.0  0.38894  0.58441  0.19745000000000001  1.0000
  C   C27       1.0  0.61106  0.08441  0.30255  1.0000
  C   C28       1.0  0.88894  0.91559  0.80255  1.0000
  C   C29       1.0  0.01562  0.4903400000000001  0.7175600000000001  1.0000
  C   C30       1.0  0.48438  0.50966  0.21756  1.0000
  C   C31       1.0  0.51562  0.00966  0.28244  1.0000
  C   C32       1.0  0.98438  0.99034  0.78244  1.0000
  C   C33       1.0  0.99204  0.56149  0.67694  1.0000
  C   C34       1.0  0.50796  0.4385  0.17694  1.0000
  C   C35       1.0  0.49204  0.93851  0.32306  1.0000
  C   C36       1.0  0.00796  0.0615  0.82306  1.0000
  C   C37       1.0  0.96621  0.50048  0.7792  1.0000
  C   C38       1.0  0.53379  0.49952000000000013  0.2792  1.0000
  C   C39       1.0  0.46621  0.99952  0.22079  1.0000
  C   C40       1.0  0.03379  0.0004800000000000001  0.7208000000000001  1.0000
  C   C41       1.0  0.94651  0.58664  0.80182  1.0000
  C   C42       1.0  0.55349  0.41336  0.30181  1.0000
  C   C43       1.0  0.44651  0.91336  0.19819000000000003  1.0000
  C   C44       1.0  0.05349  0.08664  0.69818  1.0000
  C   C45       1.0  0.91211  0.65481  0.76096  1.0000
  C   C46       1.0  0.5878899999999999  0.34519  0.26096  1.0000
  C   C47       1.0  0.4121  0.84519  0.23904  1.0000
  C   C48       1.0  0.0879  0.15481  0.7390400000000001  1.0000
  C   C49       1.0  0.9244  0.64101  0.69931  1.0000
  C   C50       1.0  0.57559  0.35899  0.19931  1.0000
  C   C51       1.0  0.4244  0.85899  0.30069  1.0000
  C   C52       1.0  0.07559  0.14101  0.8006900000000001  1.0000
  C   C53       1.0  0.9396  0.42905  0.8195400000000002  1.0000
  C   C54       1.0  0.5604  0.57095  0.31954  1.0000
  C   C55       1.0  0.4396  0.07095000000000003  0.18045999999999998  1.0000
  C   C56       1.0  0.0604  0.9290500000000003  0.68046  1.0000
  C   C57       1.0  0.96898  0.52979  0.9034400000000001  1.0000
  C   C58       1.0  0.53102  0.47021  0.40344  1.0000
  C   C59       1.0  0.46897  0.9702100000000002  0.09656  1.0000
  C   C60       1.0  0.03103  0.02979  0.59656  1.0000
  C   C61       1.0  0.04957  0.55293  0.6162  1.0000
  C   C62       1.0  0.45043  0.44707  0.1162  1.0000
  C   C63       1.0  0.54957  0.94707  0.3838  1.0000
  C   C64       1.0  0.95043  0.05293  0.8838000000000001  1.0000
  H   H9        1.0  0.18567  0.46875  0.55204  1.0000
  H   H10       1.0  0.31433  0.5312500000000001  0.05204000000000001  1.0000
  H   H11       1.0  0.68567  0.03125  0.44796  1.0000
  H   H12       1.0  0.81433  0.96875  0.9479600000000001  1.0000
  H   H13       1.0  0.15174  0.36498  0.7284500000000002  1.0000
  H   H14       1.0  0.34826  0.63502  0.22845  1.0000
  H   H15       1.0  0.65174  0.13502000000000006  0.27154  1.0000
  H   H16       1.0  0.84826  0.86498  0.77155  1.0000
  H   H17       1.0  0.24474  0.35080000000000006  0.62386  1.0000
  H   H18       1.0  0.25526  0.6492  0.12386  1.0000
  H   H19       1.0  0.74474  0.1492  0.37614  1.0000
  H   H20       1.0  0.75526  0.8508  0.87614  1.0000
  H   H21       1.0  0.89231  0.6948600000000001  0.66964  1.0000
  H   H22       1.0  0.6076899999999998  0.3051300000000001  0.16964  1.0000
  H   H23       1.0  0.39231  0.80514  0.33036  1.0000
  H   H24       1.0  0.10769  0.19487  0.83036  1.0000
  C   C65       1.0  0.97398  0.6910200000000002  0.8899400000000001  1.0000
  H   H25       1.0  0.0186  0.74513  0.86213  1.0000
  O   O21       1.0  0.94199  0.70497  0.9428500000000001  1.0000
  C   C66       1.0  0.52602  0.30898  0.38994  1.0000
  H   H26       1.0  0.48141  0.25487  0.36213  1.0000
  O   O22       1.0  0.55802  0.29503  0.4428500000000001  1.0000
  C   C67       1.0  0.47397999999999996  0.80898  0.11006000000000002  1.0000
  H   H27       1.0  0.51859  0.75487  0.13787  1.0000
  O   O23       1.0  0.44198999999999994  0.7950300000000001  0.05715  1.0000
  C   C68       1.0  0.026019999999999998  0.19102  0.61006  1.0000
  H   H28       1.0  0.9814  0.24513000000000004  0.63787  1.0000
  O   O24       1.0  0.05800999999999999  0.20497  0.55715  1.0000
  C   C69       1.0  0.86324  0.34373  0.7986  1.0000
  H   H29       1.0  0.85985  0.28782  0.8283200000000001  1.0000
  O   O25       1.0  0.7905199999999999  0.33647  0.74944  1.0000
  C   C70       1.0  0.63676  0.65627  0.2986  1.0000
  H   H30       1.0  0.64015  0.71218  0.32832  1.0000
  O   O26       1.0  0.70948  0.6635300000000001  0.24944  1.0000
  C   C71       1.0  0.36324  0.15627000000000005  0.2014  1.0000
  H   H31       1.0  0.35985  0.21218000000000006  0.17168  1.0000
  O   O27       1.0  0.29052  0.16353  0.25056  1.0000
  C   C72       1.0  0.13676  0.8437300000000002  0.7014  1.0000
  H   H32       1.0  0.14015  0.78782  0.67168  1.0000
  O   O28       1.0  0.20948  0.83647  0.75056  1.0000
