data_image0
_chemical_formula_structural       C38Cu2H16N4O18
_chemical_formula_sum              "C38 Cu2 H16 N4 O18"
_cell_length_a       23.5374
_cell_length_b       8.67301
_cell_length_c       7.42657
_cell_angle_alpha    103.09521000000001
_cell_angle_beta     94.22073
_cell_angle_gamma    92.45555000000002

_space_group_name_H-M_alt    "P 1"
_space_group_IT_number       1

loop_
  _space_group_symop_operation_xyz
  'x, y, z'

loop_
  _atom_site_type_symbol
  _atom_site_label
  _atom_site_symmetry_multiplicity
  _atom_site_fract_x
  _atom_site_fract_y
  _atom_site_fract_z
  _atom_site_occupancy
  C   C1        1.0  0.49824999999999997  0.19955000000000006  0.4530700000000001  1.0000
  C   C2        1.0  0.7094  0.5841400000000002  0.6542100000000002  1.0000
  C   C3        1.0  0.23891999999999994  0.4446200000000001  0.63043  1.0000
  C   C4        1.0  0.76825  0.5750800000000001  0.6426900000000001  1.0000
  C   C5        1.0  0.20881  0.50046  0.4909900000000001  1.0000
  C   C6        1.0  0.7907999999999997  0.51244  0.47428  1.0000
  C   C7        1.0  0.49739999999999995  0.03157999999999998  0.42663  1.0000
  C   C8        1.0  0.50251  0.96842  0.57341  1.0000
  C   C9        1.0  0.39092  0.49602000000000007  0.5018000000000001  1.0000
  C   C10       1.0  0.6091500000000001  0.5069000000000002  0.4987800000000001  1.0000
  C   C11       1.0  0.88385  0.65128  0.51517  1.0000
  C   C12       1.0  0.5017099999999999  0.80045  0.54694  1.0000
  C   C13       1.0  0.11588999999999998  0.36008000000000007  0.4323200000000001  1.0000
  C   C14       1.0  0.8765899999999998  0.36832000000000004  0.43422000000000005  1.0000
  C   C15       1.0  0.12326999999999999  0.64187  0.54124  1.0000
  C   C16       1.0  0.9358199999999999  0.3642800000000001  0.4288000000000001  1.0000
  C   C17       1.0  0.06391999999999999  0.64598  0.53939  1.0000
  C   C18       1.0  0.9698899999999998  0.5072  0.4815100000000001  1.0000
  C   C19       1.0  0.02982  0.5034  0.4798500000000001  1.0000
  C   C20       1.0  0.94405  0.6534100000000002  0.5368600000000002  1.0000
  C   C21       1.0  0.05555  0.35752  0.41907000000000005  1.0000
  C   C22       1.0  0.9610799999999999  0.22058000000000003  0.36789000000000005  1.0000
  C   C23       1.0  0.23804999999999996  0.55258  0.3549500000000001  1.0000
  C   C24       1.0  0.03852  0.7895200000000002  0.60058  1.0000
  C   C25       1.0  0.01987  0.21583  0.35392  1.0000
  C   C26       1.0  0.9794399999999999  0.79493  0.60552  1.0000
  C   C27       1.0  0.04004  0.061200000000000025  0.2591400000000001  1.0000
  C   C28       1.0  0.9584999999999998  0.9491799999999999  0.6986600000000002  1.0000
  C   C29       1.0  0.20665999999999998  0.60526  0.20075000000000007  1.0000
  C   C30       1.0  0.77686  0.40088000000000007  0.12841000000000002  1.0000
  C   C31       1.0  0.32709  0.35766  0.7724800000000003  1.0000
  C   C32       1.0  0.68922  0.6745300000000002  0.83049  1.0000
  C   C33       1.0  0.754  0.4558600000000001  0.31178  1.0000
  C   C34       1.0  0.2976  0.55142  0.36496000000000006  1.0000
  C   C35       1.0  0.6948899999999999  0.45530000000000004  0.32479000000000013  1.0000
  C   C36       1.0  0.32826  0.49455  0.5037600000000002  1.0000
  C   C37       1.0  0.67192  0.51663  0.49425000000000013  1.0000
  C   C38       1.0  0.29836  0.4368500000000002  0.6363700000000002  1.0000
  Cu  Cu1       1.0  0.50634  0.51738  0.68438  1.0000
  Cu  Cu2       1.0  0.49365999999999993  0.48262000000000005  0.3156200000000001  1.0000
  H   H1        1.0  0.9345299999999999  0.11132000000000002  0.32140000000000013  1.0000
  H   H2        1.0  0.54467  0.62212  0.051760000000000014  1.0000
  H   H3        1.0  0.022719999999999997  0.9526400000000002  0.2891300000000001  1.0000
  H   H4        1.0  0.9784199999999998  0.058640000000000005  0.67884  1.0000
  H   H5        1.0  0.16038  0.59708  0.18516  1.0000
  H   H6        1.0  0.82211  0.41605000000000003  0.11359  1.0000
  H   H7        1.0  0.36805  0.30801  0.74895  1.0000
  H   H8        1.0  0.64862  0.7288400000000003  0.8316800000000002  1.0000
  H   H9        1.0  0.06499  0.89843  0.6517400000000001  1.0000
  H   H10       1.0  0.32037  0.59449  0.2627  1.0000
  H   H11       1.0  0.66648  0.40741  0.20129000000000002  1.0000
  H   H12       1.0  0.21513  0.40189000000000014  0.7307600000000002  1.0000
  H   H13       1.0  0.7975099999999998  0.6222800000000002  0.7644000000000002  1.0000
  H   H14       1.0  0.49259  0.95961  0.2853300000000001  1.0000
  H   H15       1.0  0.50731  0.04039000000000001  0.71471  1.0000
  H   H16       1.0  0.4556700000000001  0.37705  0.9482000000000003  1.0000
  N   N1        1.0  0.85178  0.51036  0.4718100000000001  1.0000
  N   N2        1.0  0.14779  0.5008700000000003  0.4873200000000001  1.0000
  N   N3        1.0  0.48411  0.4564200000000001  0.03852000000000001  1.0000
  N   N4        1.0  0.51589  0.54358  0.96148  1.0000
  O   O1        1.0  0.5041199999999999  0.28613000000000005  0.6197700000000003  1.0000
  O   O2        1.0  0.14292  0.22400000000000003  0.3961100000000001  1.0000
  O   O3        1.0  0.84386  0.23149000000000003  0.40017000000000014  1.0000
  O   O4        1.0  0.15650999999999998  0.77759  0.59818  1.0000
  O   O5        1.0  0.07219  0.05239000000000002  0.13593000000000005  1.0000
  O   O6        1.0  0.9224  0.9562900000000001  0.8097100000000003  1.0000
  O   O7        1.0  0.23211  0.65803  0.08812  1.0000
  O   O8        1.0  0.74532  0.33876000000000006  0.9906900000000002  1.0000
  O   O9        1.0  0.30448  0.3431  0.9110400000000002  1.0000
  O   O10       1.0  0.71879  0.69407  0.9769900000000002  1.0000
  O   O11       1.0  0.49588  0.71387  0.38023000000000007  1.0000
  O   O12       1.0  0.49341  0.25677  0.30836  1.0000
  O   O13       1.0  0.50659  0.74323  0.6916400000000003  1.0000
  O   O14       1.0  0.42323  0.51463  0.6557300000000003  1.0000
  O   O15       1.0  0.5767699999999999  0.4853700000000001  0.34427  1.0000
  O   O16       1.0  0.41253  0.48528000000000004  0.34432000000000007  1.0000
  O   O17       1.0  0.58747  0.51472  0.6556800000000003  1.0000
  O   O18       1.0  0.85723  0.7876500000000001  0.53044  1.0000
