data_image0
_chemical_formula_structural       C72Cr6H36O26
_chemical_formula_sum              "C72 Cr6 H36 O26"
_cell_length_a       11.09819
_cell_length_b       11.09819
_cell_length_c       18.85087
_cell_angle_alpha    90.00087
_cell_angle_beta     89.9968
_cell_angle_gamma    119.99969000000002

_symmetry_space_group_name_H-M    'P 1'
_symmetry_Int_Tables_number       1

loop_
  _symmetry_equiv_pos_as_xyz
  'x,y,z'

loop_
  _atom_site_type_symbol
  _atom_site_label
  _atom_site_symmetry_multiplicity
  _atom_site_fract_x
  _atom_site_fract_y
  _atom_site_fract_z
  _atom_site_occupancy
  C   C1        1.0  0.51823  0.4564  0.14716  1.0000
  C   C2        1.0  0.9596000000000002  0.39291  0.54155  1.0000
  C   C3        1.0  0.43331000000000003  0.04041  0.54155  1.0000
  C   C4        1.0  0.6070900000000001  0.56671  0.54154  1.0000
  C   C5        1.0  0.7177400000000002  0.95225  0.55305  1.0000
  C   C6        1.0  0.04776999999999999  0.76549  0.55306  1.0000
  C   C7        1.0  0.23453  0.28224  0.55307  1.0000
  C   C8        1.0  0.11770999999999998  0.75248  0.41331  1.0000
  C   C9        1.0  0.63477  0.88229  0.4133  1.0000
  C   C10       1.0  0.2475  0.36519  0.41332  1.0000
  C   C11       1.0  0.7846000000000003  0.9028500000000002  0.50948  1.0000
  C   C12       1.0  0.5436000000000001  0.0618  0.14717  1.0000
  C   C13       1.0  0.0971800000000001  0.88176  0.5095  1.0000
  C   C14       1.0  0.11825000000000001  0.2154  0.50953  1.0000
  C   C15       1.0  0.13224  0.8756  0.43963  1.0000
  C   C16       1.0  0.7433700000000001  0.8677800000000001  0.43962  1.0000
  C   C17       1.0  0.12439000000000003  0.25661  0.43966  1.0000
  C   C18       1.0  0.51945  0.45738  0.35349  1.0000
  C   C19       1.0  0.54261  0.06206  0.35349  1.0000
  C   C20       1.0  0.93793  0.48055  0.35349  1.0000
  C   C21       1.0  0.45385  0.51661  0.64561  1.0000
  C   C22       1.0  0.06277000000000002  0.54616  0.64561  1.0000
  C   C23       1.0  0.93817  0.48178  0.14716  1.0000
  C   C24       1.0  0.48339000000000004  0.93723  0.64561  1.0000
  C   C25       1.0  0.50638  0.99392  0.9254499999999999  1.0000
  C   C26       1.0  0.005970000000000056  0.5124300000000002  0.9254300000000001  1.0000
  C   C27       1.0  0.48758  0.49354  0.92542  1.0000
  C   C28       1.0  0.99417  0.50652  0.07461  1.0000
  C   C29       1.0  0.51233  0.00574  0.07464  1.0000
  C   C30       1.0  0.49350000000000005  0.48764  0.07461  1.0000
  C   C31       1.0  0.404  0.006700000000000001  0.96273  1.0000
  C   C32       1.0  0.99312  0.39723  0.96268  1.0000
  C   C33       1.0  0.60278  0.59588  0.9626700000000001  1.0000
  C   C34       1.0  0.45637  0.51824  0.85286  1.0000
  C   C35       1.0  0.006979999999999979  0.40415  0.03736  1.0000
  C   C36       1.0  0.3971100000000002  0.9928500000000001  0.0374  1.0000
  C   C37       1.0  0.5958700000000001  0.60281  0.03735  1.0000
  C   C38       1.0  0.62014  0.00422  0.03653  1.0000
  C   C39       1.0  0.9957  0.61587  0.03651  1.0000
  C   C40       1.0  0.38414000000000004  0.37983  0.03651  1.0000
  C   C41       1.0  0.004530000000000001  0.62029  0.96354  1.0000
  C   C42       1.0  0.6157100000000001  0.99539  0.9635499999999999  1.0000
  C   C43       1.0  0.3797200000000001  0.38423  0.96353  1.0000
  C   C44       1.0  0.30761  0.03219  0.9279300000000001  1.0000
  C   C45       1.0  0.06187000000000003  0.54363  0.85286  1.0000
  C   C46       1.0  0.96761  0.27538  0.92786  1.0000
  C   C47       1.0  0.72463  0.69223  0.92783  1.0000
  C   C48       1.0  0.03239  0.30775  0.07218  1.0000
  C   C49       1.0  0.2753200000000001  0.9674400000000001  0.07226  1.0000
  C   C50       1.0  0.69229  0.72463  0.07217  1.0000
  C   C51       1.0  0.19498  0.02088  0.96476  1.0000
  C   C52       1.0  0.9790100000000002  0.17407  0.96464  1.0000
  C   C53       1.0  0.8259300000000002  0.80494  0.9646100000000001  1.0000
  C   C54       1.0  0.020880000000000024  0.195  0.0354  1.0000
  C   C55       1.0  0.17409000000000005  0.9790300000000001  0.03553  1.0000
  C   C56       1.0  0.4817400000000001  0.9381000000000002  0.85287  1.0000
  C   C57       1.0  0.80503  0.82587  0.03538  1.0000
  C   C58       1.0  0.51305  0.9899  0.5725  1.0000
  C   C59       1.0  0.010099999999999993  0.52315  0.5725  1.0000
  C   C60       1.0  0.4768600000000001  0.48695  0.5725  1.0000
  C   C61       1.0  0.99386  0.49788999999999994  0.42489000000000005  1.0000
  C   C62       1.0  0.50402  0.00613  0.42489000000000005  1.0000
  C   C63       1.0  0.5021000000000001  0.49597  0.42489000000000005  1.0000
  C   C64       1.0  0.60167  0.9614700000000002  0.52836  1.0000
  C   C65       1.0  0.03852999999999999  0.64019  0.52837  1.0000
  C   C66       1.0  0.3598200000000001  0.39831  0.52837  1.0000
  C   C67       1.0  0.43857000000000007  0.05925  0.46866  1.0000
  C   C68       1.0  0.05634000000000001  0.63067  0.45538999999999996  1.0000
  C   C69       1.0  0.5743200000000003  0.94365  0.45538999999999996  1.0000
  C   C70       1.0  0.36932000000000004  0.42565  0.4554  1.0000
  C   C71       1.0  0.94075  0.37932  0.46866  1.0000
  C   C72       1.0  0.62067  0.56145  0.46865000000000007  1.0000
  Cr  Cr1       1.0  0.76855  0.54132  0.25066  1.0000
  Cr  Cr2       1.0  0.45868  0.22723000000000002  0.25066  1.0000
  Cr  Cr3       1.0  0.77277  0.23145000000000002  0.25066  1.0000
  Cr  Cr4       1.0  0.5413200000000001  0.76855  0.74934  1.0000
  Cr  Cr5       1.0  0.22723000000000002  0.45868000000000003  0.74934  1.0000
  Cr  Cr6       1.0  0.23145  0.77277  0.74934  1.0000
  H   H1        1.0  0.12537000000000004  0.04366  0.9368099999999999  1.0000
  H   H2        1.0  0.14604000000000006  0.75039  0.35852  1.0000
  H   H3        1.0  0.6043500000000003  0.8539500000000001  0.35851  1.0000
  H   H4        1.0  0.24957000000000004  0.39561  0.35853  1.0000
  H   H5        1.0  0.86817  0.89118  0.53057  1.0000
  H   H6        1.0  0.10887000000000001  0.977  0.53059  1.0000
  H   H7        1.0  0.02300999999999999  0.13183  0.53063  1.0000
  H   H8        1.0  0.1689  0.9656100000000001  0.4055  1.0000
  H   H9        1.0  0.79673  0.83114  0.40548  1.0000
  H   H10       1.0  0.03437000000000002  0.20325  0.40554  1.0000
  H   H11       1.0  0.71105  0.01378  0.06287  1.0000
  H   H12       1.0  0.9563100000000001  0.08173  0.9366400000000001  1.0000
  H   H13       1.0  0.98617  0.6972400000000001  0.06287  1.0000
  H   H14       1.0  0.30276000000000003  0.28895000000000004  0.06288  1.0000
  H   H15       1.0  0.014099999999999996  0.7112  0.9371799999999999  1.0000
  H   H16       1.0  0.69708  0.9858800000000001  0.9371799999999999  1.0000
  H   H17       1.0  0.28881  0.30288  0.9371799999999999  1.0000
  H   H18       1.0  0.31986  0.06346  0.87282  1.0000
  H   H19       1.0  0.9363400000000001  0.25639  0.8727400000000001  1.0000
  H   H20       1.0  0.7436  0.67993  0.8727200000000002  1.0000
  H   H21       1.0  0.06367  0.32003  0.12729  1.0000
  H   H22       1.0  0.25637  0.93617  0.12738  1.0000
  H   H23       1.0  0.91826  0.87459  0.9366  1.0000
  H   H24       1.0  0.68003  0.74364  0.12728  1.0000
  H   H25       1.0  0.39301  0.11753  0.44672000000000006  1.0000
  H   H26       1.0  0.88246  0.27548  0.44672000000000006  1.0000
  H   H27       1.0  0.7245100000000002  0.6070300000000001  0.44671  1.0000
  H   H28       1.0  0.93065  0.30172  0.57388  1.0000
  H   H29       1.0  0.37108  0.06936  0.57389  1.0000
  H   H30       1.0  0.69827  0.62896  0.57387  1.0000
  H   H31       1.0  0.043530000000000006  0.12534  0.0634  1.0000
  H   H32       1.0  0.08184999999999996  0.9565  0.06358  1.0000
  H   H33       1.0  0.8747  0.91818  0.06337  1.0000
  H   H34       1.0  0.7649600000000001  0.99027  0.60428  1.0000
  H   H35       1.0  0.009750000000000002  0.7747  0.60429  1.0000
  H   H36       1.0  0.22534  0.23501  0.6043  1.0000
  O   O1        1.0  0.91096  0.57241  0.17101  1.0000
  O   O2        1.0  0.52853  0.63975  0.8244  1.0000
  O   O3        1.0  0.11122000000000005  0.47147000000000006  0.8244  1.0000
  O   O4        1.0  0.36024999999999996  0.88878  0.8244  1.0000
  O   O5        1.0  0.9093300000000001  0.5724  0.33154  1.0000
  O   O6        1.0  0.42760000000000004  0.33693  0.33154  1.0000
  O   O7        1.0  0.66307  0.09067  0.33154  1.0000
  O   O8        1.0  0.5724000000000001  0.9093300000000001  0.66846  1.0000
  O   O9        1.0  0.33693  0.4276  0.66846  1.0000
  O   O10       1.0  0.09067000000000001  0.66307  0.66846  1.0000
  O   O11       1.0  0.63824  0.52852  0.32441  1.0000
  O   O12       1.0  0.42759  0.33855  0.17101  1.0000
  O   O13       1.0  0.47147999999999995  0.10972  0.32441  1.0000
  O   O14       1.0  0.89028  0.36176  0.32441  1.0000
  O   O15       1.0  0.52852  0.63824  0.67559  1.0000
  O   O16       1.0  0.10972000000000007  0.47148000000000007  0.67559  1.0000
  O   O17       1.0  0.3617600000000001  0.89028  0.67559  1.0000
  O   O18       1.0  0.6666700000000002  0.33333  0.25063  1.0000
  O   O19       1.0  0.33333  0.66667  0.74937  1.0000
  O   O20       1.0  0.66145  0.08904  0.17101  1.0000
  O   O21       1.0  0.57241  0.9109600000000001  0.82899  1.0000
  O   O22       1.0  0.33855  0.42759  0.82899  1.0000
  O   O23       1.0  0.08904000000000005  0.6614500000000001  0.82899  1.0000
  O   O24       1.0  0.63975  0.52853  0.1756  1.0000
  O   O25       1.0  0.47147000000000006  0.11122  0.1756  1.0000
  O   O26       1.0  0.88878  0.36025  0.1756  1.0000
