data_image0
_chemical_formula_structural       C124Cr12H56N12O52
_chemical_formula_sum              "C124 Cr12 H56 N12 O52"
_cell_length_a       19.09249
_cell_length_b       11.02433
_cell_length_c       18.82498
_cell_angle_alpha    89.92301
_cell_angle_beta     90.26506
_cell_angle_gamma    89.74472

_space_group_name_H-M_alt    "P 1"
_space_group_IT_number       1

loop_
  _space_group_symop_operation_xyz
  'x, y, z'

loop_
  _atom_site_type_symbol
  _atom_site_label
  _atom_site_symmetry_multiplicity
  _atom_site_fract_x
  _atom_site_fract_y
  _atom_site_fract_z
  _atom_site_occupancy
  C   C1        1.0  0.72481  0.9620800000000002  0.8559  1.0000
  C   C2        1.0  0.30752  0.45591  0.0383  1.0000
  C   C3        1.0  0.76121  0.85919  0.35474  1.0000
  C   C4        1.0  0.49916000000000005  0.16532  0.92232  1.0000
  C   C5        1.0  0.50388  0.16822  0.0794  1.0000
  C   C6        1.0  0.9991600000000002  0.66532  0.92232  1.0000
  C   C7        1.0  0.0038800000000000006  0.66822  0.0794  1.0000
  C   C8        1.0  0.50505  0.06375  0.04151  1.0000
  C   C9        1.0  0.50532  0.06247  0.96188  1.0000
  C   C10       1.0  0.00505  0.56375  0.04151  1.0000
  C   C11       1.0  0.00532  0.56247  0.96188  1.0000
  C   C12       1.0  0.77543  0.47228  0.06479  1.0000
  C   C13       1.0  0.19413  0.94098  0.96682  1.0000
  C   C14       1.0  0.23939  0.43281  0.9297600000000001  1.0000
  C   C15       1.0  0.27543  0.9722799999999999  0.06479  1.0000
  C   C16       1.0  0.7393900000000001  0.9328099999999999  0.9297600000000001  1.0000
  C   C17       1.0  0.50821  0.94779  0.07848999999999999  1.0000
  C   C18       1.0  0.50571  0.94477  0.92707  1.0000
  C   C19       1.0  0.00821  0.44779  0.07848999999999999  1.0000
  C   C20       1.0  0.00571  0.44477  0.92707  1.0000
  C   C21       1.0  0.56953  0.50046  0.9477299999999999  1.0000
  C   C22       1.0  0.4113  0.57431  0.07292  1.0000
  C   C23       1.0  0.06953  0.00046000000000000007  0.9477299999999999  1.0000
  C   C24       1.0  0.80752  0.95591  0.0383  1.0000
  C   C25       1.0  0.9113  0.07431  0.07292  1.0000
  C   C26       1.0  0.66257  0.62428  0.89976  1.0000
  C   C27       1.0  0.2937100000000001  0.66037  0.08770999999999998  1.0000
  C   C28       1.0  0.16257000000000002  0.12428  0.89976  1.0000
  C   C29       1.0  0.7937100000000001  0.16037  0.08770999999999998  1.0000
  C   C30       1.0  0.8186900000000003  0.40957999999999994  0.95046  1.0000
  C   C31       1.0  0.18717000000000003  0.39070999999999995  0.04372  1.0000
  C   C32       1.0  0.31869  0.90958  0.95046  1.0000
  C   C33       1.0  0.68717  0.89071  0.04372  1.0000
  C   C34       1.0  0.8304500000000002  0.43604  0.02123  1.0000
  C   C35       1.0  0.18286  0.39368000000000003  0.97086  1.0000
  C   C36       1.0  0.33045  0.9360399999999999  0.02123  1.0000
  C   C37       1.0  0.29013  0.99988  0.13878  1.0000
  C   C38       1.0  0.6828700000000001  0.89368  0.97086  1.0000
  C   C39       1.0  0.65875  0.58035  0.0325  1.0000
  C   C40       1.0  0.33243  0.59294  0.9658999999999999  1.0000
  C   C41       1.0  0.15875  0.08035  0.0325  1.0000
  C   C42       1.0  0.83243  0.09294000000000001  0.9658999999999999  1.0000
  C   C43       1.0  0.64199  0.54143  0.9569799999999999  1.0000
  C   C44       1.0  0.33903  0.57919  0.04585  1.0000
  C   C45       1.0  0.14199  0.04143  0.9569799999999999  1.0000
  C   C46       1.0  0.8390300000000002  0.07919  0.04585  1.0000
  C   C47       1.0  0.75057  0.41344000000000003  0.92227  1.0000
  C   C48       1.0  0.22481  0.46207999999999994  0.8559  1.0000
  C   C49       1.0  0.2506  0.41397  0.07779  1.0000
  C   C50       1.0  0.25057  0.91344  0.92227  1.0000
  C   C51       1.0  0.7506  0.91397  0.07779  1.0000
  C   C52       1.0  0.5085300000000001  0.17028  0.42086  1.0000
  C   C53       1.0  0.5166200000000001  0.17077  0.56849  1.0000
  C   C54       1.0  0.00853  0.67028  0.42086  1.0000
  C   C55       1.0  0.01662  0.67077  0.56849  1.0000
  C   C56       1.0  0.52213  0.27821  0.45766999999999997  1.0000
  C   C57       1.0  0.52544  0.27736  0.53001  1.0000
  C   C58       1.0  0.022140000000000003  0.77821  0.45766999999999997  1.0000
  C   C59       1.0  0.7901300000000001  0.49988000000000005  0.13878  1.0000
  C   C60       1.0  0.02544  0.77736  0.53  1.0000
  C   C61       1.0  0.5156000000000001  0.06005  0.53174  1.0000
  C   C62       1.0  0.51369  0.05974  0.45755  1.0000
  C   C63       1.0  0.01559  0.56005  0.53174  1.0000
  C   C64       1.0  0.01369  0.55974  0.45755  1.0000
  C   C65       1.0  0.52967  0.17695999999999998  0.8507600000000001  1.0000
  C   C66       1.0  0.47112  0.17729  0.14988  1.0000
  C   C67       1.0  0.02967  0.67696  0.8507600000000001  1.0000
  C   C68       1.0  0.97112  0.67729  0.14988  1.0000
  C   C69       1.0  0.48523  0.39938000000000007  0.45819  1.0000
  C   C70       1.0  0.70725  0.47429  0.03698  1.0000
  C   C71       1.0  0.48878  0.39605  0.53817  1.0000
  C   C72       1.0  0.9852500000000001  0.8993899999999999  0.45819  1.0000
  C   C73       1.0  0.98879  0.89607  0.53817  1.0000
  C   C74       1.0  0.7508100000000001  0.40162  0.41966  1.0000
  C   C75       1.0  0.25027  0.41255  0.57822  1.0000
  C   C76       1.0  0.25081  0.90163  0.41966  1.0000
  C   C77       1.0  0.7502700000000002  0.9125499999999999  0.57822  1.0000
  C   C78       1.0  0.79866  0.3296  0.45777  1.0000
  C   C79       1.0  0.21453  0.31848  0.54431  1.0000
  C   C80       1.0  0.29866000000000004  0.8296  0.45777  1.0000
  C   C81       1.0  0.30116  0.4686  0.9645400000000001  1.0000
  C   C82       1.0  0.71454  0.8184700000000001  0.54431  1.0000
  C   C83       1.0  0.7942100000000001  0.31955  0.53026  1.0000
  C   C84       1.0  0.21614  0.30852  0.47156  1.0000
  C   C85       1.0  0.29421  0.81955  0.53026  1.0000
  C   C86       1.0  0.7161400000000001  0.8085199999999999  0.47156  1.0000
  C   C87       1.0  0.68669  0.4331  0.52933  1.0000
  C   C88       1.0  0.29853  0.47197  0.46348  1.0000
  C   C89       1.0  0.18669  0.9331199999999998  0.52933  1.0000
  C   C90       1.0  0.79853  0.97197  0.46348  1.0000
  C   C91       1.0  0.69058  0.44245  0.45500000000000007  1.0000
  C   C92       1.0  0.20724999999999996  0.97429  0.03698  1.0000
  C   C93       1.0  0.29684  0.48332  0.53759  1.0000
  C   C94       1.0  0.19059  0.9424699999999999  0.45500000000000007  1.0000
  C   C95       1.0  0.79685  0.98331  0.53759  1.0000
  C   C96       1.0  0.8770400000000002  0.33328  0.46129  1.0000
  C   C97       1.0  0.13933  0.28061  0.54688  1.0000
  C   C98       1.0  0.37704  0.83327  0.46128  1.0000
  C   C99       1.0  0.6393400000000002  0.78059  0.54688  1.0000
  C   C100      1.0  0.87153  0.32194  0.54101  1.0000
  C   C101      1.0  0.14081  0.27443  0.46668999999999994  1.0000
  C   C102      1.0  0.37153  0.82194  0.54101  1.0000
  C   C103      1.0  0.80116  0.9685999999999999  0.9645400000000001  1.0000
  C   C104      1.0  0.64082  0.7744100000000002  0.46669999999999995  1.0000
  C   C105      1.0  0.74221  0.37989000000000006  0.5680599999999999  1.0000
  C   C106      1.0  0.25425  0.38881999999999994  0.42949999999999994  1.0000
  C   C107      1.0  0.24222000000000002  0.8798999999999999  0.5680599999999999  1.0000
  C   C108      1.0  0.75425  0.8888200000000002  0.42949999999999994  1.0000
  C   C109      1.0  0.73817  0.36295  0.8526399999999998  1.0000
  C   C110      1.0  0.26159  0.36424  0.1479  1.0000
  C   C111      1.0  0.23817  0.8629500000000001  0.8526399999999998  1.0000
  C   C112      1.0  0.76159  0.8642399999999999  0.1479  1.0000
  C   C113      1.0  0.72789  0.95589  0.6474899999999999  1.0000
  C   C114      1.0  0.69413  0.44098  0.96682  1.0000
  C   C115      1.0  0.27194  0.95366  0.35185  1.0000
  C   C116      1.0  0.22789000000000004  0.45589  0.6474899999999999  1.0000
  C   C117      1.0  0.77194  0.45365999999999995  0.35185  1.0000
  C   C118      1.0  0.5323500000000001  0.17666  0.64316  1.0000
  C   C119      1.0  0.47143000000000007  0.17656  0.35414  1.0000
  C   C120      1.0  0.03234  0.67666  0.64316  1.0000
  C   C121      1.0  0.9714300000000001  0.67656  0.35414  1.0000
  C   C122      1.0  0.73745  0.35554  0.64381  1.0000
  C   C123      1.0  0.26121  0.3592  0.35474  1.0000
  C   C124      1.0  0.23745000000000002  0.8555399999999999  0.64381  1.0000
  Cr  Cr1       1.0  0.7692600000000002  0.16375  0.7507299999999999  1.0000
  Cr  Cr2       1.0  0.38581  0.3224  0.25229  1.0000
  Cr  Cr3       1.0  0.11419000000000001  0.8223999999999999  0.74771  1.0000
  Cr  Cr4       1.0  0.8858100000000001  0.8223999999999999  0.25229  1.0000
  Cr  Cr5       1.0  0.23074000000000003  0.16375  0.24927  1.0000
  Cr  Cr6       1.0  0.26926  0.66375  0.7507299999999999  1.0000
  Cr  Cr7       1.0  0.73074  0.66375  0.24927  1.0000
  Cr  Cr8       1.0  0.6126400000000001  0.00991  0.74878  1.0000
  Cr  Cr9       1.0  0.38736000000000004  0.00991  0.25122  1.0000
  Cr  Cr10      1.0  0.11264  0.50991  0.74878  1.0000
  Cr  Cr11      1.0  0.8873600000000001  0.50991  0.25122  1.0000
  Cr  Cr12      1.0  0.61419  0.3224  0.74771  1.0000
  H   H1        1.0  0.5175  0.47265  0.43459999999999993  1.0000
  H   H2        1.0  0.10362  0.35183  0.56653  1.0000
  H   H3        1.0  0.39735  0.92262  0.4447  1.0000
  H   H4        1.0  0.60363  0.8518099999999998  0.56654  1.0000
  H   H5        1.0  0.89278  0.23488000000000006  0.5617699999999999  1.0000
  H   H6        1.0  0.13273000000000001  0.18220999999999998  0.44563  1.0000
  H   H7        1.0  0.39278  0.7348800000000001  0.5617699999999999  1.0000
  H   H8        1.0  0.6327400000000001  0.68219  0.44563  1.0000
  H   H9        1.0  0.8891200000000001  0.40420999999999996  0.57003  1.0000
  H   H10       1.0  0.10862  0.34575  0.44043000000000004  1.0000
  H   H11       1.0  0.38912  0.9042000000000001  0.57003  1.0000
  H   H12       1.0  0.43672  0.38661000000000006  0.56376  1.0000
  H   H13       1.0  0.6086300000000001  0.84573  0.44043999999999994  1.0000
  H   H14       1.0  0.93054  0.89575  0.43868  1.0000
  H   H15       1.0  0.02252  0.9678500000000001  0.56109  1.0000
  H   H16       1.0  0.43051000000000006  0.39569999999999994  0.43868999999999997  1.0000
  H   H17       1.0  0.5225  0.46785  0.56109  1.0000
  H   H18       1.0  0.64946  0.48843000000000003  0.42596  1.0000
  H   H19       1.0  0.32731  0.55437  0.56209  1.0000
  H   H20       1.0  0.14946  0.98845  0.42596  1.0000
  H   H21       1.0  0.82731  0.05437000000000001  0.56209  1.0000
  H   H22       1.0  0.90183  0.25315  0.43569  1.0000
  H   H23       1.0  0.01755  0.9726399999999998  0.43459999999999993  1.0000
  H   H24       1.0  0.13281000000000004  0.19062999999999997  0.57256  1.0000
  H   H25       1.0  0.4018200000000001  0.7531300000000001  0.43569  1.0000
  H   H26       1.0  0.63282  0.69061  0.57256  1.0000
  H   H27       1.0  0.5147  0.25443  0.05421999999999999  1.0000
  H   H28       1.0  0.48341  0.2493  0.9467799999999998  1.0000
  H   H29       1.0  0.014700000000000001  0.7544299999999999  0.05421999999999999  1.0000
  H   H30       1.0  0.98341  0.7493000000000001  0.9467799999999998  1.0000
  H   H31       1.0  0.86271  0.38225  0.9182  1.0000
  H   H32       1.0  0.14243000000000003  0.35843  0.07289  1.0000
  H   H33       1.0  0.36271  0.88225  0.9182  1.0000
  H   H34       1.0  0.9367300000000001  0.8866399999999999  0.56375  1.0000
  H   H35       1.0  0.64243  0.85843  0.07289  1.0000
  H   H36       1.0  0.88249  0.42783000000000004  0.04205  1.0000
  H   H37       1.0  0.13386  0.36794999999999994  0.9471  1.0000
  H   H38       1.0  0.38249  0.92783  0.04205  1.0000
  H   H39       1.0  0.63385  0.86795  0.9471  1.0000
  H   H40       1.0  0.18900000000000003  0.16476  0.03645  1.0000
  H   H41       1.0  0.79392  0.16301  0.949  1.0000
  H   H42       1.0  0.689  0.66476  0.03645  1.0000
  H   H43       1.0  0.29392  0.66301  0.949  1.0000
  H   H44       1.0  0.61478  0.57259  0.07074  1.0000
  H   H45       1.0  0.64189  0.47047999999999995  0.55645  1.0000
  H   H46       1.0  0.38310000000000005  0.5964  0.93714  1.0000
  H   H47       1.0  0.11478000000000001  0.07258  0.07074  1.0000
  H   H48       1.0  0.8831100000000001  0.0964  0.93714  1.0000
  H   H49       1.0  0.5132000000000001  0.97516  0.5602  1.0000
  H   H50       1.0  0.50877  0.97452  0.4297  1.0000
  H   H51       1.0  0.01319  0.47516  0.56021  1.0000
  H   H52       1.0  0.00876  0.47452  0.4297  1.0000
  H   H53       1.0  0.33237000000000005  0.53055  0.43285999999999997  1.0000
  H   H54       1.0  0.1419  0.97051  0.55646  1.0000
  H   H55       1.0  0.83237  0.03054  0.43285999999999997  1.0000
  H   H56       1.0  0.89734  0.42263  0.44471  1.0000
  N   N1        1.0  0.51018  0.85557  0.10793999999999998  1.0000
  N   N2        1.0  0.25646  0.71976  0.12134  1.0000
  N   N3        1.0  0.17948  0.18475999999999998  0.8528  1.0000
  N   N4        1.0  0.75646  0.21975999999999998  0.12134  1.0000
  N   N5        1.0  0.50539  0.85099  0.8994399999999999  1.0000
  N   N6        1.0  0.01018  0.35557  0.10793999999999998  1.0000
  N   N7        1.0  0.005390000000000001  0.35099  0.8994399999999999  1.0000
  N   N8        1.0  0.51197  0.4709  0.9402  1.0000
  N   N9        1.0  0.4680700000000001  0.5703  0.0946  1.0000
  N   N10       1.0  0.011970000000000001  0.9709  0.9402  1.0000
  N   N11       1.0  0.96807  0.0703  0.0946  1.0000
  N   N12       1.0  0.67948  0.68476  0.8528  1.0000
  O   O1        1.0  0.78429  0.29036  0.83054  1.0000
  O   O2        1.0  0.45602000000000004  0.28211  0.33323  1.0000
  O   O3        1.0  0.04398  0.78211  0.66677  1.0000
  O   O4        1.0  0.9560200000000001  0.78211  0.33323  1.0000
  O   O5        1.0  0.67907  0.37403  0.6744299999999999  1.0000
  O   O6        1.0  0.32093  0.37403  0.32557  1.0000
  O   O7        1.0  0.17907  0.87403  0.6744299999999999  1.0000
  O   O8        1.0  0.8209300000000002  0.87403  0.32557  1.0000
  O   O9        1.0  0.66536  0.16535  0.7490699999999999  1.0000
  O   O10       1.0  0.33464  0.16535  0.25093  1.0000
  O   O11       1.0  0.16536  0.66535  0.7490699999999999  1.0000
  O   O12       1.0  0.21571  0.29036  0.16946  1.0000
  O   O13       1.0  0.8346400000000002  0.66535  0.25093  1.0000
  O   O14       1.0  0.76261  0.04107  0.82523  1.0000
  O   O15       1.0  0.23739000000000002  0.04107  0.17477  1.0000
  O   O16       1.0  0.26261  0.54107  0.82523  1.0000
  O   O17       1.0  0.73739  0.54107  0.17477  1.0000
  O   O18       1.0  0.66739  0.9241599999999999  0.8299699999999999  1.0000
  O   O19       1.0  0.33261000000000013  0.9241599999999999  0.17003  1.0000
  O   O20       1.0  0.16739  0.42416  0.8299699999999999  1.0000
  O   O21       1.0  0.83261  0.42416  0.17003  1.0000
  O   O22       1.0  0.55398  0.08142  0.82178  1.0000
  O   O23       1.0  0.28429  0.79036  0.83054  1.0000
  O   O24       1.0  0.44602  0.08142  0.17822  1.0000
  O   O25       1.0  0.05398000000000001  0.58142  0.82178  1.0000
  O   O26       1.0  0.94602  0.58142  0.17822  1.0000
  O   O27       1.0  0.54321  0.28317  0.82674  1.0000
  O   O28       1.0  0.45679  0.28317  0.17326  1.0000
  O   O29       1.0  0.04321  0.78317  0.82674  1.0000
  O   O30       1.0  0.9567900000000001  0.78317  0.17326  1.0000
  O   O31       1.0  0.67835  0.37500000000000006  0.82272  1.0000
  O   O32       1.0  0.32165000000000005  0.37500000000000006  0.17728  1.0000
  O   O33       1.0  0.17835000000000006  0.875  0.82272  1.0000
  O   O34       1.0  0.7157100000000002  0.79036  0.16946  1.0000
  O   O35       1.0  0.82165  0.875  0.17728  1.0000
  O   O36       1.0  0.78506  0.2893  0.67058  1.0000
  O   O37       1.0  0.21494000000000002  0.2893  0.32942  1.0000
  O   O38       1.0  0.28506  0.7892999999999999  0.67058  1.0000
  O   O39       1.0  0.7149400000000001  0.7892999999999999  0.32942  1.0000
  O   O40       1.0  0.76333  0.04009  0.6769399999999999  1.0000
  O   O41       1.0  0.23667  0.04009  0.32306  1.0000
  O   O42       1.0  0.26333000000000006  0.54009  0.6769399999999999  1.0000
  O   O43       1.0  0.7366700000000002  0.54009  0.32306  1.0000
  O   O44       1.0  0.6681600000000001  0.92311  0.67  1.0000
  O   O45       1.0  0.55469  0.08044  0.67348  1.0000
  O   O46       1.0  0.33184000000000013  0.92311  0.33  1.0000
  O   O47       1.0  0.16816  0.42311  0.67  1.0000
  O   O48       1.0  0.83184  0.42311  0.33  1.0000
  O   O49       1.0  0.44531  0.08044  0.32652  1.0000
  O   O50       1.0  0.05469  0.58044  0.67348  1.0000
  O   O51       1.0  0.9453100000000001  0.58044  0.32652  1.0000
  O   O52       1.0  0.54398  0.28211  0.66677  1.0000
