data_image0
_chemical_formula_structural       O8C4O8C4O8C4O8C4O8C4O8C4Cr12O4C8H8C4H4C4H4C8H4C12H4C8H4C4H4C4H4C17HOCHOCHOCHONO2NO2NO2NO2CHOCHOCHOCHO
_chemical_formula_sum              "O68 C100 Cr12 H44 N4"
_cell_length_a       18.96213
_cell_length_b       10.96253
_cell_length_c       18.866749999999996
_cell_angle_alpha    89.95226
_cell_angle_beta     90.22277
_cell_angle_gamma    89.91556999999999

_space_group_name_H-M_alt    "P 1"
_space_group_IT_number       1

loop_
  _space_group_symop_operation_xyz
  'x, y, z'

loop_
  _atom_site_type_symbol
  _atom_site_label
  _atom_site_symmetry_multiplicity
  _atom_site_fract_x
  _atom_site_fract_y
  _atom_site_fract_z
  _atom_site_occupancy
  O   O1        1.0  0.78432  0.29043  0.8305099999999999  1.0000
  O   O2        1.0  0.21568  0.29043  0.16949  1.0000
  O   O3        1.0  0.28432  0.7904299999999999  0.8305099999999999  1.0000
  O   O4        1.0  0.71568  0.7904299999999999  0.16949  1.0000
  O   O5        1.0  0.76264  0.04096  0.8252  1.0000
  O   O6        1.0  0.23736  0.04096  0.1748  1.0000
  O   O7        1.0  0.26264  0.54096  0.8252  1.0000
  O   O8        1.0  0.7373599999999999  0.54096  0.1748  1.0000
  C   C1        1.0  0.72575  0.9589099999999999  0.8551799999999999  1.0000
  C   C2        1.0  0.27425  0.95893  0.14481  1.0000
  C   C3        1.0  0.22574999999999998  0.45891  0.8551799999999999  1.0000
  C   C4        1.0  0.7742499999999998  0.45893  0.14481  1.0000
  O   O9        1.0  0.6673999999999998  0.9239699999999998  0.82995  1.0000
  O   O10       1.0  0.33259999999999995  0.9239699999999998  0.17005  1.0000
  O   O11       1.0  0.1674  0.42396999999999996  0.82995  1.0000
  O   O12       1.0  0.8326  0.42396999999999996  0.17005  1.0000
  O   O13       1.0  0.55396  0.08134  0.82178  1.0000
  O   O14       1.0  0.44603999999999994  0.08134  0.17822  1.0000
  O   O15       1.0  0.053959999999999994  0.58134  0.82178  1.0000
  O   O16       1.0  0.9460399999999998  0.58134  0.17822  1.0000
  C   C5        1.0  0.52999  0.17791  0.8508199999999999  1.0000
  C   C6        1.0  0.46998  0.17789  0.14916  1.0000
  C   C7        1.0  0.02998  0.67791  0.8508199999999999  1.0000
  C   C8        1.0  0.9699799999999998  0.6778899999999999  0.14916  1.0000
  O   O17       1.0  0.5431799999999998  0.28324  0.82674  1.0000
  O   O18       1.0  0.45682  0.28324  0.17326  1.0000
  O   O19       1.0  0.04318  0.78324  0.82674  1.0000
  O   O20       1.0  0.9568199999999999  0.78324  0.17326  1.0000
  O   O21       1.0  0.67836  0.37514  0.82271  1.0000
  O   O22       1.0  0.3216399999999999  0.37514  0.17729  1.0000
  O   O23       1.0  0.17836  0.87514  0.82271  1.0000
  O   O24       1.0  0.8216399999999999  0.87514  0.17729  1.0000
  C   C9        1.0  0.7389799999999997  0.36606  0.8520799999999998  1.0000
  C   C10       1.0  0.26099  0.36604999999999993  0.14792  1.0000
  C   C11       1.0  0.23897999999999997  0.86606  0.8520799999999998  1.0000
  C   C12       1.0  0.76099  0.8660499999999999  0.14792  1.0000
  O   O25       1.0  0.7850499999999998  0.28938  0.67056  1.0000
  O   O26       1.0  0.21495  0.28938  0.32944  1.0000
  O   O27       1.0  0.28505  0.78938  0.67056  1.0000
  O   O28       1.0  0.71495  0.78938  0.32944  1.0000
  O   O29       1.0  0.76332  0.03999  0.67693  1.0000
  O   O30       1.0  0.23668  0.03999  0.32307  1.0000
  O   O31       1.0  0.2633199999999999  0.53999  0.67693  1.0000
  O   O32       1.0  0.7366799999999998  0.53999  0.32307  1.0000
  C   C13       1.0  0.72718  0.95707  0.64632  1.0000
  C   C14       1.0  0.2715199999999999  0.95582  0.35294  1.0000
  C   C15       1.0  0.22727  0.45693  0.64636  1.0000
  C   C16       1.0  0.7714  0.45572  0.35285  1.0000
  O   O33       1.0  0.66813  0.92292  0.67  1.0000
  O   O34       1.0  0.3318699999999999  0.92292  0.32999999999999996  1.0000
  O   O35       1.0  0.16812999999999997  0.42292  0.67  1.0000
  O   O36       1.0  0.8318699999999998  0.42292  0.32999999999999996  1.0000
  O   O37       1.0  0.55464  0.08036999999999998  0.6735  1.0000
  O   O38       1.0  0.4453599999999999  0.08036999999999998  0.3265  1.0000
  O   O39       1.0  0.05463999999999999  0.58037  0.6735  1.0000
  O   O40       1.0  0.94536  0.58037  0.3265  1.0000
  C   C17       1.0  0.5331299999999999  0.17674  0.64293  1.0000
  C   C18       1.0  0.47043  0.17493999999999998  0.3548  1.0000
  C   C19       1.0  0.03267  0.67667  0.64324  1.0000
  C   C20       1.0  0.9700599999999999  0.67495  0.35501  1.0000
  O   O41       1.0  0.54392  0.28218  0.66679  1.0000
  O   O42       1.0  0.45607999999999993  0.28218  0.33321  1.0000
  O   O43       1.0  0.04392  0.78218  0.66679  1.0000
  O   O44       1.0  0.9560799999999998  0.78218  0.33321  1.0000
  O   O45       1.0  0.67904  0.37415999999999994  0.6744299999999999  1.0000
  O   O46       1.0  0.3209599999999999  0.37415999999999994  0.32557  1.0000
  O   O47       1.0  0.17903999999999995  0.87416  0.6744299999999999  1.0000
  O   O48       1.0  0.8209599999999999  0.87416  0.32557  1.0000
  C   C21       1.0  0.73945  0.36195  0.64594  1.0000
  C   C22       1.0  0.26058999999999993  0.3644899999999999  0.35328  1.0000
  C   C23       1.0  0.23957  0.8625  0.64613  1.0000
  C   C24       1.0  0.7606899999999998  0.8644099999999999  0.35333  1.0000
  Cr  Cr1       1.0  0.76927  0.16373  0.75071  1.0000
  Cr  Cr2       1.0  0.23073  0.16373  0.24929  1.0000
  Cr  Cr3       1.0  0.26927  0.66373  0.75071  1.0000
  Cr  Cr4       1.0  0.7307299999999998  0.66373  0.24929  1.0000
  Cr  Cr5       1.0  0.61262  0.00979  0.74878  1.0000
  Cr  Cr6       1.0  0.38738  0.00979  0.25122  1.0000
  Cr  Cr7       1.0  0.11262  0.50979  0.74878  1.0000
  Cr  Cr8       1.0  0.8873799999999998  0.50979  0.25122  1.0000
  Cr  Cr9       1.0  0.61416  0.3225  0.74771  1.0000
  Cr  Cr10      1.0  0.38584  0.3225  0.25229  1.0000
  Cr  Cr11      1.0  0.11415999999999997  0.8225  0.74771  1.0000
  Cr  Cr12      1.0  0.8858399999999998  0.8225  0.25229  1.0000
  O   O49       1.0  0.6653499999999999  0.16534  0.74907  1.0000
  O   O50       1.0  0.3346499999999999  0.16534  0.25093  1.0000
  O   O51       1.0  0.16534999999999997  0.66534  0.74907  1.0000
  O   O52       1.0  0.83465  0.66534  0.25093  1.0000
  C   C25       1.0  0.4976999999999999  0.17036  0.92091  1.0000
  C   C26       1.0  0.5021599999999999  0.17028  0.07902  1.0000
  C   C27       1.0  0.9976999999999998  0.67036  0.92091  1.0000
  C   C28       1.0  0.0021600000000000005  0.67028  0.07902  1.0000
  C   C29       1.0  0.4913899999999999  0.0724  0.03788  1.0000
  C   C30       1.0  0.5083399999999998  0.07234  0.96209  1.0000
  C   C31       1.0  0.99139  0.5723999999999999  0.03788  1.0000
  C   C32       1.0  0.00834  0.57234  0.96209  1.0000
  H   H1        1.0  0.46986999999999995  0.9894699999999997  0.06015  1.0000
  H   H2        1.0  0.52979  0.9892699999999999  0.93988  1.0000
  H   H3        1.0  0.96987  0.48947  0.06015  1.0000
  H   H4        1.0  0.029789999999999997  0.48927  0.93988  1.0000
  H   H5        1.0  0.52608  0.25207  0.05717  1.0000
  H   H6        1.0  0.47383999999999993  0.25229  0.9427100000000002  1.0000
  H   H7        1.0  0.026079999999999996  0.75207  0.05717  1.0000
  H   H8        1.0  0.9738399999999999  0.75229  0.9427100000000002  1.0000
  C   C33       1.0  0.69253  0.45363999999999993  0.96325  1.0000
  C   C34       1.0  0.30737999999999993  0.45355999999999996  0.03673  1.0000
  C   C35       1.0  0.19252999999999995  0.95364  0.96325  1.0000
  C   C36       1.0  0.80738  0.95356  0.03673  1.0000
  H   H9        1.0  0.6415999999999998  0.4693  0.93866  1.0000
  H   H10       1.0  0.35829  0.4691199999999999  0.061320000000000006  1.0000
  H   H11       1.0  0.1416  0.9693  0.93866  1.0000
  H   H12       1.0  0.85829  0.96911  0.061320000000000006  1.0000
  C   C37       1.0  0.6982199999999997  0.4635699999999999  0.03664  1.0000
  C   C38       1.0  0.30172  0.46337999999999996  0.9633299999999999  1.0000
  C   C39       1.0  0.19822  0.96357  0.03664  1.0000
  C   C40       1.0  0.80172  0.9633799999999998  0.9633299999999999  1.0000
  H   H13       1.0  0.6532199999999999  0.49427  0.06703  1.0000
  H   H14       1.0  0.34671  0.49392  0.93292  1.0000
  H   H15       1.0  0.15322  0.9942699999999999  0.06703  1.0000
  H   H16       1.0  0.84671  0.9939199999999999  0.93292  1.0000
  C   C41       1.0  0.76153  0.4318  0.07027  1.0000
  C   C42       1.0  0.23846  0.43173  0.92973  1.0000
  C   C43       1.0  0.26153  0.9317999999999997  0.07027  1.0000
  C   C44       1.0  0.73846  0.9317299999999998  0.92972  1.0000
  C   C45       1.0  0.81983  0.3968499999999999  0.02969  1.0000
  C   C46       1.0  0.18015999999999996  0.39698  0.97032  1.0000
  C   C47       1.0  0.3198299999999999  0.89685  0.02969  1.0000
  C   C48       1.0  0.6801699999999998  0.89698  0.97032  1.0000
  H   H17       1.0  0.86961  0.37550999999999995  0.05497  1.0000
  H   H18       1.0  0.1304  0.37575  0.94505  1.0000
  H   H19       1.0  0.36961  0.87552  0.05497  1.0000
  H   H20       1.0  0.6303999999999998  0.8757499999999999  0.94505  1.0000
  C   C49       1.0  0.81692  0.39737  0.95645  1.0000
  C   C50       1.0  0.18302999999999997  0.39759999999999995  0.04355  1.0000
  C   C51       1.0  0.31692  0.89736  0.95645  1.0000
  C   C52       1.0  0.68303  0.8975999999999998  0.04355  1.0000
  C   C53       1.0  0.75105  0.41694  0.9227599999999999  1.0000
  C   C54       1.0  0.24888  0.41703999999999997  0.07724  1.0000
  C   C55       1.0  0.25105  0.91694  0.9227599999999999  1.0000
  C   C56       1.0  0.7488799999999998  0.91704  0.07724  1.0000
  C   C57       1.0  0.5495599999999999  0.25806  0.52482  1.0000
  C   C58       1.0  0.54037  0.25264  0.45274  1.0000
  C   C59       1.0  0.05289  0.75207  0.5246  1.0000
  C   C60       1.0  0.04276  0.74698  0.45257  1.0000
  H   H21       1.0  0.5809  0.33144  0.54637  1.0000
  H   H22       1.0  0.5613399999999997  0.32432  0.41964  1.0000
  H   H23       1.0  0.08802999999999998  0.8205699999999999  0.54568  1.0000
  H   H24       1.0  0.06715000000000002  0.8142499999999999  0.41872  1.0000
  C   C61       1.0  0.49960999999999994  0.15968  0.42437  1.0000
  C   C62       1.0  0.51857  0.16977  0.5686599999999999  1.0000
  C   C63       1.0  0.99758  0.65947  0.42514  1.0000
  C   C64       1.0  0.01789  0.66953  0.56914  1.0000
  C   C65       1.0  0.47412  0.06444  0.46737000000000006  1.0000
  C   C66       1.0  0.48374999999999996  0.06958  0.53992  1.0000
  C   C67       1.0  0.96742  0.5696  0.4689999999999999  1.0000
  C   C68       1.0  0.97781  0.5746  0.54143  1.0000
  H   H25       1.0  0.44249  0.9909999999999999  0.44577  1.0000
  H   H26       1.0  0.4625099999999999  0.9983199999999999  0.57343  1.0000
  H   H27       1.0  0.93206  0.50082  0.44804  1.0000
  H   H28       1.0  0.9531599999999999  0.50772  0.57564  1.0000
  C   C69       1.0  0.79651  0.33228  0.53212  1.0000
  C   C70       1.0  0.18793  0.38832999999999995  0.45823  1.0000
  C   C71       1.0  0.29892  0.8377299999999999  0.53315  1.0000
  C   C72       1.0  0.68768  0.89154  0.45779999999999993  1.0000
  H   H29       1.0  0.83297  0.26799  0.556  1.0000
  H   H30       1.0  0.14209  0.35784  0.42875  1.0000
  H   H31       1.0  0.33670999999999995  0.77625  0.55742  1.0000
  H   H32       1.0  0.64162  0.8631299999999998  0.42796  1.0000
  C   C73       1.0  0.7968899999999998  0.34125  0.45979999999999993  1.0000
  C   C74       1.0  0.18387  0.39228  0.53075  1.0000
  C   C75       1.0  0.2992699999999999  0.84563  0.46082  1.0000
  C   C76       1.0  0.6832199999999998  0.8957999999999999  0.5303  1.0000
  H   H33       1.0  0.83652  0.29004  0.43143999999999993  1.0000
  H   H34       1.0  0.13337  0.37003  0.55408  1.0000
  H   H35       1.0  0.34009  0.79636  0.43298  1.0000
  H   H36       1.0  0.63225  0.8760399999999998  0.55335  1.0000
  C   C77       1.0  0.7507899999999997  0.42036999999999997  0.42487  1.0000
  C   C78       1.0  0.24213999999999997  0.42767  0.57213  1.0000
  C   C79       1.0  0.25158  0.92122  0.42528  1.0000
  C   C80       1.0  0.7418399999999999  0.92823  0.57205  1.0000
  C   C81       1.0  0.69931  0.48677999999999993  0.46453  1.0000
  C   C82       1.0  0.3060699999999999  0.46106  0.5387  1.0000
  C   C83       1.0  0.19896999999999995  0.98564  0.46447999999999995  1.0000
  C   C84       1.0  0.8063899999999999  0.95899  0.5391  1.0000
  C   C85       1.0  0.70181  0.48217  0.5393  1.0000
  C   C86       1.0  0.30909  0.46156  0.46397  1.0000
  C   C87       1.0  0.20113999999999999  0.9816999999999999  0.53928  1.0000
  C   C88       1.0  0.8099199999999998  0.9592499999999999  0.46440999999999993  1.0000
  C   C89       1.0  0.7490899999999999  0.40083  0.57264  1.0000
  C   C90       1.0  0.25097  0.41561  0.42430000000000007  1.0000
  C   C91       1.0  0.24963  0.9030399999999998  0.57315  1.0000
  C   C92       1.0  0.75135  0.9157999999999998  0.42432000000000003  1.0000
  C   C93       1.0  0.6438499999999999  0.56295  0.43036  1.0000
  H   H37       1.0  0.62851  0.64909  0.45376  1.0000
  O   O53       1.0  0.61219  0.52734  0.37787  1.0000
  C   C94       1.0  0.3697399999999999  0.49502  0.58037  1.0000
  H   H38       1.0  0.40384  0.56808  0.56245  1.0000
  O   O54       1.0  0.3860099999999999  0.43853  0.63382  1.0000
  C   C95       1.0  0.1425  0.05892  0.42979999999999996  1.0000
  H   H39       1.0  0.12546999999999994  0.14426  0.45305  1.0000
  O   O55       1.0  0.11194  0.02174  0.37702  1.0000
  C   C96       1.0  0.87016  0.99054  0.58127  1.0000
  H   H40       1.0  0.9052899999999999  0.062329999999999997  0.56362  1.0000
  O   O56       1.0  0.88529  0.93351  0.63485  1.0000
  N   N1        1.0  0.6575699999999998  0.56039  0.58142  1.0000
  O   O57       1.0  0.58951  0.56194  0.57231  1.0000
  O   O58       1.0  0.68524  0.6255  0.63199  1.0000
  N   N2        1.0  0.37095  0.50691  0.42871  1.0000
  O   O59       1.0  0.43325  0.46553  0.44505  1.0000
  O   O60       1.0  0.3648  0.58769  0.37849  1.0000
  N   N3        1.0  0.15491999999999995  0.05724  0.58087  1.0000
  O   O61       1.0  0.08693  0.05382  0.57144  1.0000
  O   O62       1.0  0.18076999999999996  0.12445  0.63149  1.0000
  N   N4        1.0  0.8728199999999999  0.0015  0.42969999999999997  1.0000
  O   O63       1.0  0.9343099999999998  0.95755  0.44687  1.0000
  O   O64       1.0  0.8685499999999999  0.0833  0.37986  1.0000
  C   C97       1.0  0.88333  0.37646  0.9165899999999999  1.0000
  H   H41       1.0  0.8895799999999999  0.41402  0.86374  1.0000
  O   O65       1.0  0.9313799999999999  0.31625  0.94212  1.0000
  C   C98       1.0  0.11662999999999998  0.37685  0.08341  1.0000
  H   H42       1.0  0.11031999999999999  0.41452  0.1362  1.0000
  O   O66       1.0  0.06868  0.31661  0.05797  1.0000
  C   C99       1.0  0.38333  0.87646  0.9165899999999999  1.0000
  H   H43       1.0  0.3895799999999999  0.91402  0.86374  1.0000
  O   O67       1.0  0.43138  0.81625  0.94212  1.0000
  C   C100      1.0  0.6166299999999998  0.8768499999999999  0.08341  1.0000
  H   H44       1.0  0.61032  0.91452  0.1362  1.0000
  O   O68       1.0  0.56868  0.8166099999999998  0.05797  1.0000
