data_image0
_chemical_formula_structural       O4C2O4C2O2V2C2H4C26H6C8O4C2O4C2O2V2Cl2NHCH3NHCH3Cl2
_chemical_formula_sum              "O20 C46 V4 H18 Cl4 N2"
_cell_length_a       20.86333
_cell_length_b       7.12597
_cell_length_c       14.021989999999999
_cell_angle_alpha    89.94597999999999
_cell_angle_beta     97.93164000000002
_cell_angle_gamma    90.05962000000001

_space_group_name_H-M_alt    "P 1"
_space_group_IT_number       1

loop_
  _space_group_symop_operation_xyz
  'x, y, z'

loop_
  _atom_site_type_symbol
  _atom_site_label
  _atom_site_symmetry_multiplicity
  _atom_site_fract_x
  _atom_site_fract_y
  _atom_site_fract_z
  _atom_site_occupancy
  O   O1        1.0  0.4471300000000001  0.50714  0.5973499999999999  1.0000
  O   O2        1.0  0.55287  0.0071400000000000005  0.40265  1.0000
  O   O3        1.0  0.57891  0.18128  0.58699  1.0000
  O   O4        1.0  0.42109  0.68128  0.41301  1.0000
  C   C1        1.0  0.60453  0.34452  0.60727  1.0000
  C   C2        1.0  0.39547000000000004  0.84447  0.39273  1.0000
  O   O5        1.0  0.4492300000000001  0.17786  0.60864  1.0000
  O   O6        1.0  0.5507699999999999  0.6778600000000001  0.39135999999999993  1.0000
  O   O7        1.0  0.4222600000000001  0.00077  0.42445  1.0000
  O   O8        1.0  0.57774  0.50077  0.57555  1.0000
  C   C3        1.0  0.43297  0.34649  0.63494  1.0000
  C   C4        1.0  0.567  0.84677  0.36501999999999996  1.0000
  O   O9        1.0  0.49131  0.33698000000000006  0.43955  1.0000
  O   O10       1.0  0.50869  0.83698  0.56045  1.0000
  V   V1        1.0  0.50161  0.06476  0.51121  1.0000
  V   V2        1.0  0.49839  0.56476  0.48879  1.0000
  C   C5        1.0  0.6215900000000001  0.9518100000000003  0.12623  1.0000
  C   C6        1.0  0.37903  0.43652  0.8756399999999998  1.0000
  H   H1        1.0  0.7072100000000001  0.98518  0.00441  1.0000
  H   H2        1.0  0.29363999999999996  0.46137  0.9982799999999997  1.0000
  H   H3        1.0  0.60072  0.9925500000000003  0.05407  1.0000
  H   H4        1.0  0.40019  0.4697800000000001  0.94868  1.0000
  C   C7        1.0  0.60705  0.8606100000000001  0.28769  1.0000
  C   C8        1.0  0.39287000000000005  0.35906  0.7122  1.0000
  C   C9        1.0  0.9213200000000001  0.83153  0.30516999999999994  1.0000
  C   C10       1.0  0.07848000000000002  0.34372  0.69426  1.0000
  C   C11       1.0  0.88621  0.84389  0.38218  1.0000
  C   C12       1.0  0.11371  0.36208000000000007  0.6176199999999998  1.0000
  C   C13       1.0  0.8185800000000001  0.873  0.36638  1.0000
  C   C14       1.0  0.18153  0.38716  0.63411  1.0000
  C   C15       1.0  0.7856000000000001  0.87842  0.26933  1.0000
  C   C16       1.0  0.21452  0.3819000000000001  0.73115  1.0000
  C   C17       1.0  0.8238100000000002  0.88593  0.19237999999999994  1.0000
  C   C18       1.0  0.17637  0.38317  0.80824  1.0000
  C   C19       1.0  0.7165400000000001  0.88284  0.24487  1.0000
  C   C20       1.0  0.28359  0.382  0.75558  1.0000
  C   C21       1.0  0.6887900000000001  0.93029  0.14954999999999993  1.0000
  C   C22       1.0  0.3116700000000001  0.4196  0.85191  1.0000
  C   C23       1.0  0.7280200000000001  0.95193  0.07763  1.0000
  C   C24       1.0  0.2726  0.43567  0.92435  1.0000
  C   C25       1.0  0.7941200000000002  0.9231400000000001  0.09778999999999997  1.0000
  C   C26       1.0  0.20632  0.41067  0.9036  1.0000
  C   C27       1.0  0.67372  0.8327100000000002  0.31005  1.0000
  C   C28       1.0  0.326  0.3364100000000001  0.6891899999999999  1.0000
  C   C29       1.0  0.5809  0.92319  0.19575999999999993  1.0000
  C   C30       1.0  0.41952000000000006  0.41219  0.80549  1.0000
  C   C31       1.0  0.8913900000000001  0.85941  0.21132999999999996  1.0000
  C   C32       1.0  0.10861  0.36114  0.78868  1.0000
  H   H5        1.0  0.69089  0.7696200000000002  0.37833  1.0000
  H   H6        1.0  0.30833  0.27997  0.61954  1.0000
  H   H7        1.0  0.97334  0.81248  0.31911  1.0000
  H   H8        1.0  0.02630999999999999  0.32883  0.6798799999999999  1.0000
  H   H9        1.0  0.82197  0.93395  0.03834  1.0000
  H   H10       1.0  0.17853  0.41674  0.9632699999999997  1.0000
  C   C33       1.0  0.16649  0.85711  0.16861  1.0000
  C   C34       1.0  0.8335100000000001  0.35701  0.8313999999999998  1.0000
  C   C35       1.0  0.21884  0.85482  0.21985  1.0000
  C   C36       1.0  0.78115  0.35481000000000007  0.7801599999999999  1.0000
  C   C37       1.0  0.28058  0.8533700000000001  0.27989  1.0000
  C   C38       1.0  0.7194100000000001  0.35348  0.7201199999999999  1.0000
  C   C39       1.0  0.33299000000000006  0.85105  0.33099  1.0000
  C   C40       1.0  0.6670000000000001  0.35120000000000007  0.66901  1.0000
  O   O11       1.0  0.9223  0.20224000000000006  0.92435  1.0000
  O   O12       1.0  0.0777  0.70224  0.07564999999999998  1.0000
  O   O13       1.0  0.050780000000000006  0.53513  0.89135  1.0000
  O   O14       1.0  0.94922  0.03513  0.10865  1.0000
  C   C41       1.0  0.06758  0.36816  0.86539  1.0000
  C   C42       1.0  0.93237  0.8678700000000001  0.13456  1.0000
  O   O15       1.0  0.9211  0.53156  0.91299  1.0000
  O   O16       1.0  0.0789  0.03156  0.08701  1.0000
  O   O17       1.0  0.9471200000000001  0.70847  0.09737  1.0000
  O   O18       1.0  0.05287999999999999  0.20847  0.9026299999999999  1.0000
  C   C43       1.0  0.8959  0.36351  0.89336  1.0000
  C   C44       1.0  0.10409  0.86356  0.10664  1.0000
  O   O19       1.0  0.00871  0.3758  0.0604  1.0000
  O   O20       1.0  0.9912900000000002  0.8758  0.9396  1.0000
  V   V3        1.0  0.99838  0.64808  0.98879  1.0000
  V   V4        1.0  0.0016200000000000001  0.14808  0.01121  1.0000
  Cl  Cl1       1.0  0.49721  0.96152  0.16497  1.0000
  Cl  Cl2       1.0  0.50351  0.44343000000000005  0.8371  1.0000
  N   N1        1.0  0.78799  0.93365  0.44613  1.0000
  H   H11       1.0  0.75243  0.03467000000000001  0.43424  1.0000
  C   C45       1.0  0.7842100000000001  0.8042600000000001  0.5252  1.0000
  H   H12       1.0  0.73316  0.78716  0.53786  1.0000
  H   H13       1.0  0.81194  0.8622300000000003  0.59191  1.0000
  H   H14       1.0  0.8037800000000002  0.66373  0.51046  1.0000
  N   N2        1.0  0.21256  0.4548500000000001  0.55607  1.0000
  H   H15       1.0  0.24885000000000002  0.55329  0.57063  1.0000
  C   C46       1.0  0.21544  0.33364  0.47362  1.0000
  H   H16       1.0  0.26639000000000007  0.31592000000000003  0.4606  1.0000
  H   H17       1.0  0.18825  0.39948000000000006  0.4085499999999999  1.0000
  H   H18       1.0  0.19477  0.19258  0.48448999999999987  1.0000
  Cl  Cl3       1.0  0.93073  0.84314  0.49857  1.0000
  Cl  Cl4       1.0  0.06921  0.37497  0.50142  1.0000
