data_image0
_chemical_formula_structural       O8C4O8C4O4V4C4H4C4H4C40H16NH2NH2NH2NH2
_chemical_formula_sum              "O20 C56 V4 H32 N4"
_cell_length_a       21.63178
_cell_length_b       7.182400000000001
_cell_length_c       14.88173
_cell_angle_alpha    89.90752
_cell_angle_beta     106.36994
_cell_angle_gamma    89.97468

_space_group_name_H-M_alt    "P 1"
_space_group_IT_number       1

loop_
  _space_group_symop_operation_xyz
  'x, y, z'

loop_
  _atom_site_type_symbol
  _atom_site_label
  _atom_site_symmetry_multiplicity
  _atom_site_fract_x
  _atom_site_fract_y
  _atom_site_fract_z
  _atom_site_occupancy
  O   O1        1.0  0.33586  0.63819  0.00211  1.0000
  O   O2        1.0  0.6641399999999998  0.36181  0.99789  1.0000
  O   O3        1.0  0.16413999999999995  0.13819000000000006  0.99789  1.0000
  O   O4        1.0  0.8358599999999999  0.8618100000000002  0.00211  1.0000
  O   O5        1.0  0.21753  0.30592  0.86196  1.0000
  O   O6        1.0  0.7824699999999999  0.6940800000000003  0.13804  1.0000
  O   O7        1.0  0.28247  0.8059200000000002  0.13804  1.0000
  O   O8        1.0  0.71753  0.19408000000000006  0.86196  1.0000
  C   C1        1.0  0.20583999999999997  0.4768500000000001  0.82585  1.0000
  C   C2        1.0  0.7941599999999999  0.52315  0.17415000000000003  1.0000
  C   C3        1.0  0.29419  0.97645  0.17421  1.0000
  C   C4        1.0  0.70581  0.02355000000000001  0.82579  1.0000
  O   O9        1.0  0.33869  0.30832  0.99324  1.0000
  O   O10       1.0  0.66131  0.69168  0.00676  1.0000
  O   O11       1.0  0.16131  0.80832  0.00676  1.0000
  O   O12       1.0  0.83869  0.19168  0.99324  1.0000
  O   O13       1.0  0.28617  0.14043  0.1301  1.0000
  O   O14       1.0  0.71383  0.8595700000000002  0.8699000000000001  1.0000
  O   O15       1.0  0.21383  0.6404300000000002  0.8699000000000001  1.0000
  O   O16       1.0  0.78617  0.3595700000000001  0.1301  1.0000
  C   C5        1.0  0.36498  0.47720000000000007  0.9978  1.0000
  C   C6        1.0  0.63502  0.5228  0.0022  1.0000
  C   C7        1.0  0.13502  0.9772500000000002  0.00219  1.0000
  C   C8        1.0  0.86498  0.022750000000000003  0.9978100000000002  1.0000
  O   O17       1.0  0.23263  0.4724100000000001  0.04475  1.0000
  O   O18       1.0  0.76737  0.52759  0.95525  1.0000
  O   O19       1.0  0.26737  0.97241  0.95525  1.0000
  O   O20       1.0  0.73263  0.02759  0.04475  1.0000
  V   V1        1.0  0.25322  0.19662000000000004  0.9917  1.0000
  V   V2        1.0  0.74678  0.8033800000000002  0.0083  1.0000
  V   V3        1.0  0.24678  0.6966200000000002  0.0083  1.0000
  V   V4        1.0  0.75322  0.3033800000000001  0.9917  1.0000
  C   C9        1.0  0.03008  0.82642  0.004420000000000001  1.0000
  C   C10       1.0  0.96992  0.17358  0.99558  1.0000
  C   C11       1.0  0.47009  0.3263700000000001  0.99615  1.0000
  C   C12       1.0  0.52991  0.67363  0.00385  1.0000
  H   H1        1.0  0.05203  0.6901100000000001  0.007690000000000001  1.0000
  H   H2        1.0  0.94797  0.3098900000000001  0.99231  1.0000
  H   H3        1.0  0.44827  0.19004  0.99335  1.0000
  H   H4        1.0  0.55173  0.8099600000000002  0.0066500000000000005  1.0000
  C   C13       1.0  0.96512  0.8377700000000002  0.00283  1.0000
  C   C14       1.0  0.03488000000000005  0.16223000000000007  0.99717  1.0000
  C   C15       1.0  0.53505  0.33778000000000014  0.99775  1.0000
  C   C16       1.0  0.4649499999999999  0.6622200000000003  0.00225  1.0000
  H   H5        1.0  0.9393599999999999  0.7094600000000002  0.00522  1.0000
  H   H6        1.0  0.06063999999999999  0.29054  0.99478  1.0000
  H   H7        1.0  0.56094  0.20946000000000006  0.99584  1.0000
  H   H8        1.0  0.43906  0.7905400000000001  0.00416  1.0000
  C   C17       1.0  0.93402  0.01154  0.99836  1.0000
  C   C18       1.0  0.06598  0.9884600000000002  0.0016400000000000002  1.0000
  C   C19       1.0  0.56598  0.5116  0.00165  1.0000
  C   C20       1.0  0.43402  0.4884000000000001  0.99835  1.0000
  C   C21       1.0  0.67813  0.018160000000000006  0.72418  1.0000
  C   C22       1.0  0.32187  0.98184  0.27582  1.0000
  C   C23       1.0  0.82201  0.51552  0.27561  1.0000
  C   C24       1.0  0.17799  0.4844800000000001  0.72439  1.0000
  C   C25       1.0  0.68967  0.06289000000000002  0.56825  1.0000
  C   C26       1.0  0.31033  0.9371200000000002  0.43175  1.0000
  C   C27       1.0  0.80924  0.5225500000000002  0.43217  1.0000
  C   C28       1.0  0.19076  0.47745  0.56783  1.0000
  C   C29       1.0  0.7168  0.052670000000000015  0.6654  1.0000
  C   C30       1.0  0.2832  0.94733  0.3346  1.0000
  C   C31       1.0  0.7824599999999999  0.52468  0.33481  1.0000
  C   C32       1.0  0.21753999999999998  0.4753200000000001  0.66519  1.0000
  C   C33       1.0  0.61189  0.99343  0.68697  1.0000
  C   C34       1.0  0.38809999999999995  0.006570000000000001  0.31303  1.0000
  C   C35       1.0  0.8887399999999999  0.50586  0.31248  1.0000
  C   C36       1.0  0.11126  0.49414000000000013  0.68752  1.0000
  C   C37       1.0  0.58204  0.006939999999999999  0.5894400000000002  1.0000
  C   C38       1.0  0.41796  0.99307  0.41056  1.0000
  C   C39       1.0  0.9180999999999999  0.50641  0.4103  1.0000
  C   C40       1.0  0.0819  0.49359000000000003  0.5897  1.0000
  C   C41       1.0  0.62211  0.043040000000000016  0.53015  1.0000
  C   C42       1.0  0.37788  0.9569700000000002  0.46985  1.0000
  C   C43       1.0  0.87709  0.51234  0.47016  1.0000
  C   C44       1.0  0.12290999999999999  0.4876700000000001  0.52984  1.0000
  C   C45       1.0  0.51371  0.9895500000000003  0.5494  1.0000
  C   C46       1.0  0.48629  0.01046  0.4506  1.0000
  C   C47       1.0  0.9866700000000002  0.50131  0.45027  1.0000
  C   C48       1.0  0.01333  0.49869000000000013  0.54973  1.0000
  C   C49       1.0  0.52811  0.04774000000000001  0.39502  1.0000
  C   C50       1.0  0.47189  0.9522700000000002  0.60498  1.0000
  C   C51       1.0  0.9705  0.50001  0.60599  1.0000
  C   C52       1.0  0.029500000000000016  0.5  0.3940100000000001  1.0000
  C   C53       1.0  0.59412  0.06262000000000001  0.43381000000000003  1.0000
  C   C54       1.0  0.40587999999999996  0.9374000000000002  0.56619  1.0000
  C   C55       1.0  0.9043199999999998  0.5072900000000001  0.56713  1.0000
  C   C56       1.0  0.09567999999999999  0.4927200000000001  0.43287  1.0000
  H   H9        1.0  0.62319  0.09230000000000002  0.38699  1.0000
  H   H10       1.0  0.37681000000000003  0.9077200000000002  0.61301  1.0000
  H   H11       1.0  0.87442  0.50827  0.61452  1.0000
  H   H12       1.0  0.12558  0.4917400000000001  0.38548  1.0000
  H   H13       1.0  0.41481000000000007  0.029830000000000006  0.263  1.0000
  H   H14       1.0  0.58519  0.9701600000000002  0.73699  1.0000
  H   H15       1.0  0.08404  0.50099  0.73783  1.0000
  H   H16       1.0  0.91596  0.499  0.26217  1.0000
  H   H17       1.0  0.23186  0.92725  0.3044700000000001  1.0000
  H   H18       1.0  0.76814  0.07276  0.6955300000000002  1.0000
  H   H19       1.0  0.2693  0.46609  0.69507  1.0000
  H   H20       1.0  0.7307  0.5339200000000001  0.30493  1.0000
  H   H21       1.0  0.51167  0.06776000000000003  0.32043  1.0000
  H   H22       1.0  0.4883300000000001  0.93226  0.6795700000000001  1.0000
  H   H23       1.0  0.98621  0.49501  0.6812400000000002  1.0000
  H   H24       1.0  0.013790000000000005  0.5050000000000001  0.31876  1.0000
  N   N1        1.0  0.73028  0.09776000000000003  0.50829  1.0000
  H   H25       1.0  0.7778100000000001  0.12197000000000002  0.54789  1.0000
  H   H26       1.0  0.73106  0.9765400000000002  0.46985  1.0000
  N   N2        1.0  0.26972  0.90225  0.49171  1.0000
  H   H27       1.0  0.22219  0.8780400000000003  0.4521100000000001  1.0000
  H   H28       1.0  0.26894  0.02347  0.53014  1.0000
  N   N3        1.0  0.76781  0.53141  0.4926300000000001  1.0000
  H   H29       1.0  0.71938  0.5242900000000001  0.45368  1.0000
  H   H30       1.0  0.77434  0.6618100000000002  0.52501  1.0000
  N   N4        1.0  0.23218999999999998  0.46861  0.50737  1.0000
  H   H31       1.0  0.28062  0.4757300000000001  0.54632  1.0000
  H   H32       1.0  0.22566  0.3382000000000001  0.47499  1.0000
