data_image0
_chemical_formula_structural       O8C4O8C4O4V4C4H8C52H24
_chemical_formula_sum              "O20 C64 V4 H32"
_cell_length_a       7.2414
_cell_length_b       14.796709999999997
_cell_length_c       22.564570000000003
_cell_angle_alpha    89.99990999999999
_cell_angle_beta     90.02101999999998
_cell_angle_gamma    88.92433

_symmetry_space_group_name_H-M    'P 1'
_symmetry_Int_Tables_number       1

loop_
  _symmetry_equiv_pos_as_xyz
  'x,y,z'

loop_
  _atom_site_type_symbol
  _atom_site_label
  _atom_site_symmetry_multiplicity
  _atom_site_fract_x
  _atom_site_fract_y
  _atom_site_fract_z
  _atom_site_occupancy
  O   O1        1.0  0.39081  0.8448099999999997  0.44734000000000007  1.0000
  O   O2        1.0  0.10919000000000001  0.15519  0.9473400000000002  1.0000
  O   O3        1.0  0.8908100000000002  0.65519  0.55266  1.0000
  O   O4        1.0  0.6091900000000002  0.34481  0.05266  1.0000
  O   O5        1.0  0.72055  0.65582  0.4404200000000001  1.0000
  O   O6        1.0  0.77945  0.34418  0.94042  1.0000
  O   O7        1.0  0.22055000000000005  0.8441799999999998  0.55958  1.0000
  O   O8        1.0  0.27945000000000003  0.15582  0.05958000000000001  1.0000
  C   C1        1.0  0.55363  0.6265299999999998  0.42618000000000006  1.0000
  C   C2        1.0  0.9463300000000002  0.3734699999999999  0.92618  1.0000
  C   C3        1.0  0.05079000000000001  0.87328  0.57381  1.0000
  C   C4        1.0  0.44927  0.1267  0.0738  1.0000
  O   O9        1.0  0.7205300000000002  0.8441299999999998  0.4404200000000001  1.0000
  O   O10       1.0  0.7794700000000002  0.15586999999999995  0.94042  1.0000
  O   O11       1.0  0.22053  0.65587  0.55958  1.0000
  O   O12       1.0  0.27947  0.3441299999999999  0.05958000000000001  1.0000
  O   O13       1.0  0.8908300000000002  0.8448099999999997  0.55266  1.0000
  O   O14       1.0  0.60917  0.15519  0.05266  1.0000
  O   O15       1.0  0.39083  0.65519  0.44734000000000007  1.0000
  O   O16       1.0  0.10917  0.34481  0.9473400000000002  1.0000
  C   C5        1.0  0.55077  0.87345  0.42631  1.0000
  C   C6        1.0  0.94917  0.12655  0.9263200000000001  1.0000
  C   C7        1.0  0.053720000000000025  0.62677  0.57397  1.0000
  C   C8        1.0  0.44633  0.37324  0.07396  1.0000
  O   O17       1.0  0.5573100000000001  0.74998  0.5368200000000001  1.0000
  O   O18       1.0  0.9426900000000002  0.25002  0.03682  1.0000
  O   O19       1.0  0.05731000000000002  0.7500199999999998  0.46318000000000004  1.0000
  O   O20       1.0  0.4426900000000001  0.24998  0.9631800000000001  1.0000
  V   V1        1.0  0.8321600000000002  0.74998  0.49317  1.0000
  V   V2        1.0  0.6678400000000001  0.25002  0.9931700000000001  1.0000
  V   V3        1.0  0.3321600000000001  0.7500199999999998  0.5068300000000001  1.0000
  V   V4        1.0  0.16784  0.24998  0.006830000000000002  1.0000
  C   C9        1.0  0.8555900000000002  0.6015  0.85748  1.0000
  C   C10       1.0  0.6431700000000002  0.39835  0.35759  1.0000
  C   C11       1.0  0.5224600000000003  0.89321  0.13604000000000002  1.0000
  C   C12       1.0  0.9812  0.10699999999999998  0.63608  1.0000
  H   H1        1.0  0.8272400000000002  0.5442699999999998  0.94412  1.0000
  H   H2        1.0  0.67149  0.45558  0.44425  1.0000
  H   H3        1.0  0.4949600000000001  0.95012  0.049070000000000016  1.0000
  H   H4        1.0  0.009110000000000004  0.050119999999999984  0.54912  1.0000
  H   H5        1.0  0.8239000000000001  0.72178  0.7711  1.0000
  H   H6        1.0  0.6740199999999998  0.27791  0.27129  1.0000
  H   H7        1.0  0.58569  0.7697799999999998  0.21879000000000004  1.0000
  H   H8        1.0  0.91902  0.23056  0.7187900000000002  1.0000
  C   C13       1.0  0.94687  0.4480399999999999  0.88271  1.0000
  C   C14       1.0  0.5529500000000003  0.5519699999999998  0.38272  1.0000
  C   C15       1.0  0.4640600000000001  0.05202  0.11684000000000001  1.0000
  C   C16       1.0  0.03628000000000002  0.9479299999999998  0.6168800000000001  1.0000
  C   C17       1.0  0.12794000000000003  0.4682899999999999  0.59807  1.0000
  C   C18       1.0  0.37341000000000013  0.5319  0.09792000000000002  1.0000
  C   C19       1.0  0.50891  0.03611  0.40722  1.0000
  C   C20       1.0  0.98879  0.9637499999999998  0.9072100000000002  1.0000
  C   C21       1.0  0.15332000000000007  0.3971499999999999  0.63759  1.0000
  C   C22       1.0  0.34885  0.6032  0.13738  1.0000
  C   C23       1.0  0.47871000000000014  0.10975999999999997  0.36999000000000004  1.0000
  C   C24       1.0  0.01809000000000001  0.89002  0.8700000000000001  1.0000
  C   C25       1.0  0.10822000000000002  0.40762  0.69722  1.0000
  C   C26       1.0  0.39362  0.5927099999999997  0.19704000000000002  1.0000
  C   C27       1.0  0.4729200000000001  0.09831  0.30874  1.0000
  C   C28       1.0  0.024730000000000002  0.9014899999999999  0.80875  1.0000
  C   C29       1.0  0.03144000000000001  0.48975999999999986  0.71889  1.0000
  C   C30       1.0  0.46912  0.51035  0.21883  1.0000
  C   C31       1.0  0.50092  0.01214  0.28273  1.0000
  C   C32       1.0  0.9985000000000004  0.98779  0.7827400000000001  1.0000
  C   C33       1.0  0.00398  0.56266  0.6777500000000001  1.0000
  C   C34       1.0  0.4959000000000001  0.4373199999999999  0.17775000000000002  1.0000
  C   C35       1.0  0.5341  0.9367  0.32135  1.0000
  C   C36       1.0  0.9664100000000002  0.06334  0.82135  1.0000
  C   C37       1.0  0.98289  0.50219  0.7800500000000002  1.0000
  C   C38       1.0  0.5171600000000001  0.49785  0.28003  1.0000
  C   C39       1.0  0.4958500000000001  0.9982799999999998  0.21981000000000006  1.0000
  C   C40       1.0  0.00435  0.0016799999999999996  0.71983  1.0000
  C   C41       1.0  0.90776  0.58718  0.79827  1.0000
  C   C42       1.0  0.5914  0.41271999999999986  0.29835  1.0000
  C   C43       1.0  0.5254700000000002  0.90942  0.19732000000000002  1.0000
  C   C44       1.0  0.9769000000000002  0.09069999999999999  0.69735  1.0000
  C   C45       1.0  0.8826600000000002  0.6572499999999998  0.75731  1.0000
  C   C46       1.0  0.6159700000000002  0.34255  0.25744  1.0000
  C   C47       1.0  0.55981  0.83718  0.23595000000000002  1.0000
  C   C48       1.0  0.9434700000000003  0.16304  0.73596  1.0000
  C   C49       1.0  0.9306000000000001  0.6454999999999999  0.69816  1.0000
  C   C50       1.0  0.5683300000000002  0.35433  0.19825  1.0000
  C   C51       1.0  0.5630800000000002  0.85031  0.29689  1.0000
  C   C52       1.0  0.9392500000000003  0.14986  0.7969000000000002  1.0000
  C   C53       1.0  0.0028999999999999985  0.43315  0.82378  1.0000
  C   C54       1.0  0.4974100000000001  0.56693  0.32373  1.0000
  C   C55       1.0  0.46472  0.06922999999999997  0.17812  1.0000
  C   C56       1.0  0.03427000000000001  0.93062  0.6781500000000001  1.0000
  C   C57       1.0  0.8731500000000002  0.53232  0.8990500000000001  1.0000
  C   C58       1.0  0.6259400000000003  0.4675799999999999  0.39913  1.0000
  C   C59       1.0  0.49297  0.9639399999999998  0.09623000000000001  1.0000
  C   C60       1.0  0.00984  0.03619999999999999  0.59627  1.0000
  C   C61       1.0  0.0544  0.5514  0.61717  1.0000
  C   C62       1.0  0.44588  0.4486299999999999  0.11714  1.0000
  C   C63       1.0  0.5361300000000002  0.9493799999999998  0.38384  1.0000
  C   C64       1.0  0.9635000000000002  0.05062  0.8838400000000001  1.0000
  H   H9        1.0  0.05546000000000001  0.36647  0.8132600000000001  1.0000
  H   H10       1.0  0.44529000000000013  0.63367  0.31317  1.0000
  H   H11       1.0  0.4443300000000001  0.13857  0.19156  1.0000
  H   H12       1.0  0.05276999999999999  0.86115  0.69156  1.0000
  H   H13       1.0  0.16917  0.45899  0.55226  1.0000
  H   H14       1.0  0.3325500000000001  0.5412499999999998  0.05208  1.0000
  H   H15       1.0  0.50866  0.04664  0.45475  1.0000
  H   H16       1.0  0.98821  0.95318  0.95474  1.0000
  H   H17       1.0  0.13736  0.35035  0.7253100000000002  1.0000
  H   H18       1.0  0.36539  0.6501499999999999  0.22505  1.0000
  H   H19       1.0  0.44483  0.15825  0.28304000000000007  1.0000
  H   H20       1.0  0.052080000000000015  0.8414699999999998  0.78306  1.0000
  H   H21       1.0  0.21183000000000005  0.33354999999999996  0.62208  1.0000
  H   H22       1.0  0.29131000000000007  0.6669499999999998  0.12177  1.0000
  H   H23       1.0  0.45696000000000003  0.17641999999999997  0.3888400000000001  1.0000
  H   H24       1.0  0.03841  0.8232599999999998  0.8888400000000001  1.0000
  H   H25       1.0  0.9085200000000002  0.7020299999999998  0.66838  1.0000
  H   H26       1.0  0.58993  0.29771  0.16852000000000003  1.0000
  H   H27       1.0  0.58997  0.79202  0.3248  1.0000
  H   H28       1.0  0.91312  0.20823  0.82479  1.0000
  H   H29       1.0  0.79792  0.66619  0.87148  1.0000
  H   H30       1.0  0.70023  0.33357  0.3716600000000001  1.0000
  H   H31       1.0  0.5451400000000002  0.82553  0.11878  1.0000
  H   H32       1.0  0.9603400000000002  0.17482  0.61883  1.0000
