data_image0
_chemical_formula_structural       C120Cr6H72O38
_chemical_formula_sum              "C120 Cr6 H72 O38"
_cell_length_a       12.69576
_cell_length_b       12.72913
_cell_length_c       26.954259999999998
_cell_angle_alpha    90.05821999999999
_cell_angle_beta     90.00322
_cell_angle_gamma    119.95723000000001

_space_group_name_H-M_alt    "P 1"
_space_group_IT_number       1

loop_
  _space_group_symop_operation_xyz
  'x, y, z'

loop_
  _atom_site_type_symbol
  _atom_site_label
  _atom_site_symmetry_multiplicity
  _atom_site_fract_x
  _atom_site_fract_y
  _atom_site_fract_z
  _atom_site_occupancy
  C   C1        1.0  0.5578200000000001  0.45548000000000005  0.8218599999999999  1.0000
  C   C2        1.0  0.45564  0.56231  0.17674  1.0000
  C   C3        1.0  0.046429999999999964  0.32815  0.47701  1.0000
  C   C4        1.0  0.28263  0.95596  0.02251  1.0000
  C   C5        1.0  0.6717  0.72629  0.48280999999999996  1.0000
  C   C6        1.0  0.29123000000000004  0.9695300000000001  0.52874  1.0000
  C   C7        1.0  0.08114  0.36593  0.97076  1.0000
  C   C8        1.0  0.6608800000000001  0.7217  0.53507  1.0000
  C   C9        1.0  0.28472  0.93651  0.97064  1.0000
  C   C10       1.0  0.039409999999999994  0.32763  0.52973  1.0000
  C   C11       1.0  0.65542  0.72038  0.96568  1.0000
  C   C12       1.0  0.08841000000000003  0.24897  0.04581  1.0000
  C   C13       1.0  0.44286  0.90157  0.32155  1.0000
  C   C14       1.0  0.16625000000000012  0.92934  0.44977  1.0000
  C   C15       1.0  0.77824  0.82959  0.04218  1.0000
  C   C16       1.0  0.09103  0.25157  0.45111  1.0000
  C   C17       1.0  0.16886000000000007  0.94629  0.04602  1.0000
  C   C18       1.0  0.7861700000000003  0.8250100000000001  0.45843  1.0000
  C   C19       1.0  0.1871500000000001  0.96613  0.55833  1.0000
  C   C20       1.0  0.17073  0.34027  0.9440399999999999  1.0000
  C   C21       1.0  0.73833  0.83584  0.56528  1.0000
  C   C22       1.0  0.16611  0.8673999999999998  0.94238  1.0000
  C   C23       1.0  0.04518999999999999  0.22812999999999997  0.55891  1.0000
  C   C24       1.0  0.09863  0.54131  0.17849  1.0000
  C   C25       1.0  0.72713  0.83487  0.9351  1.0000
  C   C26       1.0  0.9836300000000002  0.48927000000000004  0.97567  1.0000
  C   C27       1.0  0.50435  0.01941  0.52441  1.0000
  C   C28       1.0  0.52338  0.49985  0.9739899999999999  1.0000
  C   C29       1.0  0.9875300000000001  0.4893  0.5255  1.0000
  C   C30       1.0  0.50447  0.01712  0.97538  1.0000
  C   C31       1.0  0.51376  0.50393  0.52772  1.0000
  C   C32       1.0  0.49703  0.010050000000000002  0.47233  1.0000
  C   C33       1.0  0.8988800000000001  0.4425  0.67803  1.0000
  C   C34       1.0  0.9941600000000003  0.49122  0.02763  1.0000
  C   C35       1.0  0.5120500000000001  0.5151  0.47595  1.0000
  C   C36       1.0  0.49630000000000013  0.00828  0.02749  1.0000
  C   C37       1.0  0.99761  0.4916  0.47346  1.0000
  C   C38       1.0  0.51904  0.51228  0.0255  1.0000
  C   C39       1.0  0.89341  0.61862  0.98245  1.0000
  C   C40       1.0  0.7202400000000002  0.08572  0.51924  1.0000
  C   C41       1.0  0.4078700000000001  0.27995  0.98403  1.0000
  C   C42       1.0  0.9230400000000002  0.64042  0.52031  1.0000
  C   C43       1.0  0.7234400000000001  0.09772  0.98165  1.0000
  C   C44       1.0  0.5444400000000001  0.10242000000000001  0.8223199999999999  1.0000
  C   C45       1.0  0.37993000000000005  0.28596  0.51894  1.0000
  C   C46       1.0  0.7110600000000002  0.06875  0.46812999999999994  1.0000
  C   C47       1.0  0.91867  0.63282  0.03317  1.0000
  C   C48       1.0  0.3763200000000001  0.29778  0.46781999999999996  1.0000
  C   C49       1.0  0.71315  0.07928  0.03274  1.0000
  C   C50       1.0  0.9405500000000002  0.6475  0.4692  1.0000
  C   C51       1.0  0.39841  0.29354  0.03484  1.0000
  C   C52       1.0  0.9143600000000001  0.54573  0.90196  1.0000
  C   C53       1.0  0.62851  0.07565  0.5989300000000001  1.0000
  C   C54       1.0  0.46761000000000014  0.3687  0.90241  1.0000
  C   C55       1.0  0.55669  0.45637  0.6786  1.0000
  C   C56       1.0  0.92941  0.556  0.5998  1.0000
  C   C57       1.0  0.6303300000000002  0.08016  0.90145  1.0000
  C   C58       1.0  0.44923  0.374  0.59992  1.0000
  C   C59       1.0  0.5861700000000001  0.99598  0.39401  1.0000
  C   C60       1.0  0.0016700000000000113  0.58839  0.1065  1.0000
  C   C61       1.0  0.42285000000000006  0.42630999999999997  0.39558  1.0000
  C   C62       1.0  0.5867100000000001  0.00049  0.10635  1.0000
  C   C63       1.0  0.010590000000000004  0.59335  0.39502  1.0000
  C   C64       1.0  0.43084000000000017  0.4239200000000001  0.10586  1.0000
  C   C65       1.0  0.03366000000000001  0.51064  0.13014  1.0000
  C   C66       1.0  0.8971200000000003  0.4415700000000001  0.82243  1.0000
  C   C67       1.0  0.47825  0.9679799999999998  0.3697  1.0000
  C   C68       1.0  0.4801100000000001  0.54054  0.12557  1.0000
  C   C69       1.0  0.0362  0.51223  0.37052  1.0000
  C   C70       1.0  0.47673000000000004  0.96724  0.13007  1.0000
  C   C71       1.0  0.48077000000000003  0.54191  0.37477  1.0000
  C   C72       1.0  0.5261500000000001  0.04669  0.62794  1.0000
  C   C73       1.0  0.9503200000000003  0.47818000000000005  0.8725  1.0000
  C   C74       1.0  0.5165300000000002  0.47514999999999996  0.63016  1.0000
  C   C75       1.0  0.52752  0.04781  0.8721  1.0000
  C   C76       1.0  0.9560000000000002  0.48088  0.62869  1.0000
  C   C77       1.0  0.5438800000000001  0.10150000000000002  0.6778199999999999  1.0000
  C   C78       1.0  0.5219000000000001  0.47063000000000005  0.87155  1.0000
  C   C79       1.0  0.9311600000000002  0.55224  0.95317  1.0000
  C   C80       1.0  0.61752  0.05790000000000001  0.54774  1.0000
  C   C81       1.0  0.46543000000000007  0.38236  0.9533299999999999  1.0000
  C   C82       1.0  0.9490300000000003  0.56412  0.54877  1.0000
  C   C83       1.0  0.6195  0.06322  0.95263  1.0000
  C   C84       1.0  0.4454800000000001  0.38791  0.54905  1.0000
  C   C85       1.0  0.5992000000000001  0.02651  0.44453  1.0000
  C   C86       1.0  0.9700399999999999  0.57054  0.05606  1.0000
  C   C87       1.0  0.43752000000000013  0.41242  0.44615999999999995  1.0000
  C   C88       1.0  0.45565000000000005  0.56302  0.32348  1.0000
  C   C89       1.0  0.59977  0.030830000000000003  0.05581  1.0000
  C   C90       1.0  0.9813700000000001  0.57695  0.44564  1.0000
  C   C91       1.0  0.44955000000000017  0.40925000000000006  0.05568  1.0000
  C   C92       1.0  0.01447999999999996  0.42536999999999997  0.89415  1.0000
  C   C93       1.0  0.40978000000000003  0.9891500000000001  0.60559  1.0000
  C   C94       1.0  0.56779  0.58801  0.8912399999999999  1.0000
  C   C95       1.0  0.01423  0.42248  0.60667  1.0000
  C   C96       1.0  0.4105300000000002  0.9859400000000001  0.8936  1.0000
  C   C97       1.0  0.56944  0.59311  0.6102299999999999  1.0000
  C   C98       1.0  0.39176000000000016  0.9881000000000001  0.39525999999999994  1.0000
  C   C99       1.0  0.44265  0.90143  0.17839  1.0000
  C   C100      1.0  0.020350000000000004  0.40789000000000003  0.10356999999999998  1.0000
  C   C101      1.0  0.5626600000000002  0.64357  0.40418  1.0000
  C   C102      1.0  0.38752  0.98249  0.10402  1.0000
  C   C103      1.0  0.018580000000000003  0.40731  0.39651  1.0000
  C   C104      1.0  0.55619  0.64291  0.09567  1.0000
  C   C105      1.0  0.027570000000000015  0.4268  0.94647  1.0000
  C   C106      1.0  0.40011000000000013  0.9915000000000002  0.55314  1.0000
  C   C107      1.0  0.5811500000000002  0.60461  0.94322  1.0000
  C   C108      1.0  0.014609999999999993  0.41243  0.55421  1.0000
  C   C109      1.0  0.39833  0.9782500000000001  0.94619  1.0000
  C   C110      1.0  0.09938000000000004  0.54168  0.32176  1.0000
  C   C111      1.0  0.58041  0.60838  0.55806  1.0000
  C   C112      1.0  0.38971000000000017  0.9869800000000001  0.44774  1.0000
  C   C113      1.0  0.024540000000000003  0.41133  0.05135  1.0000
  C   C114      1.0  0.5837800000000001  0.62864  0.45399  1.0000
  C   C115      1.0  0.38724  0.98244  0.05155  1.0000
  C   C116      1.0  0.02177999999999999  0.40827  0.4489099999999999  1.0000
  C   C117      1.0  0.58221  0.62783  0.04671  1.0000
  C   C118      1.0  0.062000000000000034  0.3421  0.02234  1.0000
  C   C119      1.0  0.2855500000000001  0.9654200000000001  0.47590999999999994  1.0000
  C   C120      1.0  0.6663100000000001  0.72708  0.01786  1.0000
  Cr  Cr1       1.0  0.4876300000000001  0.24117999999999998  0.75  1.0000
  Cr  Cr2       1.0  0.75355  0.51237  0.75  1.0000
  Cr  Cr3       1.0  0.75882  0.24645  0.75  1.0000
  Cr  Cr4       1.0  0.24118  0.48763  0.25  1.0000
  Cr  Cr5       1.0  0.51237  0.75355  0.25  1.0000
  Cr  Cr6       1.0  0.24645  0.75882  0.25  1.0000
  H   H1        1.0  0.00119999999999996  0.6614  0.12704  1.0000
  H   H2        1.0  0.72018  0.12543  0.88489  1.0000
  H   H3        1.0  0.8879100000000002  0.604  0.61658  1.0000
  H   H4        1.0  0.4316700000000001  0.27836  0.8870399999999999  1.0000
  H   H5        1.0  0.89689  0.69106  0.05468  1.0000
  H   H6        1.0  0.79162  0.08956  0.44697  1.0000
  H   H7        1.0  0.3499900000000001  0.21421  0.05783  1.0000
  H   H8        1.0  0.9221900000000001  0.70792  0.4477  1.0000
  H   H9        1.0  0.7939100000000001  0.10339000000000001  0.05436  1.0000
  H   H10       1.0  0.32281  0.21782000000000004  0.44539  1.0000
  H   H11       1.0  0.8072100000000002  0.11804000000000002  0.53676  1.0000
  H   H12       1.0  0.6585500000000002  0.99267  0.37405  1.0000
  H   H13       1.0  0.8517000000000001  0.66607  0.96555  1.0000
  H   H14       1.0  0.3297000000000001  0.19746000000000002  0.53523  1.0000
  H   H15       1.0  0.81247  0.1362  0.96465  1.0000
  H   H16       1.0  0.89089  0.69598  0.5377  1.0000
  H   H17       1.0  0.36534000000000005  0.18966  0.96835  1.0000
  H   H18       1.0  0.9512200000000001  0.29336  0.1572  1.0000
  H   H19       1.0  0.3555100000000001  0.05938  0.3391700000000001  1.0000
  H   H20       1.0  0.6603700000000002  0.78876  0.13108  1.0000
  H   H21       1.0  0.9446800000000002  0.29666  0.34151999999999993  1.0000
  H   H22       1.0  0.34150000000000014  0.04929000000000001  0.15833  1.0000
  H   H23       1.0  0.37532000000000004  0.34571  0.12895  1.0000
  H   H24       1.0  0.6756800000000001  0.78074  0.3664  1.0000
  H   H25       1.0  0.3282900000000001  0.90754  0.66673  1.0000
  H   H26       1.0  0.08429000000000003  0.40709  0.83333  1.0000
  H   H27       1.0  0.56909  0.66702  0.67339  1.0000
  H   H28       1.0  0.32681000000000004  0.91188  0.83221  1.0000
  H   H29       1.0  0.09329000000000004  0.4205400000000001  0.66832  1.0000
  H   H30       1.0  0.55669  0.65703  0.82834  1.0000
  H   H31       1.0  0.16460000000000005  0.29384  0.07263  1.0000
  H   H32       1.0  0.00603  0.17753  0.06452  1.0000
  H   H33       1.0  0.11127  0.19806  0.01866  1.0000
  H   H34       1.0  0.014049999999999988  0.66878  0.37497  1.0000
  H   H35       1.0  0.1481500000000001  0.86  0.421  1.0000
  H   H36       1.0  0.08671999999999999  0.88673  0.4745  1.0000
  H   H37       1.0  0.16867000000000001  0.00988  0.43284  1.0000
  H   H38       1.0  0.7995400000000003  0.80044  0.0777  1.0000
  H   H39       1.0  0.86019  0.85804  0.01886  1.0000
  H   H40       1.0  0.76499  0.9075  0.04907  1.0000
  H   H41       1.0  0.15716  0.30476  0.42155  1.0000
  H   H42       1.0  0.14141  0.22352000000000002  0.47603  1.0000
  H   H43       1.0  0.013199999999999996  0.16865  0.43524  1.0000
  H   H44       1.0  0.12269000000000001  0.86384  0.06944  1.0000
  H   H45       1.0  0.6606400000000002  0.00127  0.12678  1.0000
  H   H46       1.0  0.19135  0.027700000000000002  0.06834  1.0000
  H   H47       1.0  0.10327  0.94619  0.01897  1.0000
  H   H48       1.0  0.8067300000000002  0.7922500000000001  0.42369  1.0000
  H   H49       1.0  0.77654  0.90446  0.45013  1.0000
  H   H50       1.0  0.8672100000000001  0.8527000000000001  0.48222  1.0000
  H   H51       1.0  0.22089000000000006  0.027  0.59105  1.0000
  H   H52       1.0  0.13849  0.0038800000000000006  0.53736  1.0000
  H   H53       1.0  0.12215000000000008  0.87186  0.57002  1.0000
  H   H54       1.0  0.12327000000000003  0.24955  0.92619  1.0000
  H   H55       1.0  0.22499  0.41222  0.9166  1.0000
  H   H56       1.0  0.3627700000000001  0.34851  0.3730299999999999  1.0000
  H   H57       1.0  0.23993  0.3454  0.9701899999999999  1.0000
  H   H58       1.0  0.67885  0.86025  0.58658  1.0000
  H   H59       1.0  0.7995900000000004  0.8219300000000002  0.59042  1.0000
  H   H60       1.0  0.79608  0.9170699999999999  0.54273  1.0000
  H   H61       1.0  0.16666000000000009  0.79531  0.91935  1.0000
  H   H62       1.0  0.08779999999999999  0.81663  0.96683  1.0000
  H   H63       1.0  0.14943999999999996  0.93022  0.91956  1.0000
  H   H64       1.0  0.97997  0.19592000000000004  0.59027  1.0000
  H   H65       1.0  0.014989999999999995  0.14439  0.53679  1.0000
  H   H66       1.0  0.13907  0.26124  0.57264  1.0000
  H   H67       1.0  0.7179800000000001  0.11708000000000002  0.61581  1.0000
  H   H68       1.0  0.66377  0.8547  0.91423  1.0000
  H   H69       1.0  0.7828100000000002  0.9173  0.9574399999999998  1.0000
  H   H70       1.0  0.78979  0.82429  0.9095199999999999  1.0000
  H   H71       1.0  0.8663500000000001  0.58754  0.88548  1.0000
  H   H72       1.0  0.4061800000000001  0.28334  0.61547  1.0000
  O   O1        1.0  0.46087  0.12093000000000001  0.80524  1.0000
  O   O2        1.0  0.12093000000000004  0.46087  0.19476  1.0000
  O   O3        1.0  0.53913  0.66006  0.30524  1.0000
  O   O4        1.0  0.3399400000000001  0.87907  0.19476  1.0000
  O   O5        1.0  0.49890999999999996  0.35047  0.80187  1.0000
  O   O6        1.0  0.8515600000000001  0.50109  0.69813  1.0000
  O   O7        1.0  0.64953  0.14844  0.80187  1.0000
  O   O8        1.0  0.49890999999999996  0.35047  0.69813  1.0000
  O   O9        1.0  0.8515600000000001  0.50109  0.80187  1.0000
  O   O10       1.0  0.64953  0.14844  0.69813  1.0000
  O   O11       1.0  0.35047000000000006  0.49891  0.30187  1.0000
  O   O12       1.0  0.6600600000000002  0.53913  0.69476  1.0000
  O   O13       1.0  0.5010900000000003  0.85156  0.19813  1.0000
  O   O14       1.0  0.14844000000000004  0.64953  0.30187  1.0000
  O   O15       1.0  0.35047000000000006  0.49891  0.19813  1.0000
  O   O16       1.0  0.5010900000000003  0.85156  0.30187  1.0000
  O   O17       1.0  0.14844000000000004  0.64953  0.19813  1.0000
  O   O18       1.0  0.66667  0.33333  0.75  1.0000
  O   O19       1.0  0.3333300000000001  0.66667  0.25  1.0000
  O   O20       1.0  0.003870000000000002  0.30573  0.12804  1.0000
  O   O21       1.0  0.31346  0.014190000000000001  0.36963  1.0000
  O   O22       1.0  0.58564  0.7578  0.11074  1.0000
  O   O23       1.0  0.8790700000000001  0.33994  0.80524  1.0000
  O   O24       1.0  0.9925700000000002  0.30233  0.37151  1.0000
  O   O25       1.0  0.30067000000000005  0.9953900000000001  0.12954  1.0000
  O   O26       1.0  0.60402  0.75994  0.38755  1.0000
  O   O27       1.0  0.3061  0.9271  0.63415  1.0000
  O   O28       1.0  0.05396999999999999  0.3626  0.86505  1.0000
  O   O29       1.0  0.61343  0.69237  0.6414  1.0000
  O   O30       1.0  0.30927000000000004  0.94133  0.8635  1.0000
  O   O31       1.0  0.07403000000000003  0.37911  0.63566  1.0000
  O   O32       1.0  0.60191  0.68581  0.86004  1.0000
  O   O33       1.0  0.46087  0.12093000000000001  0.69476  1.0000
  O   O34       1.0  0.6600600000000002  0.53913  0.80524  1.0000
  O   O35       1.0  0.8790700000000001  0.33994  0.69476  1.0000
  O   O36       1.0  0.12093000000000004  0.46087  0.30524  1.0000
  O   O37       1.0  0.53913  0.66006  0.19476  1.0000
  O   O38       1.0  0.3399400000000001  0.87907  0.30524  1.0000
