data_image0
_chemical_formula_structural       O8C4O8C4O4V4C4H4C44H24
_chemical_formula_sum              "O20 C56 V4 H28"
_cell_length_a       21.63756
_cell_length_b       7.182499999999999
_cell_length_c       14.90763
_cell_angle_alpha    90.45199000000001
_cell_angle_beta     106.41926
_cell_angle_gamma    90.13062

_symmetry_space_group_name_H-M    'P 1'
_symmetry_Int_Tables_number       1

loop_
  _symmetry_equiv_pos_as_xyz
  'x,y,z'

loop_
  _atom_site_type_symbol
  _atom_site_label
  _atom_site_symmetry_multiplicity
  _atom_site_fract_x
  _atom_site_fract_y
  _atom_site_fract_z
  _atom_site_occupancy
  O   O1        1.0  0.33586000000000005  0.63819  0.00211  1.0000
  O   O2        1.0  0.66414  0.36181  0.9978899999999998  1.0000
  O   O3        1.0  0.16414000000000004  0.13819  0.9978899999999998  1.0000
  O   O4        1.0  0.8358600000000002  0.8618100000000001  0.00211  1.0000
  O   O5        1.0  0.21752999999999997  0.3059200000000001  0.8619599999999997  1.0000
  O   O6        1.0  0.78247  0.6940800000000003  0.13804  1.0000
  O   O7        1.0  0.28247  0.80592  0.13804  1.0000
  O   O8        1.0  0.71753  0.19408  0.8619599999999997  1.0000
  C   C1        1.0  0.20574  0.47581  0.82585  1.0000
  C   C2        1.0  0.7942700000000001  0.52419  0.17415  1.0000
  C   C3        1.0  0.29418000000000005  0.97767  0.17401999999999995  1.0000
  C   C4        1.0  0.7058200000000001  0.02234  0.8259799999999998  1.0000
  O   O9        1.0  0.33869  0.30832  0.99324  1.0000
  O   O10       1.0  0.66131  0.69168  0.006759999999999999  1.0000
  O   O11       1.0  0.16131  0.8083200000000001  0.006759999999999999  1.0000
  O   O12       1.0  0.83869  0.19168000000000004  0.99324  1.0000
  O   O13       1.0  0.28617000000000004  0.14043  0.1301  1.0000
  O   O14       1.0  0.7138300000000001  0.8595700000000002  0.8698999999999998  1.0000
  O   O15       1.0  0.21382999999999996  0.64043  0.8698999999999998  1.0000
  O   O16       1.0  0.7861700000000001  0.35957  0.1301  1.0000
  C   C5        1.0  0.3649800000000001  0.47735  0.9978199999999999  1.0000
  C   C6        1.0  0.63502  0.52265  0.0021799999999999996  1.0000
  C   C7        1.0  0.13502  0.97711  0.00219  1.0000
  C   C8        1.0  0.86498  0.02289  0.99781  1.0000
  O   O17       1.0  0.23263000000000003  0.47241  0.04475  1.0000
  O   O18       1.0  0.7673700000000001  0.52759  0.9552499999999998  1.0000
  O   O19       1.0  0.26736999999999994  0.97241  0.9552499999999998  1.0000
  O   O20       1.0  0.73263  0.027590000000000007  0.04475  1.0000
  V   V1        1.0  0.25321999999999995  0.19662  0.9916999999999998  1.0000
  V   V2        1.0  0.7467800000000001  0.80338  0.008299999999999998  1.0000
  V   V3        1.0  0.24678000000000003  0.6966200000000001  0.008299999999999998  1.0000
  V   V4        1.0  0.75322  0.30338  0.9916999999999998  1.0000
  C   C9        1.0  0.02974  0.8263600000000002  0.00358  1.0000
  C   C10       1.0  0.97026  0.17364000000000002  0.9964199999999998  1.0000
  C   C11       1.0  0.46968  0.32649000000000006  0.9949  1.0000
  C   C12       1.0  0.53033  0.67351  0.005099999999999999  1.0000
  H   H1        1.0  0.05142  0.6900300000000001  0.00615  1.0000
  H   H2        1.0  0.9485900000000003  0.30997  0.99385  1.0000
  H   H3        1.0  0.44752  0.19020000000000006  0.9910699999999998  1.0000
  H   H4        1.0  0.55248  0.8098000000000001  0.008929999999999997  1.0000
  C   C13       1.0  0.9647900000000001  0.83787  0.0019799999999999996  1.0000
  C   C14       1.0  0.035210000000000005  0.16213000000000005  0.99802  1.0000
  C   C15       1.0  0.53463  0.33772000000000013  0.9964599999999998  1.0000
  C   C16       1.0  0.46537  0.6622800000000002  0.0035399999999999993  1.0000
  C   C17       1.0  0.93402  0.011709999999999998  0.9983499999999997  1.0000
  C   C18       1.0  0.06598  0.9882900000000002  0.0016499999999999996  1.0000
  C   C19       1.0  0.56598  0.51141  0.00162  1.0000
  C   C20       1.0  0.4340200000000001  0.48858  0.9983799999999998  1.0000
  C   C21       1.0  0.67777  0.010189999999999998  0.7248699999999998  1.0000
  C   C22       1.0  0.32222999999999996  0.98981  0.2751299999999999  1.0000
  C   C23       1.0  0.8221300000000002  0.52117  0.27555  1.0000
  C   C24       1.0  0.17788  0.47882  0.7244499999999998  1.0000
  C   C25       1.0  0.6889700000000001  0.95026  0.5709199999999998  1.0000
  C   C26       1.0  0.31103  0.049750000000000016  0.42908  1.0000
  C   C27       1.0  0.8126500000000001  0.5848300000000002  0.4302  1.0000
  C   C28       1.0  0.18735  0.41507  0.56981  1.0000
  C   C29       1.0  0.7166499999999999  0.97191  0.66674  1.0000
  C   C30       1.0  0.28335  0.028089999999999997  0.3332599999999999  1.0000
  C   C31       1.0  0.7845300000000001  0.56939  0.33423  1.0000
  C   C32       1.0  0.21547000000000002  0.43053  0.66578  1.0000
  C   C33       1.0  0.6110900000000001  0.02652  0.68748  1.0000
  C   C34       1.0  0.38891  0.9734900000000002  0.31252  1.0000
  C   C35       1.0  0.8881200000000002  0.48906  0.3127799999999999  1.0000
  C   C36       1.0  0.11189000000000003  0.51098  0.68722  1.0000
  C   C37       1.0  0.58142  0.00281  0.59043  1.0000
  C   C38       1.0  0.41858  0.9971799999999998  0.4095699999999999  1.0000
  C   C39       1.0  0.9184700000000002  0.50904  0.40994  1.0000
  C   C40       1.0  0.08153  0.49095  0.59006  1.0000
  C   C41       1.0  0.62196  0.96432  0.53248  1.0000
  C   C42       1.0  0.3780400000000001  0.03568  0.4675199999999999  1.0000
  C   C43       1.0  0.8791  0.5571000000000002  0.4683099999999999  1.0000
  C   C44       1.0  0.12090000000000002  0.4428300000000001  0.53169  1.0000
  C   C45       1.0  0.51319  0.01393  0.54934  1.0000
  C   C46       1.0  0.4868000000000001  0.98606  0.4506699999999999  1.0000
  C   C47       1.0  0.98639  0.48683  0.4506599999999999  1.0000
  C   C48       1.0  0.013609999999999994  0.51314  0.54934  1.0000
  C   C49       1.0  0.5295000000000001  0.9484700000000003  0.3964299999999999  1.0000
  C   C50       1.0  0.4704999999999999  0.051519999999999996  0.6035699999999998  1.0000
  C   C51       1.0  0.97198  0.55971  0.6039899999999998  1.0000
  C   C52       1.0  0.02801999999999999  0.44023  0.3960099999999999  1.0000
  C   C53       1.0  0.59552  0.9382900000000002  0.4366799999999999  1.0000
  C   C54       1.0  0.40448  0.06171  0.56332  1.0000
  C   C55       1.0  0.9062600000000001  0.5805500000000001  0.56413  1.0000
  C   C56       1.0  0.09372999999999995  0.41936  0.43586999999999987  1.0000
  H   H5        1.0  0.62625  0.90865  0.39215  1.0000
  H   H6        1.0  0.37375  0.09135000000000001  0.60784  1.0000
  H   H7        1.0  0.87639  0.6173200000000001  0.6089599999999997  1.0000
  H   H8        1.0  0.12361  0.38256000000000007  0.3910499999999999  1.0000
  H   H9        1.0  0.41589  0.94565  0.26331999999999994  1.0000
  H   H10       1.0  0.5841100000000001  0.05435  0.73668  1.0000
  H   H11       1.0  0.08568  0.54466  0.73673  1.0000
  H   H12       1.0  0.91433  0.45545  0.26326  1.0000
  H   H13       1.0  0.23171  0.04243  0.30433  1.0000
  H   H14       1.0  0.76829  0.9575800000000002  0.6956699999999998  1.0000
  H   H15       1.0  0.26643  0.40288  0.69448  1.0000
  H   H16       1.0  0.73356  0.597  0.3055199999999999  1.0000
  H   H17       1.0  0.71994  0.9203700000000002  0.52682  1.0000
  H   H18       1.0  0.28006  0.07964000000000003  0.4731799999999999  1.0000
  H   H19       1.0  0.7826  0.6225  0.4746  1.0000
  H   H20       1.0  0.21739999999999998  0.3773499999999999  0.5254099999999998  1.0000
  H   H21       1.0  0.51371  0.92544  0.32203  1.0000
  H   H22       1.0  0.4862900000000001  0.07456  0.67797  1.0000
  H   H23       1.0  0.98845  0.58219  0.67839  1.0000
  H   H24       1.0  0.011550000000000003  0.41772  0.32161  1.0000
  H   H25       1.0  0.93878  0.70958  0.00366  1.0000
  H   H26       1.0  0.06121999999999997  0.29042  0.99634  1.0000
  H   H27       1.0  0.56018  0.20940000000000006  0.9934999999999998  1.0000
  H   H28       1.0  0.43982  0.7906  0.006499999999999998  1.0000
