data_image0
_chemical_formula_structural       O2CO2CO2CO2CO2CO2CCr3OCH2CH3C6H3C4H4C4H4C4H4C4H4C4H4O2CO2CO2CO2CO2CO2CCr3ONO2SO3HNO2SO3H
_chemical_formula_sum              "O36 C40 Cr6 H30 N2 S2"
_cell_length_a       11.02942
_cell_length_b       10.96186
_cell_length_c       18.6664
_cell_angle_alpha    90.02229000000001
_cell_angle_beta     89.55954
_cell_angle_gamma    59.87359

_symmetry_space_group_name_H-M    'P 1'
_symmetry_Int_Tables_number       1

loop_
  _symmetry_equiv_pos_as_xyz
  'x,y,z'

loop_
  _atom_site_type_symbol
  _atom_site_label
  _atom_site_symmetry_multiplicity
  _atom_site_fract_x
  _atom_site_fract_y
  _atom_site_fract_z
  _atom_site_occupancy
  O   O1        1.0  0.50711  0.25628  0.5803  1.0000
  O   O2        1.0  0.28082999999999997  0.5271900000000002  0.57794  1.0000
  C   C1        1.0  0.22738999999999995  0.64962  0.60566  1.0000
  O   O3        1.0  0.26135999999999987  0.73899  0.58427  1.0000
  O   O4        1.0  0.5325899999999999  0.69478  0.5743699999999999  1.0000
  C   C2        1.0  0.65377  0.62448  0.60078  1.0000
  O   O5        1.0  0.74447  0.5037500000000001  0.577  1.0000
  O   O6        1.0  0.6985199999999997  0.27723  0.5716199999999999  1.0000
  C   C3        1.0  0.6324099999999997  0.21895  0.59832  1.0000
  O   O7        1.0  0.4985299999999999  0.25692  0.41928  1.0000
  O   O8        1.0  0.27288  0.52778  0.42868  1.0000
  C   C4        1.0  0.21591  0.65223  0.40413  1.0000
  O   O9        1.0  0.25278  0.73963  0.42325  1.0000
  O   O10       1.0  0.5246399999999999  0.69537  0.4250999999999999  1.0000
  C   C5        1.0  0.64139  0.62165  0.39269  1.0000
  O   O11       1.0  0.7358899999999999  0.50439  0.41598  1.0000
  O   O12       1.0  0.6905599999999998  0.27782  0.42234999999999995  1.0000
  C   C6        1.0  0.62091  0.22351000000000001  0.39735  1.0000
  Cr  Cr1       1.0  0.3930099999999999  0.39805  0.5014799999999999  1.0000
  Cr  Cr2       1.0  0.39881999999999995  0.70798  0.50163  1.0000
  Cr  Cr3       1.0  0.7081399999999999  0.39394  0.49685  1.0000
  O   O13       1.0  0.49999  0.49999  0.49998  1.0000
  C   C7        1.0  0.5768999999999999  0.7999200000000002  0.78701  1.0000
  H   H1        1.0  0.5562299999999998  0.90694  0.80258  1.0000
  H   H2        1.0  0.4997399999999999  0.7836100000000001  0.81705  1.0000
  C   C8        1.0  0.5553199999999999  0.80297  0.70592  1.0000
  H   H3        1.0  0.5779899999999999  0.8848800000000001  0.6849899999999999  1.0000
  H   H4        1.0  0.8077699999999993  0.8125  0.75801  1.0000
  H   H5        1.0  0.8004300000000001  0.75064  0.64157  1.0000
  C   C9        1.0  0.8298299999999997  0.70217  0.75579  1.0000
  C   C10       1.0  0.7558899999999998  0.5262100000000001  0.7986299999999998  1.0000
  C   C11       1.0  0.7308599999999998  0.6831700000000002  0.80801  1.0000
  C   C12       1.0  0.6732299999999998  0.65614  0.67518  1.0000
  C   C13       1.0  0.8086299999999998  0.6665900000000001  0.67814  1.0000
  C   C14       1.0  0.6967800000000001  0.52523  0.72312  1.0000
  H   H6        1.0  0.7761999999999999  0.42785000000000006  0.69534  1.0000
  H   H7        1.0  0.9385699999999999  0.6360500000000001  0.77205  1.0000
  H   H8        1.0  0.90026  0.56873  0.65797  1.0000
  C   C15       1.0  0.69169  0.12030000000000003  0.65877  1.0000
  C   C16       1.0  0.7207599999999998  0.07901  0.8143399999999998  1.0000
  C   C17       1.0  0.8300499999999997  0.048940000000000004  0.7707699999999998  1.0000
  C   C18       1.0  0.80654  0.09795000000000001  0.69488  1.0000
  H   H9        1.0  0.9352299999999998  6.99999999999999e-05  0.79231  1.0000
  H   H10       1.0  0.87538  0.13226  0.67226  1.0000
  H   H11       1.0  0.61567  0.12960000000000002  0.7926799999999998  1.0000
  H   H12       1.0  0.6277599999999999  0.07845  0.6793999999999999  1.0000
  C   C19       1.0  0.16385999999999998  0.66917  0.67641  1.0000
  C   C20       1.0  0.1640699999999999  0.6820200000000001  0.83306  1.0000
  C   C21       1.0  0.18378  0.56801  0.79709  1.0000
  C   C22       1.0  0.20613999999999996  0.55616  0.71931  1.0000
  H   H13       1.0  0.18277999999999997  0.48151  0.8248899999999999  1.0000
  H   H14       1.0  0.26721  0.44972  0.69799  1.0000
  H   H15       1.0  0.17214  0.76565  0.8065199999999999  1.0000
  H   H16       1.0  0.10075999999999985  0.7760900000000002  0.69657  1.0000
  C   C23       1.0  0.6496699999999999  0.64683  0.31711  1.0000
  C   C24       1.0  0.63389  0.66465  0.15944  1.0000
  C   C25       1.0  0.70807  0.54499  0.19556  1.0000
  C   C26       1.0  0.6890299999999998  0.53672  0.27218  1.0000
  H   H17       1.0  0.7952399999999998  0.45306  0.17036  1.0000
  H   H18       1.0  0.72106  0.43219  0.29290999999999995  1.0000
  H   H19       1.0  0.5416699999999999  0.7537000000000003  0.18327  1.0000
  H   H20       1.0  0.6163799999999999  0.7527300000000001  0.29839  1.0000
  C   C27       1.0  0.6737099999999998  0.13908  0.33327  1.0000
  C   C28       1.0  0.65144  0.14665  0.17892  1.0000
  C   C29       1.0  0.6084199999999998  0.07704  0.22192999999999996  1.0000
  C   C30       1.0  0.5926  0.10135  0.29839  1.0000
  H   H21       1.0  0.57748  0.004600000000000001  0.20029  1.0000
  H   H22       1.0  0.50282  0.10333  0.32402  1.0000
  H   H23       1.0  0.6835499999999999  0.21902000000000002  0.19909  1.0000
  H   H24       1.0  0.76838  0.12822  0.30874  1.0000
  C   C31       1.0  0.11672999999999997  0.68824  0.34624  1.0000
  C   C32       1.0  0.046040000000000025  0.72405  0.19514999999999996  1.0000
  C   C33       1.0  0.009180000000000028  0.83303  0.23995  1.0000
  C   C34       1.0  0.06279999999999997  0.81274  0.31309  1.0000
  H   H25       1.0  0.95646  0.94002  0.21929  1.0000
  H   H26       1.0  0.07399000000000003  0.89775  0.33587999999999996  1.0000
  H   H27       1.0  0.10147999999999995  0.61528  0.21267999999999998  1.0000
  H   H28       1.0  0.09822999999999987  0.6056500000000002  0.32703  1.0000
  O   O14       1.0  0.08919  0.82587  0.9323199999999999  1.0000
  O   O15       1.0  0.81907  0.05396  0.93144  1.0000
  C   C35       1.0  0.7296199999999999  0.041080000000000005  0.89012  1.0000
  O   O16       1.0  0.60707  0.07644000000000001  0.9164599999999999  1.0000
  O   O17       1.0  0.6471099999999999  0.8065500000000001  0.9176899999999999  1.0000
  C   C36       1.0  0.7567499999999998  0.70953  0.8826899999999999  1.0000
  O   O18       1.0  0.8370799999999999  0.59386  0.9153  1.0000
  O   O19       1.0  0.06476999999999988  0.6360800000000002  0.9325499999999999  1.0000
  C   C37       1.0  0.11302000000000001  0.70991  0.90584  1.0000
  O   O20       1.0  0.06825  0.8292  0.09293999999999997  1.0000
  O   O21       1.0  0.7996499999999997  0.05704  0.08032999999999998  1.0000
  C   C38       1.0  0.67556  0.10494000000000003  0.10496  1.0000
  O   O22       1.0  0.58613  0.07976  0.07708  1.0000
  O   O23       1.0  0.6276999999999999  0.80963  0.06658  1.0000
  C   C39       1.0  0.6924  0.68828  0.09459999999999999  1.0000
  O   O24       1.0  0.8161399999999996  0.5971800000000002  0.07592  1.0000
  O   O25       1.0  0.04536000000000004  0.63917  0.08143999999999998  1.0000
  C   C40       1.0  0.023729999999999953  0.74867  0.11914999999999999  1.0000
  Cr  Cr4       1.0  0.9379499999999997  0.93845  0.008939999999999998  1.0000
  Cr  Cr5       1.0  0.6261799999999998  0.9370300000000001  0.9947499999999999  1.0000
  Cr  Cr6       1.0  0.9377899999999999  0.62576  0.00141  1.0000
  O   O26       1.0  0.83398  0.83375  0.0017000000000000001  1.0000
  N   N1        1.0  0.40802  0.85484  0.68558  1.0000
  O   O27       1.0  0.3609  0.93559  0.62948  1.0000
  O   O28       1.0  0.31506  0.8691300000000001  0.73325  1.0000
  S   S1        1.0  0.94318  0.37949  0.7987199999999999  1.0000
  O   O29       1.0  0.013079999999999998  0.35992  0.8699  1.0000
  O   O30       1.0  0.9442399999999999  0.24445  0.78323  1.0000
  O   O31       1.0  0.04674000000000001  0.39275  0.73645  1.0000
  H   H29       1.0  0.05780999999999996  0.3261700000000001  0.6976  1.0000
  N   N2        1.0  0.6837999999999999  0.4924200000000001  0.8570299999999998  1.0000
  O   O32       1.0  0.7223299999999999  0.36192  0.87181  1.0000
  O   O33       1.0  0.59191  0.5888400000000001  0.8998899999999999  1.0000
  S   S2        1.0  0.54861  0.50021  0.7263499999999999  1.0000
  O   O34       1.0  0.49302  0.51048  0.65297  1.0000
  O   O35       1.0  0.59011  0.3572600000000001  0.7544799999999999  1.0000
  O   O36       1.0  0.42530999999999985  0.61861  0.78046  1.0000
  H   H30       1.0  0.42883  0.56472  0.82362  1.0000
