data_image0
_chemical_formula_structural       O3CO2CO2VOCOCVOCH3C13H5C2HC2H2C2H2C2H2CH2C13H5O3CO2CO2VOCOCVOFNHCH3
_chemical_formula_sum              "O20 C45 V4 H26 F1 N1"
_cell_length_a       6.94271
_cell_length_b       13.64545
_cell_length_c       20.41299
_cell_angle_alpha    102.08559
_cell_angle_beta     90.03453
_cell_angle_gamma    90.35497

_space_group_name_H-M_alt    "P 1"
_space_group_IT_number       1

loop_
  _space_group_symop_operation_xyz
  'x, y, z'

loop_
  _atom_site_type_symbol
  _atom_site_label
  _atom_site_symmetry_multiplicity
  _atom_site_fract_x
  _atom_site_fract_y
  _atom_site_fract_z
  _atom_site_occupancy
  O   O1        1.0  0.50686  0.5993900000000002  0.4492399999999999  1.0000
  O   O2        1.0  0.18022  0.5946  0.58678  1.0000
  O   O3        1.0  0.0045  0.40061  0.55076  1.0000
  C   C1        1.0  0.34894999999999987  0.6160600000000003  0.61348  1.0000
  O   O4        1.0  0.17748999999999995  0.61129  0.45197000000000004  1.0000
  O   O5        1.0  0.0017499999999999996  0.41742  0.41499  1.0000
  C   C2        1.0  0.34631  0.63822  0.43537  1.0000
  O   O6        1.0  0.50961  0.58258  0.58501  1.0000
  O   O7        1.0  0.3374199999999999  0.4363700000000001  0.48802  1.0000
  V   V1        1.0  0.06468  0.5118  0.50222  1.0000
  O   O8        1.0  0.67171  0.4054000000000001  0.41322  1.0000
  C   C3        1.0  0.84075  0.38382  0.38647  1.0000
  O   O9        1.0  0.6744399999999999  0.38871  0.54803  1.0000
  C   C4        1.0  0.84307  0.3620700000000001  0.56475  1.0000
  V   V2        1.0  0.56401  0.4882000000000001  0.49778000000000006  1.0000
  O   O10       1.0  0.84114  0.56363  0.51198  1.0000
  C   C5        1.0  0.87183  0.11152000000000002  0.61242  1.0000
  H   H1        1.0  0.8651599999999998  0.16173000000000007  0.51962  1.0000
  H   H2        1.0  0.8878499999999998  0.9864  0.69553  1.0000
  H   H3        1.0  0.88087  0.03339000000000001  0.58734  1.0000
  C   C6        1.0  0.85136  0.28525000000000006  0.60486  1.0000
  C   C7        1.0  0.84998  0.3149799999999999  0.9286699999999999  1.0000
  C   C8        1.0  0.84114  0.39097  0.89295  1.0000
  C   C9        1.0  0.84345  0.36839999999999995  0.8231499999999999  1.0000
  C   C10       1.0  0.85492  0.2679100000000001  0.78692  1.0000
  C   C11       1.0  0.86416  0.1902800000000001  0.82398  1.0000
  C   C12       1.0  0.85746  0.24188000000000007  0.71533  1.0000
  C   C13       1.0  0.86928  0.13920000000000005  0.68266  1.0000
  C   C14       1.0  0.87857  0.06474999999999999  0.72015  1.0000
  C   C15       1.0  0.87606  0.08967000000000006  0.78962  1.0000
  C   C16       1.0  0.84871  0.31404  0.67475  1.0000
  C   C17       1.0  0.8628599999999997  0.18420000000000006  0.57376  1.0000
  C   C18       1.0  0.86137  0.21498000000000006  0.89495  1.0000
  H   H4        1.0  0.83984  0.39323000000000013  0.69556  1.0000
  H   H5        1.0  0.8477899999999998  0.3341799999999999  0.9829399999999999  1.0000
  H   H6        1.0  0.8360299999999999  0.43153000000000014  0.79929  1.0000
  H   H7        1.0  0.83228  0.46826  0.9196  1.0000
  H   H8        1.0  0.8836199999999997  0.028970000000000034  0.81622  1.0000
  C   C19       1.0  0.012179999999999996  0.28353  0.28543  1.0000
  C   C20       1.0  0.8475  0.31451000000000007  0.31968  1.0000
  H   H9        1.0  0.7088999999999998  0.28708  0.29911  1.0000
  C   C21       1.0  0.013439999999999999  0.21247  0.21873  1.0000
  C   C22       1.0  0.85796  0.18335  0.18  1.0000
  H   H10       1.0  0.15380999999999995  0.18519  0.1999  1.0000
  H   H11       1.0  0.7152699999999997  0.2092  0.19634  1.0000
  C   C23       1.0  0.20469  0.79094  0.78238  1.0000
  C   C24       1.0  0.36391  0.81578  0.8199  1.0000
  H   H12       1.0  0.06686  0.8212000000000003  0.8017899999999999  1.0000
  H   H13       1.0  0.5026  0.78592  0.80178  1.0000
  C   C25       1.0  0.20282  0.7225100000000002  0.71488  1.0000
  C   C26       1.0  0.36089  0.6842700000000003  0.6802  1.0000
  H   H14       1.0  0.061479999999999986  0.7037500000000001  0.69281  1.0000
  H   H15       1.0  0.50406  0.7026300000000001  0.70025  1.0000
  C   C27       1.0  0.32634999999999986  0.8895800000000001  0.38821  1.0000
  H   H16       1.0  0.31803  0.8381400000000004  0.48061  1.0000
  H   H17       1.0  0.31733  0.014810000000000004  0.30388  1.0000
  C   C28       1.0  0.35358  0.71585  0.39571  1.0000
  C   C29       1.0  0.3709299999999999  0.6851800000000002  0.07213  1.0000
  C   C30       1.0  0.3739599999999999  0.6094100000000002  0.10812  1.0000
  C   C31       1.0  0.36864999999999987  0.63246  0.17788  1.0000
  C   C32       1.0  0.35956  0.7332200000000001  0.2138  1.0000
  C   C33       1.0  0.35216  0.81049  0.17643  1.0000
  C   C34       1.0  0.35589  0.7597500000000003  0.28538  1.0000
  C   C35       1.0  0.33774  0.86229  0.31786  1.0000
  C   C36       1.0  0.3300499999999999  0.93639  0.27989  1.0000
  C   C37       1.0  0.33854  0.9111400000000002  0.21047  1.0000
  C   C38       1.0  0.36852999999999997  0.6879100000000002  0.32605  1.0000
  C   C39       1.0  0.3315  0.8164200000000003  0.4266400000000001  1.0000
  C   C40       1.0  0.35950999999999994  0.7853700000000002  0.10548  1.0000
  H   H18       1.0  0.38786999999999994  0.60949  0.3053  1.0000
  H   H19       1.0  0.3779499999999999  0.66567  0.01792  1.0000
  H   H20       1.0  0.37048  0.5694000000000002  0.20192000000000002  1.0000
  H   H21       1.0  0.38153  0.53195  0.08173  1.0000
  H   H22       1.0  0.33249  0.97161  0.18364  1.0000
  O   O11       1.0  0.20323  0.9173100000000001  0.91502  1.0000
  O   O12       1.0  0.5355  0.8886900000000002  0.04804  1.0000
  O   O13       1.0  0.71108  0.08261  0.085  1.0000
  C   C41       1.0  0.3668599999999999  0.86253  0.06524  1.0000
  O   O14       1.0  0.53263  0.9053700000000002  0.91323  1.0000
  O   O15       1.0  0.7081899999999998  0.09941000000000008  0.94923  1.0000
  C   C42       1.0  0.36448  0.88422  0.8865  1.0000
  O   O16       1.0  0.20612  0.90051  0.050789999999999995  1.0000
  O   O17       1.0  0.37535999999999997  0.06357  0.01199  1.0000
  V   V3        1.0  0.64817  0.9881999999999999  0.9977799999999999  1.0000
  O   O18       1.0  0.038239999999999996  0.11139  0.95194  1.0000
  C   C43       1.0  0.86964  0.13769  0.93501  1.0000
  O   O19       1.0  0.04112  0.09471  0.08675  1.0000
  C   C44       1.0  0.87218  0.11536000000000003  0.11353  1.0000
  V   V4        1.0  0.14881  0.011930000000000003  0.00218  1.0000
  O   O20       1.0  0.8717499999999998  0.9364300000000002  0.98801  1.0000
  F   F1        1.0  0.30692  0.9870100000000002  0.41981999999999997  1.0000
  N   N1        1.0  0.19513999999999995  0.31719000000000014  0.3133  1.0000
  H   H23       1.0  0.29561  0.26072  0.30828  1.0000
  C   C45       1.0  0.26946  0.40356  0.29066  1.0000
  H   H24       1.0  0.4054  0.42918999999999996  0.31765  1.0000
  H   H25       1.0  0.16430999999999998  0.46595  0.30118  1.0000
  H   H26       1.0  0.29965  0.38405999999999996  0.23600999999999997  1.0000
