data_image0
_chemical_formula_structural       O4C2O4C2Cu2C4O4N2C22H4C10H4C2N2H4OCH2CH2CH3OCH2CH2CH3OCH2CH2CH3OCH2CH2CH3
_chemical_formula_sum              "O16 C54 Cu2 N4 H40"
_cell_length_a       27.78059
_cell_length_b       9.06864
_cell_length_c       7.7767800000000005
_cell_angle_alpha    89.962
_cell_angle_beta     90.09249000000001
_cell_angle_gamma    90.04281

_symmetry_space_group_name_H-M    'P 1'
_symmetry_Int_Tables_number       1

loop_
  _symmetry_equiv_pos_as_xyz
  'x,y,z'

loop_
  _atom_site_type_symbol
  _atom_site_label
  _atom_site_symmetry_multiplicity
  _atom_site_fract_x
  _atom_site_fract_y
  _atom_site_fract_z
  _atom_site_occupancy
  O   O1        1.0  0.5  0.28839  0.6427599999999998  1.0000
  O   O2        1.0  0.5  0.71161  0.3572399999999999  1.0000
  O   O3        1.0  0.5  0.71161  0.6427599999999998  1.0000
  O   O4        1.0  0.5  0.28839  0.3572399999999999  1.0000
  C   C1        1.0  0.49998  0.22002  0.50003  1.0000
  C   C2        1.0  0.5  0.77998  0.4999599999999999  1.0000
  O   O5        1.0  0.43026  0.5  0.64277  1.0000
  O   O6        1.0  0.56974  0.5  0.3572299999999999  1.0000
  O   O7        1.0  0.56974  0.5  0.64277  1.0000
  O   O8        1.0  0.43026  0.5  0.3572299999999999  1.0000
  C   C3        1.0  0.40725000000000006  0.49875  0.4997299999999999  1.0000
  C   C4        1.0  0.59274  0.50122  0.4999999999999999  1.0000
  Cu  Cu1       1.0  0.5  0.5  0.6690799999999998  1.0000
  Cu  Cu2       1.0  0.5  0.5  0.3309199999999999  1.0000
  C   C5        1.0  0.17672  0.35878  0.4940699999999999  1.0000
  C   C6        1.0  0.82313  0.63833  0.50415  1.0000
  C   C7        1.0  0.17853  0.61986  0.4568599999999999  1.0000
  C   C8        1.0  0.82107  0.37994  0.44701  1.0000
  O   O9        1.0  0.20047  0.23106999999999997  0.5212299999999997  1.0000
  O   O10       1.0  0.7995  0.76391  0.5429099999999998  1.0000
  O   O11       1.0  0.20409  0.74571  0.44099  1.0000
  O   O12       1.0  0.79528  0.25595  0.4195999999999999  1.0000
  N   N1        1.0  0.20185  0.48801  0.4775599999999999  1.0000
  N   N2        1.0  0.79795  0.51047  0.4780999999999999  1.0000
  C   C9        1.0  0.2775  0.55777  0.6223099999999998  1.0000
  C   C10       1.0  0.72262  0.43954  0.62233  1.0000
  C   C11       1.0  0.28023  0.41172  0.35848  1.0000
  C   C12       1.0  0.7195899999999998  0.58891  0.36132  1.0000
  C   C13       1.0  0.32774  0.55945  0.6284499999999997  1.0000
  C   C14       1.0  0.6723  0.43857  0.6286999999999998  1.0000
  C   C15       1.0  0.33077  0.42091  0.3623499999999999  1.0000
  C   C16       1.0  0.66919  0.58066  0.36462  1.0000
  C   C17       1.0  0.25361  0.48572000000000004  0.4859599999999999  1.0000
  C   C18       1.0  0.74631  0.51271  0.4869099999999999  1.0000
  C   C19       1.0  0.10162  0.49326  0.46634  1.0000
  C   C20       1.0  0.8980699999999999  0.50528  0.46626  1.0000
  C   C21       1.0  0.12626  0.35863  0.48504999999999987  1.0000
  C   C22       1.0  0.87352  0.63898  0.4935099999999999  1.0000
  C   C23       1.0  0.12809  0.62512  0.4529299999999999  1.0000
  C   C24       1.0  0.87153  0.3743  0.44432  1.0000
  C   C25       1.0  0.10005  0.22738  0.4971299999999999  1.0000
  C   C26       1.0  0.89973  0.76962  0.51251  1.0000
  C   C27       1.0  0.10374  0.75909  0.4351899999999999  1.0000
  C   C28       1.0  0.89584  0.24105000000000001  0.41976  1.0000
  C   C29       1.0  0.35451  0.49242  0.4978399999999999  1.0000
  C   C30       1.0  0.64547  0.50734  0.4987399999999999  1.0000
  H   H1        1.0  0.11808  0.12268  0.51497  1.0000
  H   H2        1.0  0.88173  0.8736  0.53602  1.0000
  H   H3        1.0  0.12327  0.86161  0.41987  1.0000
  H   H4        1.0  0.87626  0.13925  0.3988099999999999  1.0000
  C   C31       1.0  0.97345  0.36527  0.45079999999999987  1.0000
  C   C32       1.0  0.0262  0.63357  0.45806999999999987  1.0000
  C   C33       1.0  0.97532  0.63649  0.4726999999999999  1.0000
  C   C34       1.0  0.02436  0.36186  0.4654199999999999  1.0000
  C   C35       1.0  0.94911  0.50238  0.46275  1.0000
  C   C36       1.0  0.05056  0.4962  0.46279  1.0000
  C   C37       1.0  0.94585  0.23619  0.4241199999999999  1.0000
  C   C38       1.0  0.05374  0.76354  0.43837  1.0000
  C   C39       1.0  0.94966  0.76887  0.5008299999999998  1.0000
  C   C40       1.0  0.05008  0.22864000000000004  0.4863999999999999  1.0000
  H   H5        1.0  0.96208  0.13009  0.4011999999999999  1.0000
  H   H6        1.0  0.03746000000000001  0.87013  0.4200099999999999  1.0000
  H   H7        1.0  0.9674099999999999  0.87316  0.52108  1.0000
  H   H8        1.0  0.0323  0.12389  0.5017299999999998  1.0000
  C   C41       1.0  0.49998  0.06542  0.50004  1.0000
  C   C42       1.0  0.49999  0.9345900000000001  0.4999499999999999  1.0000
  N   N3        1.0  0.5  0.5  0.07681999999999997  1.0000
  N   N4        1.0  0.5  0.5  0.92318  1.0000
  H   H9        1.0  0.35169999999999996  0.37151  0.2603299999999999  1.0000
  H   H10       1.0  0.64859  0.63264  0.26290999999999987  1.0000
  H   H11       1.0  0.34571  0.61783  0.73178  1.0000
  H   H12       1.0  0.65433  0.37958  0.7314499999999998  1.0000
  O   O13       1.0  0.25573  0.34483  0.22320999999999994  1.0000
  C   C43       1.0  0.27328  0.20109  0.18790999999999994  1.0000
  H   H13       1.0  0.24212  0.12419  0.18980999999999995  1.0000
  H   H14       1.0  0.29910000000000003  0.15777  0.2858  1.0000
  C   C44       1.0  0.29554  0.19688  0.007779999999999998  1.0000
  H   H15       1.0  0.26675  0.21221  0.9101599999999999  1.0000
  H   H16       1.0  0.32194  0.28799  0.9927999999999998  1.0000
  C   C45       1.0  0.32086  0.05056  0.9737299999999998  1.0000
  H   H17       1.0  0.35093  0.03468  0.0662  1.0000
  H   H18       1.0  0.33575  0.05052  0.8412899999999998  1.0000
  H   H19       1.0  0.29513  0.95754  0.9858999999999998  1.0000
  O   O14       1.0  0.7434  0.65768  0.22667999999999996  1.0000
  C   C46       1.0  0.73163  0.80969  0.21713  1.0000
  H   H20       1.0  0.76492  0.87397  0.24315  1.0000
  H   H21       1.0  0.7043  0.84719  0.31279  1.0000
  C   C47       1.0  0.71424  0.84681  0.035479999999999984  1.0000
  H   H22       1.0  0.7431899999999999  0.82095  0.9417299999999997  1.0000
  H   H23       1.0  0.68219  0.77858  0.00377  1.0000
  C   C48       1.0  0.7011  0.00965  0.018859999999999995  1.0000
  H   H24       1.0  0.67119  0.03757  0.10768999999999997  1.0000
  H   H25       1.0  0.68938  0.03332  0.8850799999999998  1.0000
  H   H26       1.0  0.73273  0.07994  0.04911  1.0000
  O   O15       1.0  0.25169  0.6401  0.7394899999999998  1.0000
  C   C49       1.0  0.23792000000000002  0.54946  0.87851  1.0000
  H   H27       1.0  0.2684  0.54024  0.9707899999999998  1.0000
  H   H28       1.0  0.22705  0.4366  0.8366399999999998  1.0000
  C   C50       1.0  0.19439  0.61714  0.9690799999999998  1.0000
  H   H29       1.0  0.16329  0.6193  0.87892  1.0000
  H   H30       1.0  0.18449  0.54685  0.08067999999999997  1.0000
  C   C51       1.0  0.2045  0.77358  0.03202  1.0000
  H   H31       1.0  0.2365  0.77462  0.11773999999999997  1.0000
  H   H32       1.0  0.17292  0.8151  0.10465  1.0000
  H   H33       1.0  0.21089  0.84861  0.92146  1.0000
  O   O16       1.0  0.74891  0.35867  0.7403499999999997  1.0000
  C   C52       1.0  0.75492  0.43973  0.89443  1.0000
  H   H34       1.0  0.73392  0.3851  0.9980399999999998  1.0000
  H   H35       1.0  0.74222  0.55631  0.8867699999999997  1.0000
  C   C53       1.0  0.80825  0.44275  0.9450399999999998  1.0000
  H   H36       1.0  0.82917  0.50085  0.8440099999999998  1.0000
  H   H37       1.0  0.81251  0.5053  0.06689  1.0000
  C   C54       1.0  0.82891  0.2882  0.9700099999999998  1.0000
  H   H38       1.0  0.80833  0.22763000000000003  0.06978  1.0000
  H   H39       1.0  0.867  0.29663  0.012429999999999997  1.0000
  H   H40       1.0  0.82772  0.22549000000000002  0.8474299999999998  1.0000
