data_image0
_chemical_formula_structural       C42Cu2H10N4O13HOHOHOHNH2NH2OHOHNH2NH2
_chemical_formula_sum              "C42 Cu2 H24 N8 O18"
_cell_length_a       27.84967
_cell_length_b       8.67596
_cell_length_c       7.42699
_cell_angle_alpha    103.25552
_cell_angle_beta     94.02428
_cell_angle_gamma    92.47724

_space_group_name_H-M_alt    "P 1"
_space_group_IT_number       1

loop_
  _space_group_symop_operation_xyz
  'x, y, z'

loop_
  _atom_site_type_symbol
  _atom_site_label
  _atom_site_symmetry_multiplicity
  _atom_site_fract_x
  _atom_site_fract_y
  _atom_site_fract_z
  _atom_site_occupancy
  C   C1        1.0  0.49856  0.19949999999999993  0.4529399999999999  1.0000
  C   C2        1.0  0.50149  0.8005099999999999  0.54705  1.0000
  C   C3        1.0  0.10071999999999998  0.50663  0.49626  1.0000
  C   C4        1.0  0.8969599999999998  0.52152  0.4756199999999999  1.0000
  C   C5        1.0  0.12279999999999998  0.3613599999999999  0.44242  1.0000
  C   C6        1.0  0.8748899999999997  0.66105  0.56114  1.0000
  C   C7        1.0  0.09353999999999997  0.22081000000000003  0.37182  1.0000
  C   C8        1.0  0.90474  0.79836  0.64782  1.0000
  C   C9        1.0  0.12981  0.64874  0.55565  1.0000
  C   C10       1.0  0.86789  0.38407  0.3871099999999999  1.0000
  C   C11       1.0  0.3538499999999999  0.49656999999999996  0.50676  1.0000
  C   C12       1.0  0.6452199999999999  0.50396  0.49048  1.0000
  C   C13       1.0  0.96949  0.3749899999999999  0.4001499999999999  1.0000
  C   C14       1.0  0.02819999999999999  0.6564499999999999  0.5554199999999998  1.0000
  C   C15       1.0  0.97727  0.65798  0.56022  1.0000
  C   C16       1.0  0.0205  0.36912999999999996  0.41607  1.0000
  C   C17       1.0  0.9480599999999999  0.51834  0.47864  1.0000
  C   C18       1.0  0.04962999999999999  0.5105999999999998  0.4894599999999999  1.0000
  C   C19       1.0  0.9389599999999999  0.24207  0.30691  1.0000
  C   C20       1.0  0.05865999999999998  0.7964899999999998  0.61345  1.0000
  C   C21       1.0  0.88927  0.24679999999999996  0.30101  1.0000
  C   C22       1.0  0.10836999999999995  0.7922599999999997  0.6133899999999998  1.0000
  C   C23       1.0  0.40726999999999997  0.49868999999999997  0.50244  1.0000
  C   C24       1.0  0.59242  0.50068  0.4972399999999999  1.0000
  C   C25       1.0  0.043439999999999986  0.22574999999999998  0.36103  1.0000
  C   C26       1.0  0.9546  0.7947699999999998  0.64644  1.0000
  C   C27       1.0  0.4978899999999999  0.031429999999999986  0.42651999999999995  1.0000
  C   C28       1.0  0.50223  0.9685699999999999  0.57346  1.0000
  C   C29       1.0  0.17364999999999997  0.36243  0.4604999999999999  1.0000
  C   C30       1.0  0.82391  0.65574  0.55834  1.0000
  C   C31       1.0  0.17996  0.64487  0.55271  1.0000
  C   C32       1.0  0.8177299999999998  0.3862599999999998  0.38647999999999993  1.0000
  C   C33       1.0  0.28188  0.55752  0.6751699999999998  1.0000
  C   C34       1.0  0.72444  0.4429899999999999  0.60781  1.0000
  C   C35       1.0  0.3328099999999999  0.55573  0.6753299999999998  1.0000
  C   C36       1.0  0.6736699999999998  0.43511999999999995  0.6124799999999998  1.0000
  C   C37       1.0  0.32404  0.43912  0.33992  1.0000
  C   C38       1.0  0.6669099999999998  0.58043  0.3655699999999999  1.0000
  C   C39       1.0  0.27334  0.43976  0.3424199999999999  1.0000
  C   C40       1.0  0.71746  0.5802699999999997  0.35552  1.0000
  C   C41       1.0  0.25272  0.5015299999999998  0.50874  1.0000
  C   C42       1.0  0.7456399999999999  0.51547  0.47988  1.0000
  Cu  Cu1       1.0  0.50538  0.5173799999999998  0.6843799999999999  1.0000
  Cu  Cu2       1.0  0.4946199999999999  0.48261999999999994  0.3156199999999999  1.0000
  H   H1        1.0  0.46211999999999986  0.37821  0.9481999999999998  1.0000
  H   H2        1.0  0.53784  0.6219099999999997  0.051819999999999984  1.0000
  H   H3        1.0  0.8675799999999998  0.14108  0.22885999999999995  1.0000
  H   H4        1.0  0.13002999999999998  0.9030499999999998  0.65903  1.0000
  H   H5        1.0  0.9521899999999999  0.13259  0.23293999999999998  1.0000
  H   H6        1.0  0.0453  0.91294  0.65456  1.0000
  H   H7        1.0  0.02355  0.11298999999999995  0.31136999999999987  1.0000
  H   H8        1.0  0.9748099999999997  0.9019299999999998  0.72039  1.0000
  H   H9        1.0  0.4938099999999999  0.9591599999999999  0.28519  1.0000
  H   H10       1.0  0.50631  0.04085  0.71479  1.0000
  N   N1        1.0  0.20096  0.5029999999999998  0.50877  1.0000
  N   N2        1.0  0.7970199999999997  0.5197099999999999  0.4732899999999999  1.0000
  N   N3        1.0  0.48651  0.45643  0.03850999999999999  1.0000
  N   N4        1.0  0.5134899999999999  0.54357  0.96149  1.0000
  O   O1        1.0  0.5034999999999998  0.2861199999999998  0.6197799999999998  1.0000
  O   O2        1.0  0.4965  0.71388  0.3802199999999999  1.0000
  O   O3        1.0  0.4944099999999999  0.25678  0.3083599999999999  1.0000
  O   O4        1.0  0.50559  0.74322  0.69164  1.0000
  O   O5        1.0  0.43481  0.5146999999999998  0.6556899999999998  1.0000
  O   O6        1.0  0.5651899999999999  0.48529999999999995  0.3443099999999999  1.0000
  O   O7        1.0  0.42572  0.48534999999999995  0.34428  1.0000
  O   O8        1.0  0.5742799999999998  0.51465  0.6557199999999997  1.0000
  O   O9        1.0  0.19587  0.22477999999999995  0.43143  1.0000
  O   O10       1.0  0.8009399999999999  0.78355  0.6403499999999998  1.0000
  O   O11       1.0  0.7896699999999998  0.2555799999999999  0.30092  1.0000
  O   O12       1.0  0.20758999999999994  0.7820099999999999  0.5924699999999999  1.0000
  O   O13       1.0  0.34525  0.38163  0.17698  1.0000
  H   H11       1.0  0.32459  0.40014  0.0711  1.0000
  O   O14       1.0  0.6381199999999999  0.65906  0.26128  1.0000
  H   H12       1.0  0.6573699999999998  0.7495899999999998  0.23675999999999994  1.0000
  O   O15       1.0  0.24269999999999994  0.37994  0.18500999999999995  1.0000
  H   H13       1.0  0.25738  0.2888  0.10675999999999998  1.0000
  O   O16       1.0  0.74059  0.64016  0.22538  1.0000
  H   H14       1.0  0.7176099999999997  0.6347  0.11586  1.0000
  N   N5        1.0  0.11414  0.07234999999999997  0.30214  1.0000
  H   H15       1.0  0.10049  0.9897699999999999  0.3707899999999999  1.0000
  H   H16       1.0  0.10254999999999997  0.03304  0.16133  1.0000
  N   N6        1.0  0.8863199999999996  0.9450499999999998  0.7399299999999998  1.0000
  H   H17       1.0  0.8641599999999998  0.9875999999999999  0.6449799999999998  1.0000
  H   H18       1.0  0.86728  0.92692  0.8504299999999998  1.0000
  O   O17       1.0  0.6505099999999998  0.36014  0.7309299999999997  1.0000
  H   H19       1.0  0.67412  0.32006  0.81182  1.0000
  O   O18       1.0  0.3630099999999999  0.61332  0.8352499999999998  1.0000
  H   H20       1.0  0.34434999999999993  0.65259  0.94287  1.0000
  N   N7        1.0  0.7554199999999998  0.3763799999999999  0.7288999999999998  1.0000
  H   H21       1.0  0.7504499999999997  0.43097  0.86651  1.0000
  H   H22       1.0  0.7464399999999998  0.25471999999999995  0.7048499999999998  1.0000
  N   N8        1.0  0.2586899999999999  0.61407  0.8423299999999999  1.0000
  H   H23       1.0  0.26820999999999995  0.54635  0.9371499999999998  1.0000
  H   H24       1.0  0.27001  0.7329499999999998  0.8983099999999998  1.0000
