data_image0
_chemical_formula_structural       C42Cr6F6H12O26
_chemical_formula_sum              "C42 Cr6 F6 H12 O26"
_cell_length_a       10.59429
_cell_length_b       10.692059999999998
_cell_length_c       16.99769
_cell_angle_alpha    80.72224
_cell_angle_beta     99.30826
_cell_angle_gamma    118.30255

_space_group_name_H-M_alt    "P 1"
_space_group_IT_number       1

loop_
  _space_group_symop_operation_xyz
  'x, y, z'

loop_
  _atom_site_type_symbol
  _atom_site_label
  _atom_site_symmetry_multiplicity
  _atom_site_fract_x
  _atom_site_fract_y
  _atom_site_fract_z
  _atom_site_occupancy
  C   C1        1.0  0.38451  0.28464  0.63214  1.0000
  C   C2        1.0  0.33382  0.18682000000000004  0.78168  1.0000
  C   C3        1.0  0.33572  0.66376  0.27775  1.0000
  C   C4        1.0  0.36917000000000005  0.6549200000000001  0.5859199999999998  1.0000
  C   C5        1.0  0.32364999999999994  0.6732199999999999  0.20691  1.0000
  C   C6        1.0  0.80783  0.6551099999999999  0.15184  1.0000
  C   C7        1.0  0.79148  0.53204  0.20245  1.0000
  C   C8        1.0  0.78285  0.52601  0.28212  1.0000
  C   C9        1.0  0.77727  0.75136  0.2624299999999999  1.0000
  C   C10       1.0  0.78278  0.7567899999999999  0.18027  1.0000
  C   C11       1.0  0.8762  0.44852  0.21856  1.0000
  C   C12       1.0  0.39225000000000004  0.8301200000000001  0.67424  1.0000
  C   C13       1.0  0.8638600000000001  0.4416999999999999  0.30661  1.0000
  C   C14       1.0  0.79158  0.64118  0.31483  1.0000
  C   C15       1.0  0.26256  0.057780000000000005  0.17919  1.0000
  C   C16       1.0  0.7206799999999999  0.5878  0.6332599999999998  1.0000
  C   C17       1.0  0.16208000000000003  0.08377  0.20799999999999993  1.0000
  C   C18       1.0  0.18446999999999997  0.1222  0.28407  1.0000
  C   C19       1.0  0.39973  0.09142  0.31038  1.0000
  C   C20       1.0  0.3751  0.049120000000000004  0.23299999999999996  1.0000
  C   C21       1.0  0.10655999999999997  0.18921999999999997  0.17449  1.0000
  C   C22       1.0  0.127  0.22821  0.25836999999999993  1.0000
  C   C23       1.0  0.37561  0.85189  0.75015  1.0000
  C   C24       1.0  0.30957  0.13878000000000001  0.3337199999999999  1.0000
  C   C25       1.0  0.88532  0.69914  0.85715  1.0000
  C   C26       1.0  0.28153999999999996  0.75075  0.8828799999999998  1.0000
  C   C27       1.0  0.2868  0.11886999999999998  0.85844  1.0000
  C   C28       1.0  0.34955  0.22288  0.40083  1.0000
  C   C29       1.0  0.8824800000000002  0.68907  0.08176  1.0000
  C   C30       1.0  0.31335  0.70075  0.12374  1.0000
  C   C31       1.0  0.24613  0.03841  0.09501999999999997  1.0000
  C   C32       1.0  0.3650099999999999  0.6541099999999999  0.36085  1.0000
  C   C33       1.0  0.76652  0.61939  0.39759  1.0000
  C   C34       1.0  0.1282  0.45896  0.79206  1.0000
  C   C35       1.0  0.27976  0.73746  0.79854  1.0000
  C   C36       1.0  0.18084  0.61339  0.76264  1.0000
  C   C37       1.0  0.19726999999999995  0.5916399999999999  0.68772  1.0000
  C   C38       1.0  0.14585999999999993  0.43537  0.7096799999999998  1.0000
  C   C39       1.0  0.31371  0.6932699999999999  0.64661  1.0000
  C   C40       1.0  0.77313  0.63053  0.71221  1.0000
  C   C41       1.0  0.8193600000000001  0.6694599999999999  0.77798  1.0000
  C   C42       1.0  0.36506000000000005  0.23364000000000001  0.71448  1.0000
  Cr  Cr1       1.0  0.60844  0.38907999999999987  0.5196799999999998  1.0000
  Cr  Cr2       1.0  0.28864  0.4000899999999999  0.49076000000000003  1.0000
  Cr  Cr3       1.0  0.60294  0.7108  0.48951  1.0000
  Cr  Cr4       1.0  0.05253000000000005  0.94756  0.96421  1.0000
  Cr  Cr5       1.0  0.059970000000000065  0.6268000000000001  0.9929199999999999  1.0000
  Cr  Cr6       1.0  0.37332  0.93844  0.99537  1.0000
  F   F1        1.0  0.79932  0.31645  0.1889  1.0000
  F   F2        1.0  0.7801900000000002  0.30574  0.34122999999999987  1.0000
  F   F3        1.0  0.9946900000000001  0.51494  0.35058  1.0000
  F   F4        1.0  0.96312  0.12442  0.14523  1.0000
  F   F5        1.0  0.22403  0.43586  0.85084  1.0000
  F   F6        1.0  0.77367  0.86498  0.13013  1.0000
  H   H1        1.0  0.041729999999999996  0.37018  0.67545  1.0000
  H   H2        1.0  0.014909999999999923  0.4052899999999998  0.80721  1.0000
  H   H3        1.0  0.23122  0.40318  0.7100499999999997  1.0000
  H   H4        1.0  0.76457  0.83368  0.28475  1.0000
  H   H5        1.0  0.9892000000000001  0.50856  0.20292  1.0000
  H   H6        1.0  0.4773399999999999  0.9157299999999999  0.64164  1.0000
  H   H7        1.0  0.49437  0.09801  0.34876  1.0000
  H   H8        1.0  0.45002999999999993  0.021050000000000013  0.21353999999999995  1.0000
  H   H9        1.0  0.17691  0.27799  0.13297  1.0000
  H   H10       1.0  0.20960000000000004  0.34053  0.26517  1.0000
  H   H11       1.0  0.024260000000000007  0.19548000000000001  0.28386  1.0000
  H   H12       1.0  0.4459199999999999  0.9539199999999999  0.77334  1.0000
  O   O1        1.0  0.7540200000000001  0.49759  0.60993  1.0000
  O   O2        1.0  0.4061799999999999  0.8269299999999998  0.92066  1.0000
  O   O3        1.0  0.35862  0.06287000000000002  0.9019499999999998  1.0000
  O   O4        1.0  0.48142  0.27139  0.60063  1.0000
  O   O5        1.0  0.16391000000000003  0.08546  0.05021  1.0000
  O   O6        1.0  0.9351999999999999  0.8151699999999997  0.045769999999999984  1.0000
  O   O7        1.0  0.91612  0.59669  0.06943  1.0000
  O   O8        1.0  0.19230999999999995  0.6312  0.08617  1.0000
  O   O9        1.0  0.40677  0.81948  0.09642  1.0000
  O   O10       1.0  0.35917  0.055959999999999996  0.06488  1.0000
  O   O11       1.0  0.16194  0.8376  0.9841599999999999  1.0000
  O   O12       1.0  0.29508  0.53362  0.39789  1.0000
  O   O13       1.0  0.26380999999999993  0.25454999999999994  0.58959  1.0000
  O   O14       1.0  0.30082  0.5312  0.56089  1.0000
  O   O15       1.0  0.49148000000000003  0.74402  0.56427  1.0000
  O   O16       1.0  0.72629  0.6938  0.58301  1.0000
  O   O17       1.0  0.74783  0.50019  0.43409  1.0000
  O   O18       1.0  0.47568000000000005  0.2738  0.43763  1.0000
  O   O19       1.0  0.25762  0.25715999999999994  0.41375  1.0000
  O   O20       1.0  0.48527999999999993  0.7466199999999998  0.38844  1.0000
  O   O21       1.0  0.7205500000000001  0.69622  0.42001  1.0000
  O   O22       1.0  0.50001  0.49999  0.49998  1.0000
  O   O23       1.0  0.16332000000000005  0.09289999999999998  0.87445  1.0000
  O   O24       1.0  0.93465  0.82208  0.88284  1.0000
  O   O25       1.0  0.91552  0.6041399999999999  0.89367  1.0000
  O   O26       1.0  0.19176000000000004  0.6381100000000001  0.9232299999999999  1.0000
