data_image0
_chemical_formula_structural       O8C4O8C4O4V4C56H4F8H4F4H8F4
_chemical_formula_sum              "O20 C64 V4 H16 F16"
_cell_length_a       7.23805
_cell_length_b       14.82331
_cell_length_c       22.59718
_cell_angle_alpha    90.00002
_cell_angle_beta     90.00167
_cell_angle_gamma    88.67868

_symmetry_space_group_name_H-M    'P 1'
_symmetry_Int_Tables_number       1

loop_
  _symmetry_equiv_pos_as_xyz
  'x,y,z'

loop_
  _atom_site_type_symbol
  _atom_site_label
  _atom_site_symmetry_multiplicity
  _atom_site_fract_x
  _atom_site_fract_y
  _atom_site_fract_z
  _atom_site_occupancy
  O   O1        1.0  0.39081  0.84481  0.44734  1.0000
  O   O2        1.0  0.10919  0.15519  0.94734  1.0000
  O   O3        1.0  0.89081  0.65519  0.55266  1.0000
  O   O4        1.0  0.60919  0.34481  0.05266  1.0000
  O   O5        1.0  0.72055  0.65582  0.44042  1.0000
  O   O6        1.0  0.7794499999999999  0.34418  0.94042  1.0000
  O   O7        1.0  0.22054999999999994  0.84418  0.55958  1.0000
  O   O8        1.0  0.27945  0.15582  0.05958  1.0000
  C   C1        1.0  0.55393  0.62628  0.42643  1.0000
  C   C2        1.0  0.94607  0.37372  0.9264299999999999  1.0000
  C   C3        1.0  0.05044  0.87352  0.57359  1.0000
  C   C4        1.0  0.4495599999999999  0.12648  0.07359  1.0000
  O   O9        1.0  0.7205299999999999  0.84413  0.44042  1.0000
  O   O10       1.0  0.77947  0.15587  0.94042  1.0000
  O   O11       1.0  0.22053  0.65587  0.55958  1.0000
  O   O12       1.0  0.27947  0.3441299999999999  0.05958  1.0000
  O   O13       1.0  0.8908299999999999  0.84481  0.55266  1.0000
  O   O14       1.0  0.60917  0.15519  0.05266  1.0000
  O   O15       1.0  0.39083  0.65519  0.44734  1.0000
  O   O16       1.0  0.10917  0.34481  0.94734  1.0000
  C   C5        1.0  0.5503900000000002  0.87301  0.42600999999999994  1.0000
  C   C6        1.0  0.9496099999999997  0.12699  0.92601  1.0000
  C   C7        1.0  0.05376000000000001  0.62737  0.57438  1.0000
  C   C8        1.0  0.44624999999999987  0.37262999999999996  0.07437  1.0000
  O   O17       1.0  0.55731  0.7499799999999998  0.53682  1.0000
  O   O18       1.0  0.94269  0.25002  0.03682  1.0000
  O   O19       1.0  0.05731000000000001  0.75002  0.4631799999999999  1.0000
  O   O20       1.0  0.44269  0.24998  0.96318  1.0000
  V   V1        1.0  0.83216  0.7499799999999998  0.49317  1.0000
  V   V2        1.0  0.66784  0.25002  0.9931699999999999  1.0000
  V   V3        1.0  0.33216  0.75002  0.50683  1.0000
  V   V4        1.0  0.16784  0.24998  0.00683  1.0000
  C   C9        1.0  0.84786  0.60148  0.85881  1.0000
  C   C10       1.0  0.65198  0.39849  0.35883  1.0000
  C   C11       1.0  0.55051  0.89469  0.13432  1.0000
  C   C12       1.0  0.94958  0.10531  0.63432  1.0000
  C   C13       1.0  0.94556  0.4490099999999999  0.88366  1.0000
  C   C14       1.0  0.55442  0.55099  0.38366000000000006  1.0000
  C   C15       1.0  0.4663399999999999  0.05095  0.11585  1.0000
  C   C16       1.0  0.03367000000000001  0.9490499999999997  0.61585  1.0000
  C   C17       1.0  0.12924999999999995  0.46982  0.59971  1.0000
  C   C18       1.0  0.37082  0.53019  0.0997  1.0000
  C   C19       1.0  0.49074  0.03373999999999999  0.40590999999999994  1.0000
  C   C20       1.0  0.009160000000000001  0.96625  0.90591  1.0000
  C   C21       1.0  0.15506  0.3994099999999999  0.63953  1.0000
  C   C22       1.0  0.3450299999999999  0.60061  0.13951  1.0000
  C   C23       1.0  0.45192  0.10588  0.36841  1.0000
  C   C24       1.0  0.04793  0.89411  0.86841  1.0000
  C   C25       1.0  0.10945999999999997  0.41039999999999993  0.69888  1.0000
  C   C26       1.0  0.39062  0.58963  0.19887  1.0000
  C   C27       1.0  0.4521199999999999  0.09418  0.30735  1.0000
  C   C28       1.0  0.04776  0.90581  0.8073499999999999  1.0000
  C   C29       1.0  0.031149999999999997  0.49239  0.72028  1.0000
  C   C30       1.0  0.4688799999999999  0.50762  0.22027  1.0000
  C   C31       1.0  0.49645  0.009469999999999996  0.28152  1.0000
  C   C32       1.0  0.003510000000000001  0.9905299999999999  0.78152  1.0000
  C   C33       1.0  0.00205  0.56506  0.679  1.0000
  C   C34       1.0  0.49795  0.43494  0.179  1.0000
  C   C35       1.0  0.5403599999999997  0.9352099999999998  0.32023  1.0000
  C   C36       1.0  0.9596399999999998  0.06479  0.8202299999999999  1.0000
  C   C37       1.0  0.9815699999999998  0.50433  0.78136  1.0000
  C   C38       1.0  0.51843  0.4956799999999999  0.28136  1.0000
  C   C39       1.0  0.4979099999999999  0.99632  0.21857  1.0000
  C   C40       1.0  0.00208  0.00368  0.7185699999999999  1.0000
  C   C41       1.0  0.9019  0.58828  0.79964  1.0000
  C   C42       1.0  0.59801  0.41171  0.29965  1.0000
  C   C43       1.0  0.54581  0.9095599999999998  0.19575  1.0000
  C   C44       1.0  0.9542399999999999  0.09044  0.69575  1.0000
  C   C45       1.0  0.87405  0.65817  0.75876  1.0000
  C   C46       1.0  0.62583  0.34181  0.25877  1.0000
  C   C47       1.0  0.59174  0.8385  0.23419  1.0000
  C   C48       1.0  0.9083499999999998  0.16150999999999993  0.73419  1.0000
  C   C49       1.0  0.9240899999999997  0.6473799999999998  0.69974  1.0000
  C   C50       1.0  0.5758499999999998  0.35261  0.19974  1.0000
  C   C51       1.0  0.58826  0.8505899999999997  0.29519  1.0000
  C   C52       1.0  0.9118199999999997  0.14942  0.79519  1.0000
  C   C53       1.0  0.00468  0.43546  0.8249899999999999  1.0000
  C   C54       1.0  0.49537  0.56456  0.32498  1.0000
  C   C55       1.0  0.4567599999999999  0.06646  0.17715  1.0000
  C   C56       1.0  0.04320000000000001  0.93354  0.67715  1.0000
  C   C57       1.0  0.8672999999999998  0.53234  0.90014  1.0000
  C   C58       1.0  0.63256  0.46764  0.40016  1.0000
  C   C59       1.0  0.51283  0.96476  0.09482  1.0000
  C   C60       1.0  0.9872299999999998  0.03524  0.59482  1.0000
  C   C61       1.0  0.054439999999999975  0.55314  0.61836  1.0000
  C   C62       1.0  0.44557999999999987  0.44686  0.11835999999999999  1.0000
  C   C63       1.0  0.53382  0.94803  0.38292  1.0000
  C   C64       1.0  0.96616  0.05198  0.88292  1.0000
  H   H1        1.0  0.0623  0.36974  0.81466  1.0000
  H   H2        1.0  0.43785  0.6303  0.31464  1.0000
  H   H3        1.0  0.42193  0.13432  0.19077999999999998  1.0000
  H   H4        1.0  0.078  0.86567  0.69078  1.0000
  F   F1        1.0  0.80773  0.54648  0.9564499999999999  1.0000
  F   F2        1.0  0.69205  0.45348  0.45646999999999993  1.0000
  F   F3        1.0  0.52509  0.9488299999999997  0.03576  1.0000
  F   F4        1.0  0.97502  0.05117999999999999  0.53576  1.0000
  F   F5        1.0  0.7944099999999997  0.7379  0.77586  1.0000
  F   F6        1.0  0.70539  0.26207  0.27588  1.0000
  F   F7        1.0  0.64436  0.75639  0.21247999999999997  1.0000
  F   F8        1.0  0.8557799999999998  0.24362999999999996  0.71248  1.0000
  H   H5        1.0  0.7868699999999998  0.66524  0.87317  1.0000
  H   H6        1.0  0.71287  0.33471  0.37318999999999997  1.0000
  H   H7        1.0  0.58672  0.8287599999999999  0.1165  1.0000
  H   H8        1.0  0.9134099999999998  0.17125  0.6165  1.0000
  F   F9        1.0  0.18062  0.45708  0.54243  1.0000
  F   F10       1.0  0.31946999999999987  0.54294  0.04241  1.0000
  F   F11       1.0  0.48298  0.04723999999999998  0.46533  1.0000
  F   F12       1.0  0.016909999999999998  0.95275  0.96533  1.0000
  H   H9        1.0  0.13799  0.35302  0.72686  1.0000
  H   H10       1.0  0.3621099999999999  0.64701  0.22684  1.0000
  H   H11       1.0  0.4162799999999999  0.15314  0.28166  1.0000
  H   H12       1.0  0.08354  0.84684  0.78167  1.0000
  H   H13       1.0  0.21398  0.33567  0.62441  1.0000
  H   H14       1.0  0.28615  0.66436  0.12439  1.0000
  H   H15       1.0  0.41806  0.17161  0.38689  1.0000
  H   H16       1.0  0.08173  0.82837  0.8868899999999998  1.0000
  F   F13       1.0  0.8918099999999998  0.71855  0.66321  1.0000
  F   F14       1.0  0.6081  0.28143  0.16322  1.0000
  F   F15       1.0  0.63697  0.77854  0.32921  1.0000
  F   F16       1.0  0.86316  0.22147999999999995  0.8292099999999999  1.0000
