data_image0
_chemical_formula_structural       O4C2O4C2O2V2C2H4C26H6C2H2C6H2C2H2C2O4C2O4C2O2V2NO2NO2F2NO2NO2F2
_chemical_formula_sum              "O28 C48 V4 H16 N4 F4"
_cell_length_a       20.11834
_cell_length_b       7.260110000000001
_cell_length_c       13.66031
_cell_angle_alpha    89.96095000000001
_cell_angle_beta     103.0656
_cell_angle_gamma    90.11467

_symmetry_space_group_name_H-M    'P 1'
_symmetry_Int_Tables_number       1

loop_
  _symmetry_equiv_pos_as_xyz
  'x,y,z'

loop_
  _atom_site_type_symbol
  _atom_site_label
  _atom_site_symmetry_multiplicity
  _atom_site_fract_x
  _atom_site_fract_y
  _atom_site_fract_z
  _atom_site_occupancy
  O   O1        1.0  0.44956  0.50681  0.5997  1.0000
  O   O2        1.0  0.55044  0.00681  0.4003  1.0000
  O   O3        1.0  0.58796  0.18006  0.59576  1.0000
  O   O4        1.0  0.41203999999999996  0.6800599999999999  0.40424  1.0000
  C   C1        1.0  0.61535  0.3450699999999999  0.6164200000000001  1.0000
  C   C2        1.0  0.38445000000000007  0.8441199999999998  0.3842100000000001  1.0000
  O   O5        1.0  0.45238  0.17743  0.6117000000000002  1.0000
  O   O6        1.0  0.54762  0.67743  0.3883  1.0000
  O   O7        1.0  0.41389999999999993  0.0018899999999999998  0.41635  1.0000
  O   O8        1.0  0.5861  0.50189  0.58365  1.0000
  C   C3        1.0  0.43644000000000005  0.34565  0.63754  1.0000
  C   C4        1.0  0.56446  0.8455099999999998  0.36338  1.0000
  O   O9        1.0  0.48753  0.3374899999999999  0.43589000000000006  1.0000
  O   O10       1.0  0.51247  0.83749  0.56411  1.0000
  V   V1        1.0  0.5023100000000001  0.06465999999999997  0.51189  1.0000
  V   V2        1.0  0.4976900000000001  0.5646599999999998  0.48811  1.0000
  C   C5        1.0  0.60641  0.84625  0.10927000000000003  1.0000
  C   C6        1.0  0.39437  0.34696999999999995  0.89157  1.0000
  H   H1        1.0  0.51421  0.85051  0.16331  1.0000
  H   H2        1.0  0.48667  0.3315799999999999  0.8380700000000001  1.0000
  H   H3        1.0  0.68864  0.85702  0.98141  1.0000
  H   H4        1.0  0.31139  0.3305  0.01788  1.0000
  C   C7        1.0  0.60354  0.8511099999999999  0.2851  1.0000
  C   C8        1.0  0.39793999999999996  0.35438  0.71618  1.0000
  C   C9        1.0  0.9298  0.8421499999999997  0.3118200000000001  1.0000
  C   C10       1.0  0.07136999999999998  0.39421  0.68804  1.0000
  C   C11       1.0  0.8953399999999999  0.79207  0.38470000000000004  1.0000
  C   C12       1.0  0.10683000000000002  0.44330999999999987  0.6159800000000001  1.0000
  C   C13       1.0  0.8247499999999999  0.76177  0.35955  1.0000
  C   C14       1.0  0.17787  0.46295999999999987  0.64111  1.0000
  C   C15       1.0  0.7863  0.8120699999999997  0.26202  1.0000
  C   C16       1.0  0.21538  0.4061099999999999  0.73827  1.0000
  C   C17       1.0  0.82256  0.8431  0.18508000000000002  1.0000
  C   C18       1.0  0.17833  0.3713399999999999  0.81433  1.0000
  C   C19       1.0  0.71352  0.8282699999999997  0.23743000000000006  1.0000
  C   C20       1.0  0.28802  0.3846499999999999  0.7632300000000001  1.0000
  C   C21       1.0  0.6782  0.8395799999999998  0.13508  1.0000
  C   C22       1.0  0.32274  0.36226999999999987  0.86535  1.0000
  C   C23       1.0  0.71486  0.8483899999999999  0.05985  1.0000
  C   C24       1.0  0.28559  0.3485699999999999  0.93977  1.0000
  C   C25       1.0  0.78567  0.8557499999999998  0.08395000000000001  1.0000
  C   C26       1.0  0.21477999999999997  0.3464599999999999  0.91503  1.0000
  C   C27       1.0  0.67498  0.84571  0.31148  1.0000
  C   C28       1.0  0.3269699999999999  0.37128  0.68949  1.0000
  C   C29       1.0  0.56948  0.8484599999999998  0.1841  1.0000
  C   C30       1.0  0.43163  0.34463  0.81713  1.0000
  C   C31       1.0  0.89482  0.8566699999999998  0.21175000000000005  1.0000
  C   C32       1.0  0.10582  0.36751999999999996  0.78771  1.0000
  H   H5        1.0  0.69986  0.8597999999999999  0.38981  1.0000
  H   H6        1.0  0.30311  0.3659199999999999  0.6105800000000001  1.0000
  H   H7        1.0  0.98495  0.8538599999999997  0.33223000000000014  1.0000
  H   H8        1.0  0.016070000000000032  0.39256  0.6675900000000002  1.0000
  H   H9        1.0  0.92501  0.7605399999999999  0.45932000000000006  1.0000
  H   H10       1.0  0.07797  0.4816199999999999  0.54191  1.0000
  C   C33       1.0  0.20492  0.003159999999999999  0.2541800000000001  1.0000
  C   C34       1.0  0.79284  0.5118599999999998  0.75387  1.0000
  H   H11       1.0  0.17084  0.11689999999999998  0.25814  1.0000
  H   H12       1.0  0.8255100000000001  0.6310499999999998  0.75522  1.0000
  C   C35       1.0  0.269  0.99863  0.3216200000000001  1.0000
  C   C36       1.0  0.72835  0.51128  0.68762  1.0000
  C   C37       1.0  0.31437  0.85069  0.31804000000000004  1.0000
  C   C38       1.0  0.68502  0.35481  0.68373  1.0000
  C   C39       1.0  0.29202  0.70618  0.24965000000000004  1.0000
  C   C40       1.0  0.70889  0.20431  0.7469400000000002  1.0000
  H   H13       1.0  0.32512  0.59054  0.24511000000000005  1.0000
  H   H14       1.0  0.67671  0.08501999999999997  0.74817  1.0000
  C   C41       1.0  0.22706000000000004  0.7091299999999998  0.18540000000000004  1.0000
  C   C42       1.0  0.77413  0.20517999999999995  0.81014  1.0000
  H   H15       1.0  0.21182  0.5957899999999999  0.13367  1.0000
  H   H16       1.0  0.79069  0.08598999999999997  0.85662  1.0000
  C   C43       1.0  0.18301000000000003  0.8585099999999998  0.18624000000000004  1.0000
  C   C44       1.0  0.8167799999999998  0.35926  0.81459  1.0000
  O   O11       1.0  0.91392  0.20336999999999997  0.91626  1.0000
  O   O12       1.0  0.08608  0.7033699999999998  0.08374  1.0000
  O   O13       1.0  0.04761999999999998  0.5355399999999998  0.88829  1.0000
  O   O14       1.0  0.95238  0.035539999999999995  0.11171  1.0000
  C   C45       1.0  0.06447  0.36897  0.86332  1.0000
  C   C46       1.0  0.9358100000000001  0.8681199999999998  0.13661  1.0000
  O   O15       1.0  0.91204  0.53278  0.9042200000000002  1.0000
  O   O16       1.0  0.08796  0.03278  0.09578  1.0000
  O   O17       1.0  0.9495499999999999  0.7081599999999998  0.09972  1.0000
  O   O18       1.0  0.05045  0.20815999999999996  0.90028  1.0000
  C   C47       1.0  0.8855499999999998  0.36473  0.88321  1.0000
  C   C48       1.0  0.11442  0.86482  0.11699  1.0000
  O   O19       1.0  0.012479999999999995  0.37529999999999997  0.06406  1.0000
  O   O20       1.0  0.9875200000000002  0.8753  0.9359400000000002  1.0000
  V   V3        1.0  0.99769  0.6481799999999998  0.98811  1.0000
  V   V4        1.0  0.00231  0.14818  0.01189  1.0000
  N   N1        1.0  0.28485000000000005  0.13796  0.39768  1.0000
  O   O21       1.0  0.26927000000000006  0.3090499999999999  0.3752900000000001  1.0000
  O   O22       1.0  0.30316  0.08991999999999997  0.49167  1.0000
  N   N2        1.0  0.7096  0.6681399999999997  0.62316  1.0000
  O   O23       1.0  0.73106  0.8313899999999997  0.6546  1.0000
  O   O24       1.0  0.68481  0.64451  0.52765  1.0000
  F   F1        1.0  0.5719  0.8513899999999998  0.01157  1.0000
  F   F2        1.0  0.42829000000000006  0.3301899999999999  0.9891300000000002  1.0000
  N   N3        1.0  0.79644  0.6471899999999999  0.4256  1.0000
  O   O25       1.0  0.75487  0.51452  0.38783  1.0000
  O   O26       1.0  0.82472  0.64377  0.52124  1.0000
  N   N4        1.0  0.20864  0.56776  0.57356  1.0000
  O   O27       1.0  0.18513000000000002  0.55491  0.4768900000000001  1.0000
  O   O28       1.0  0.25131  0.69978  0.60841  1.0000
  F   F3        1.0  0.8172900000000001  0.8729499999999998  0.0066300000000000005  1.0000
  F   F4        1.0  0.18284  0.3188699999999999  0.99135  1.0000
