data_image0
_chemical_formula_structural       C76Cu4H36N4O44
_chemical_formula_sum              "C76 Cu4 H36 N4 O44"
_cell_length_a       14.49369
_cell_length_b       16.40139
_cell_length_c       9.73756
_cell_angle_alpha    89.42703
_cell_angle_beta     88.9183
_cell_angle_gamma    90.48492

_space_group_name_H-M_alt    "P 1"
_space_group_IT_number       1

loop_
  _space_group_symop_operation_xyz
  'x, y, z'

loop_
  _atom_site_type_symbol
  _atom_site_label
  _atom_site_symmetry_multiplicity
  _atom_site_fract_x
  _atom_site_fract_y
  _atom_site_fract_z
  _atom_site_occupancy
  C   C1        1.0  0.38478  0.87774  0.50195  1.0000
  C   C2        1.0  0.70354  0.23067  0.37458  1.0000
  C   C3        1.0  0.17796  0.25264  0.39961999999999986  1.0000
  C   C4        1.0  0.21431  0.72361  0.3726399999999999  1.0000
  C   C5        1.0  0.68991  0.81675  0.4930799999999999  1.0000
  C   C6        1.0  0.66156  0.20275  0.49671  1.0000
  C   C7        1.0  0.18698  0.31539  0.49618999999999996  1.0000
  C   C8        1.0  0.16477999999999998  0.70149  0.4933499999999999  1.0000
  C   C9        1.0  0.6663499999999998  0.03903  0.13534  1.0000
  C   C10       1.0  0.16742  0.50733  0.13913  1.0000
  C   C11       1.0  0.73146  0.08815  0.0657  1.0000
  C   C12       1.0  0.37706999999999996  0.1155  0.50087  1.0000
  C   C13       1.0  0.23497  0.56151  0.08802999999999997  1.0000
  C   C14       1.0  0.73089  0.08955  0.9221599999999999  1.0000
  C   C15       1.0  0.23395  0.57991  0.9471899999999999  1.0000
  C   C16       1.0  0.66396  0.04255  0.8563  1.0000
  C   C17       1.0  0.16719  0.54038  0.86587  1.0000
  C   C18       1.0  0.58052  0.01947  0.9243099999999999  1.0000
  C   C19       1.0  0.08174999999999998  0.51435  0.9264  1.0000
  C   C20       1.0  0.58109  0.01836  0.07214  1.0000
  C   C21       1.0  0.08159  0.50768  0.07335  1.0000
  C   C22       1.0  0.42217  0.98335  0.07477999999999999  1.0000
  C   C23       1.0  0.88327  0.3786800000000001  0.50178  1.0000
  C   C24       1.0  0.9203  0.4903600000000001  0.07472  1.0000
  C   C25       1.0  0.60978  0.12452  0.49881999999999993  1.0000
  C   C26       1.0  0.62149  0.8834  0.49881999999999993  1.0000
  C   C27       1.0  0.11076999999999997  0.62419  0.49817999999999996  1.0000
  C   C28       1.0  0.12095  0.38334  0.49921999999999994  1.0000
  C   C29       1.0  0.42206999999999995  0.98536  0.92832  1.0000
  C   C30       1.0  0.92099  0.49  0.92794  1.0000
  C   C31       1.0  0.32478  0.21624  0.75296  1.0000
  C   C32       1.0  0.29345  0.8058  0.76094  1.0000
  C   C33       1.0  0.80586  0.70022  0.7555699999999997  1.0000
  C   C34       1.0  0.8767199999999999  0.61506  0.50036  1.0000
  C   C35       1.0  0.79105  0.31088  0.7605399999999998  1.0000
  C   C36       1.0  0.34369  0.28218  0.83809  1.0000
  C   C37       1.0  0.23212000000000002  0.79908  0.8721699999999999  1.0000
  C   C38       1.0  0.823  0.76054  0.85196  1.0000
  C   C39       1.0  0.7295699999999999  0.30758  0.8708799999999999  1.0000
  C   C40       1.0  0.82781  0.84226  0.80933  1.0000
  C   C41       1.0  0.6415699999999999  0.2753300000000001  0.8579899999999999  1.0000
  C   C42       1.0  0.34397  0.36163  0.7833399999999998  1.0000
  C   C43       1.0  0.14084  0.77499  0.85364  1.0000
  C   C44       1.0  0.79506  0.86307  0.6777099999999999  1.0000
  C   C45       1.0  0.2477  0.19487  0.38794  1.0000
  C   C46       1.0  0.61485  0.24528999999999998  0.7307299999999999  1.0000
  C   C47       1.0  0.30053  0.37442  0.65485  1.0000
  C   C48       1.0  0.11396  0.74818  0.72413  1.0000
  C   C49       1.0  0.75066  0.80188  0.60147  1.0000
  C   C50       1.0  0.67953  0.24458  0.6187  1.0000
  C   C51       1.0  0.25629  0.30801  0.59416  1.0000
  C   C52       1.0  0.18051  0.74516  0.61444  1.0000
  C   C53       1.0  0.29333  0.23104  0.61893  1.0000
  C   C54       1.0  0.26519  0.78755  0.62685  1.0000
  C   C55       1.0  0.7828  0.72279  0.62057  1.0000
  C   C56       1.0  0.2962  0.76842  0.38118999999999986  1.0000
  C   C57       1.0  0.76329  0.28896  0.62806  1.0000
  C   C58       1.0  0.30387  0.17865  0.5038999999999999  1.0000
  C   C59       1.0  0.31908  0.80684  0.5061  1.0000
  C   C60       1.0  0.8026999999999999  0.6774  0.50038  1.0000
  C   C61       1.0  0.81424  0.31017  0.5052499999999999  1.0000
  C   C62       1.0  0.25826000000000005  0.15662000000000004  0.25242999999999993  1.0000
  C   C63       1.0  0.35975  0.76731  0.25982  1.0000
  C   C64       1.0  0.7912699999999998  0.67732  0.2378  1.0000
  C   C65       1.0  0.83414  0.28956  0.2477  1.0000
  C   C66       1.0  0.87329  0.90161  0.89988  1.0000
  C   C67       1.0  0.75919  0.70209  0.3762  1.0000
  C   C68       1.0  0.57956  0.27278  0.97988  1.0000
  C   C69       1.0  0.38896  0.42633  0.86445  1.0000
  C   C70       1.0  0.07348  0.77801  0.9693999999999999  1.0000
  C   C71       1.0  0.33221  0.96245  0.14202  1.0000
  C   C72       1.0  0.8273199999999999  0.47706  0.1406  1.0000
  C   C73       1.0  0.71167  0.98408  0.23144999999999993  1.0000
  C   C74       1.0  0.20726  0.42728  0.17524999999999996  1.0000
  C   C75       1.0  0.78432  0.27711  0.37927  1.0000
  C   C76       1.0  0.6908899999999999  0.76252  0.38161  1.0000
  Cu  Cu1       1.0  0.49999  8.461651637814397e-19  0.6406599999999998  1.0000
  Cu  Cu2       1.0  0.9999899999999998  0.5  0.6406599999999998  1.0000
  Cu  Cu3       1.0  0.50001  0.0  0.35934  1.0000
  Cu  Cu4       1.0  1.0000000000000231e-05  0.5  0.35934  1.0000
  H   H1        1.0  0.33445  0.15561  0.7937499999999997  1.0000
  H   H2        1.0  0.33302  0.76256  0.15721999999999994  1.0000
  H   H3        1.0  0.74579  0.6444800000000003  0.17018  1.0000
  H   H4        1.0  0.7961299999999999  0.30659  0.15957  1.0000
  H   H5        1.0  0.8605899999999999  0.12035000000000001  0.89271  1.0000
  H   H6        1.0  0.34246  0.65104  0.95366  1.0000
  H   H7        1.0  0.73537  0.038720000000000004  0.6881699999999998  1.0000
  H   H8        1.0  0.24455  0.54753  0.70413  1.0000
  H   H9        1.0  0.34231  0.9999000000000001  0.7736899999999999  1.0000
  H   H10       1.0  0.8437199999999998  0.49846  0.7685999999999997  1.0000
  H   H11       1.0  0.8873  0.8849  0.005559999999999999  1.0000
  H   H12       1.0  0.36403  0.82054  0.78408  1.0000
  H   H13       1.0  0.58769  0.31746  0.06033  1.0000
  H   H14       1.0  0.40678999999999993  0.41389  0.9703899999999999  1.0000
  H   H15       1.0  0.00993  0.74287  0.96635  1.0000
  H   H16       1.0  0.8113  0.93303  0.51576  1.0000
  H   H17       1.0  0.50684  0.23778  0.61794  1.0000
  H   H18       1.0  0.37675  0.46394  0.58774  1.0000
  H   H19       1.0  0.00765  0.74121  0.60663  1.0000
  H   H20       1.0  0.62498  0.7234  0.22224  1.0000
  H   H21       1.0  0.59741  0.21568  0.26088  1.0000
  H   H22       1.0  0.04929999999999999  0.26314  0.3689  1.0000
  H   H23       1.0  0.8113699999999999  0.6375  0.7876199999999999  1.0000
  H   H24       1.0  0.11599  0.70595  0.24583999999999998  1.0000
  H   H25       1.0  0.28592  0.92013  0.09389  1.0000
  H   H26       1.0  0.7733499999999999  0.44701000000000013  0.08445999999999998  1.0000
  H   H27       1.0  0.7359599999999997  0.006540000000000002  0.32887  1.0000
  H   H28       1.0  0.2673  0.42371  0.23997999999999997  1.0000
  H   H29       1.0  0.83218  0.16501  0.08627  1.0000
  H   H30       1.0  0.29984  0.56533  0.26038  1.0000
  H   H31       1.0  0.86079  0.32735  0.7846099999999999  1.0000
  H   H32       1.0  0.36688  0.2707  0.94124  1.0000
  H   H33       1.0  0.25604  0.81263  0.9732099999999998  1.0000
  H   H34       1.0  0.84336  0.7427800000000001  0.95379  1.0000
  H   H35       1.0  0.75089  0.33149  0.96637  1.0000
  H   H36       1.0  0.20092  0.12301  0.20963  1.0000
  N   N1        1.0  0.5012  0.0  0.14791  1.0000
  N   N2        1.0  0.0012000000000000001  0.5  0.14791  1.0000
  N   N3        1.0  0.50127  0.0  0.85204  1.0000
  N   N4        1.0  0.0012699999999999977  0.5  0.85204  1.0000
  O   O1        1.0  0.40982  0.90983  0.6188099999999999  1.0000
  O   O2        1.0  0.59017  0.90983  0.61876  1.0000
  O   O3        1.0  0.09017  0.59017  0.61876  1.0000
  O   O4        1.0  0.09017  0.40983  0.61876  1.0000
  O   O5        1.0  0.59019  0.09018  0.38118999999999986  1.0000
  O   O6        1.0  0.59019  0.90982  0.38118999999999986  1.0000
  O   O7        1.0  0.09019  0.59018  0.38118999999999986  1.0000
  O   O8        1.0  0.09019  0.40982  0.38118999999999986  1.0000
  O   O9        1.0  0.32769  0.16891  0.18205  1.0000
  O   O10       1.0  0.44307  0.76577  0.27402  1.0000
  O   O11       1.0  0.86791  0.69791  0.19558  1.0000
  O   O12       1.0  0.40982  0.09017000000000001  0.6188099999999999  1.0000
  O   O13       1.0  0.91623  0.27581  0.23503  1.0000
  O   O14       1.0  0.8018  0.12398  0.8433499999999999  1.0000
  O   O15       1.0  0.30415  0.62453  0.8834599999999999  1.0000
  O   O16       1.0  0.6896  0.00407  0.73871  1.0000
  O   O17       1.0  0.19426999999999997  0.51175  0.7408499999999998  1.0000
  O   O18       1.0  0.33828  0.9755000000000001  0.86591  1.0000
  O   O19       1.0  0.837  0.4824399999999999  0.86512  1.0000
  O   O20       1.0  0.89824  0.96855  0.8573999999999999  1.0000
  O   O21       1.0  0.52203  0.21854  0.9950699999999999  1.0000
  O   O22       1.0  0.40937  0.49276999999999993  0.81512  1.0000
  O   O23       1.0  0.90982  0.40983  0.6188099999999999  1.0000
  O   O24       1.0  0.08748  0.82119  0.06842  1.0000
  O   O25       1.0  0.8269799999999999  0.93376  0.61431  1.0000
  O   O26       1.0  0.52311  0.22614  0.71453  1.0000
  O   O27       1.0  0.31329  0.44336  0.57448  1.0000
  O   O28       1.0  0.02143  0.73225  0.70488  1.0000
  O   O29       1.0  0.63159  0.77467  0.274  1.0000
  O   O30       1.0  0.6655  0.21531  0.24878999999999998  1.0000
  O   O31       1.0  0.10412  0.24768000000000004  0.31343  1.0000
  O   O32       1.0  0.18421  0.70237  0.24447  1.0000
  O   O33       1.0  0.30478  0.9951700000000001  0.24600999999999998  1.0000
  O   O34       1.0  0.90982  0.59017  0.6188099999999999  1.0000
  O   O35       1.0  0.80577  0.5020400000000002  0.25329  1.0000
  O   O36       1.0  0.73111  0.91509  0.19584  1.0000
  O   O37       1.0  0.17584999999999995  0.36445  0.12782  1.0000
  O   O38       1.0  0.80486  0.11855  0.13826999999999998  1.0000
  O   O39       1.0  0.31227  0.58032  0.16274  1.0000
  O   O40       1.0  0.40984  0.90983  0.38124  1.0000
  O   O41       1.0  0.40984  0.09017000000000001  0.38124  1.0000
  O   O42       1.0  0.90984  0.40983  0.38124  1.0000
  O   O43       1.0  0.90984  0.59017  0.38124  1.0000
  O   O44       1.0  0.59017  0.09017000000000001  0.61876  1.0000
