data_image0
_chemical_formula_structural       O3CO2CO2VOCOCVOCHCHC2HCHC17H5C16H7CHCHC3HCO3CO2CO2VOCOCVOC3H7C3H7C3H7C3H7C3H7
_chemical_formula_sum              "O20 C67 V4 H54"
_cell_length_a       6.93892
_cell_length_b       17.48575
_cell_length_c       19.47443
_cell_angle_alpha    108.58381999999999
_cell_angle_beta     89.27917
_cell_angle_gamma    90.62607000000001

_symmetry_space_group_name_H-M    'P 1'
_symmetry_Int_Tables_number       1

loop_
  _symmetry_equiv_pos_as_xyz
  'x,y,z'

loop_
  _atom_site_type_symbol
  _atom_site_label
  _atom_site_symmetry_multiplicity
  _atom_site_fract_x
  _atom_site_fract_y
  _atom_site_fract_z
  _atom_site_occupancy
  O   O1        1.0  0.49433  0.41571  0.41372  1.0000
  O   O2        1.0  0.8193599999999999  0.43007  0.56021  1.0000
  O   O3        1.0  0.9943200000000002  0.58429  0.58628  1.0000
  C   C1        1.0  0.64972  0.41506999999999994  0.58182  1.0000
  O   O4        1.0  0.82374  0.4062899999999999  0.41267  1.0000
  O   O5        1.0  0.99873  0.56034  0.43768999999999997  1.0000
  C   C2        1.0  0.65525  0.38316  0.38487  1.0000
  O   O6        1.0  0.48992  0.43966  0.56231  1.0000
  O   O7        1.0  0.66233  0.55057  0.50838  1.0000
  V   V1        1.0  0.93537  0.49061999999999995  0.49843999999999994  1.0000
  O   O8        1.0  0.32872  0.5699299999999999  0.43978999999999996  1.0000
  C   C3        1.0  0.1607  0.58635  0.41941  1.0000
  O   O9        1.0  0.3243400000000001  0.5937099999999998  0.58733  1.0000
  C   C4        1.0  0.155  0.61697  0.61517  1.0000
  V   V2        1.0  0.43594  0.50938  0.50156  1.0000
  O   O10       1.0  0.15911000000000006  0.4494299999999999  0.49162  1.0000
  C   C5        1.0  0.31214  0.72343  0.7184299999999999  1.0000
  H   H1        1.0  0.45294  0.7038099999999998  0.6953299999999999  1.0000
  C   C6        1.0  0.3011  0.78724  0.7835499999999997  1.0000
  H   H2        1.0  0.43388  0.81499  0.8085499999999999  1.0000
  C   C7        1.0  0.12141000000000002  0.8147800000000001  0.81581  1.0000
  C   C8        1.0  0.95305  0.7769199999999999  0.78114  1.0000
  H   H3        1.0  0.81225  0.7965399999999998  0.80422  1.0000
  C   C9        1.0  0.9640899999999999  0.7131399999999998  0.71601  1.0000
  H   H4        1.0  0.8313  0.6854099999999999  0.691  1.0000
  C   C10       1.0  0.14379000000000003  0.68549  0.6838299999999999  1.0000
  C   C11       1.0  0.20489  0.6038699999999999  0.29917  1.0000
  C   C12       1.0  0.15411  0.63825  0.37217  1.0000
  C   C13       1.0  0.09384000000000002  0.72008  0.39835  1.0000
  C   C14       1.0  0.1196  0.76984  0.35273999999999994  1.0000
  C   C15       1.0  0.14912  0.73108  0.27709  1.0000
  C   C16       1.0  0.1904  0.6480499999999998  0.25083  1.0000
  C   C17       1.0  0.11972  0.8560899999999998  0.37844  1.0000
  C   C18       1.0  0.10183999999999996  0.8986300000000002  0.32854  1.0000
  C   C19       1.0  0.10638  0.8591399999999999  0.25387999999999994  1.0000
  C   C20       1.0  0.13929  0.77536  0.22752  1.0000
  C   C21       1.0  0.16360000000000002  0.7362299999999998  0.1518  1.0000
  C   C22       1.0  0.20322  0.65216  0.1264  1.0000
  C   C23       1.0  0.21859  0.60983  0.1765  1.0000
  C   C24       1.0  0.09142999999999997  0.9035699999999998  0.20547999999999997  1.0000
  C   C25       1.0  0.11162  0.86574  0.13079999999999997  1.0000
  C   C26       1.0  0.14904  0.78269  0.10422  1.0000
  H   H5        1.0  0.24531  0.54077  0.2792  1.0000
  H   H6        1.0  0.09815  0.964  0.34801  1.0000
  H   H7        1.0  0.06766  0.9681499999999998  0.22592999999999996  1.0000
  H   H8        1.0  0.1677  0.7555999999999998  0.04635999999999999  1.0000
  H   H9        1.0  0.25117  0.54591  0.15716  1.0000
  C   C27       1.0  0.77942  0.1862899999999999  0.8698399999999998  1.0000
  C   C28       1.0  0.62209  0.13486999999999996  0.8692299999999998  1.0000
  C   C29       1.0  0.46686  0.13240999999999994  0.82291  1.0000
  C   C30       1.0  0.46987  0.17873999999999995  0.77606  1.0000
  C   C31       1.0  0.62889  0.22991  0.77629  1.0000
  C   C32       1.0  0.7831  0.23590999999999995  0.82495  1.0000
  C   C33       1.0  0.31543  0.17495999999999995  0.72915  1.0000
  C   C34       1.0  0.31804  0.22114  0.6823  1.0000
  C   C35       1.0  0.47552  0.27173  0.68132  1.0000
  C   C36       1.0  0.6316499999999999  0.27599999999999997  0.7284199999999998  1.0000
  C   C37       1.0  0.79013  0.32660000000000006  0.72774  1.0000
  C   C38       1.0  0.9391400000000001  0.33445  0.77715  1.0000
  C   C39       1.0  0.93445  0.29222999999999993  0.8276299999999998  1.0000
  C   C40       1.0  0.47976  0.31816  0.63414  1.0000
  C   C41       1.0  0.64053  0.36712  0.63215  1.0000
  C   C42       1.0  0.79498  0.37077999999999983  0.6790799999999998  1.0000
  H   H10       1.0  0.89637  0.18782  0.90639  1.0000
  H   H11       1.0  0.34422  0.09331000000000002  0.82255  1.0000
  H   H12       1.0  0.19185  0.13644999999999993  0.72893  1.0000
  H   H13       1.0  0.19673  0.21723999999999993  0.6467999999999999  1.0000
  H   H14       1.0  0.35994000000000004  0.31506999999999996  0.5981299999999999  1.0000
  H   H15       1.0  0.91788  0.40954999999999986  0.67878  1.0000
  H   H16       1.0  0.05634000000000001  0.37639  0.7783  1.0000
  C   C43       1.0  0.75607  0.24633  0.3037  1.0000
  H   H17       1.0  0.85026  0.24045999999999998  0.34564  1.0000
  C   C44       1.0  0.74225  0.18265  0.2384  1.0000
  H   H18       1.0  0.82578  0.12869  0.23158  1.0000
  C   C45       1.0  0.62109  0.18779999999999994  0.18262  1.0000
  C   C46       1.0  0.51788  0.2603699999999999  0.19259  1.0000
  C   C47       1.0  0.5262  0.32223  0.25993  1.0000
  H   H19       1.0  0.44651  0.37747  0.26805999999999996  1.0000
  C   C48       1.0  0.64512  0.31592999999999993  0.31555  1.0000
  O   O11       1.0  0.77494  0.060469999999999996  0.9378  1.0000
  O   O12       1.0  0.44088  0.09372999999999997  0.08734999999999997  1.0000
  O   O13       1.0  0.26613  0.93963  0.062279999999999995  1.0000
  C   C49       1.0  0.60966  0.11779999999999999  0.11472999999999998  1.0000
  O   O14       1.0  0.44548  0.06995999999999993  0.93982  1.0000
  O   O15       1.0  0.27077  0.9156899999999999  0.91369  1.0000
  C   C50       1.0  0.61473  0.08511999999999999  0.91825  1.0000
  O   O16       1.0  0.7703000000000001  0.08441  0.08638  1.0000
  O   O17       1.0  0.6026000000000002  0.9495099999999997  0.9916699999999999  1.0000
  V   V3        1.0  0.32947  0.00937  0.00155  1.0000
  O   O18       1.0  0.94076  0.9061599999999999  0.91256  1.0000
  C   C51       1.0  0.11014000000000003  0.88311  0.8846399999999999  1.0000
  O   O19       1.0  0.93615  0.9299299999999999  0.0601  1.0000
  C   C52       1.0  0.104  0.9143499999999997  0.08112999999999998  1.0000
  V   V4        1.0  0.82893  0.9904499999999999  0.99831  1.0000
  O   O20       1.0  0.10567000000000001  0.05049  0.00832  1.0000
  C   C53       1.0  0.22977  0.60495  0.04681  1.0000
  C   C54       1.0  0.43432  0.61569  0.020409999999999998  1.0000
  C   C55       1.0  0.46098  0.56699  0.9405499999999999  1.0000
  H   H20       1.0  0.43413  0.50183  0.9319199999999999  1.0000
  H   H21       1.0  0.36005  0.5882399999999998  0.9067799999999999  1.0000
  H   H22       1.0  0.61093  0.5746999999999998  0.9231199999999999  1.0000
  H   H23       1.0  0.46419  0.6803199999999998  0.02769  1.0000
  H   H24       1.0  0.54062  0.5948299999999997  0.05272  1.0000
  H   H25       1.0  0.20513  0.5396  0.03805  1.0000
  H   H26       1.0  0.1197  0.62238  0.01376  1.0000
  C   C56       1.0  0.08222  0.31542999999999993  0.8875  1.0000
  C   C57       1.0  0.99213  0.36474  0.96078  1.0000
  C   C58       1.0  0.88106  0.43841999999999987  0.9570599999999999  1.0000
  H   H27       1.0  0.97291  0.47577  0.9329  1.0000
  H   H28       1.0  0.74906  0.4194  0.92416  1.0000
  H   H29       1.0  0.8367  0.47568999999999995  0.012519999999999998  1.0000
  H   H30       1.0  0.89581  0.32602  0.9815599999999999  1.0000
  H   H31       1.0  0.1081  0.3865699999999999  0.00088  1.0000
  H   H32       1.0  0.15227  0.26048999999999983  0.8917799999999999  1.0000
  H   H33       1.0  0.20065999999999995  0.3521  0.87446  1.0000
  C   C59       1.0  0.41424  0.27721  0.13106  1.0000
  C   C60       1.0  0.55952  0.28801  0.07455  1.0000
  C   C61       1.0  0.45937  0.3157999999999999  0.01773  1.0000
  H   H34       1.0  0.33638  0.27495999999999987  0.99493  1.0000
  H   H35       1.0  0.40861  0.37863  0.04273  1.0000
  H   H36       1.0  0.56035  0.3146099999999999  0.97293  1.0000
  H   H37       1.0  0.67065  0.33366  0.10151999999999999  1.0000
  H   H38       1.0  0.6335  0.23027  0.04692  1.0000
  H   H39       1.0  0.30959  0.22827  0.10566999999999999  1.0000
  H   H40       1.0  0.32813  0.33335  0.15204  1.0000
  C   C62       1.0  0.9653900000000001  0.74583  0.46597999999999995  1.0000
  C   C63       1.0  0.7555400000000001  0.71744  0.44855999999999996  1.0000
  C   C64       1.0  0.65151  0.7652699999999997  0.407  1.0000
  H   H41       1.0  0.6528  0.8306699999999998  0.43795  1.0000
  H   H42       1.0  0.71922  0.7553899999999998  0.35297  1.0000
  H   H43       1.0  0.49971000000000004  0.74454  0.3987399999999999  1.0000
  H   H44       1.0  0.7491300000000001  0.6524699999999998  0.4164299999999999  1.0000
  H   H45       1.0  0.67633  0.72525  0.5003  1.0000
  H   H46       1.0  0.021609999999999997  0.7208999999999998  0.50752  1.0000
  H   H47       1.0  0.96153  0.81107  0.4932599999999999  1.0000
  C   C65       1.0  0.18679  0.9051099999999999  0.45374999999999993  1.0000
  C   C66       1.0  0.034609999999999995  0.9658499999999999  0.49627  1.0000
  C   C67       1.0  0.0923  0.003920000000000011  0.57532  1.0000
  H   H48       1.0  0.10141  0.95695  0.60238  1.0000
  H   H49       1.0  0.23402  0.035040000000000016  0.57879  1.0000
  H   H50       1.0  0.98269  0.048889999999999996  0.60421  1.0000
  H   H51       1.0  0.019259999999999996  0.01478999999999998  0.47179  1.0000
  H   H52       1.0  0.8915  0.93634  0.49418999999999996  1.0000
  H   H53       1.0  0.23633000000000004  0.8658599999999999  0.48483999999999994  1.0000
  H   H54       1.0  0.31814  0.9395799999999999  0.44774  1.0000
