data_image0
_chemical_formula_structural       C120Cr12H140O52Br4
_chemical_formula_sum              "C120 Cr12 H140 O52 Br4"
_cell_length_a       19.7761
_cell_length_b       11.2912
_cell_length_c       18.706570000000003
_cell_angle_alpha    89.95937000000002
_cell_angle_beta     90.79913
_cell_angle_gamma    90.00786

_symmetry_space_group_name_H-M    'P 1'
_symmetry_Int_Tables_number       1

loop_
  _symmetry_equiv_pos_as_xyz
  'x,y,z'

loop_
  _atom_site_type_symbol
  _atom_site_label
  _atom_site_symmetry_multiplicity
  _atom_site_fract_x
  _atom_site_fract_y
  _atom_site_fract_z
  _atom_site_occupancy
  C   C1        1.0  0.76174  0.52282  0.63876  1.0000
  C   C2        1.0  0.23824999999999996  0.52272  0.36125  1.0000
  C   C3        1.0  0.26174  0.022820000000000003  0.63876  1.0000
  C   C4        1.0  0.73825  0.02272  0.36125  1.0000
  C   C5        1.0  0.80631  0.13153  0.45234  1.0000
  C   C6        1.0  0.19371  0.13162  0.54758  1.0000
  C   C7        1.0  0.30631  0.63153  0.45234  1.0000
  C   C8        1.0  0.6937099999999999  0.63163  0.54758  1.0000
  C   C9        1.0  0.74485  0.05499  0.43788000000000005  1.0000
  C   C10       1.0  0.25516  0.05509  0.56213  1.0000
  C   C11       1.0  0.24485000000000004  0.55499  0.43788000000000005  1.0000
  C   C12       1.0  0.75516  0.55509  0.56213  1.0000
  C   C13       1.0  0.7563  0.08711  0.57603  1.0000
  C   C14       1.0  0.24371  0.08709  0.42396  1.0000
  C   C15       1.0  0.2563  0.58711  0.57603  1.0000
  C   C16       1.0  0.74371  0.58709  0.42396  1.0000
  C   C17       1.0  0.75018  0.95456  0.56278  1.0000
  C   C18       1.0  0.24983  0.95456  0.43735  1.0000
  C   C19       1.0  0.25018  0.45456  0.56278  1.0000
  C   C20       1.0  0.74983  0.45456  0.43735  1.0000
  C   C21       1.0  0.8177999999999999  0.13187  0.53333  1.0000
  C   C22       1.0  0.18222  0.13189  0.46659000000000006  1.0000
  C   C23       1.0  0.3178  0.63187  0.53333  1.0000
  C   C24       1.0  0.68222  0.63189  0.46659000000000006  1.0000
  C   C25       1.0  0.013980000000000001  0.20115999999999998  0.46223999999999993  1.0000
  C   C26       1.0  0.98609  0.20119  0.53795  1.0000
  C   C27       1.0  0.51398  0.70116  0.46223999999999993  1.0000
  C   C28       1.0  0.48608999999999997  0.70119  0.53795  1.0000
  C   C29       1.0  0.06392  0.4048900000000001  0.47611  1.0000
  C   C30       1.0  0.93608  0.40486000000000005  0.52384  1.0000
  C   C31       1.0  0.56392  0.9048899999999999  0.47611  1.0000
  C   C32       1.0  0.43607999999999997  0.90486  0.52384  1.0000
  C   C33       1.0  0.9417600000000002  0.38083  0.44328  1.0000
  C   C34       1.0  0.05824000000000001  0.38098000000000004  0.5567  1.0000
  C   C35       1.0  0.44176000000000004  0.8808400000000001  0.44328  1.0000
  C   C36       1.0  0.55824  0.88098  0.5567  1.0000
  C   C37       1.0  0.01217  0.3294  0.43116  1.0000
  C   C38       1.0  0.9878400000000002  0.32948  0.56887  1.0000
  C   C39       1.0  0.51217  0.8294000000000001  0.43116  1.0000
  C   C40       1.0  0.48784000000000005  0.82948  0.56887  1.0000
  C   C41       1.0  0.81805  0.02489  0.04704  1.0000
  C   C42       1.0  0.18751  0.010830000000000003  0.95551  1.0000
  C   C43       1.0  0.31958  0.53042  0.04878  1.0000
  C   C44       1.0  0.68173  0.52408  0.95294  1.0000
  C   C45       1.0  0.77257  0.11826  0.65101  1.0000
  C   C46       1.0  0.22744999999999999  0.1182  0.34897  1.0000
  C   C47       1.0  0.27257000000000003  0.61826  0.65101  1.0000
  C   C48       1.0  0.72744  0.6182  0.34897  1.0000
  C   C49       1.0  0.8178699999999999  0.021289999999999996  0.96633  1.0000
  C   C50       1.0  0.185  0.01613  0.03568  1.0000
  C   C51       1.0  0.32235  0.53617  0.96851  1.0000
  C   C52       1.0  0.68167  0.52156  0.03373  1.0000
  C   C53       1.0  0.69014  0.01507  0.02937  1.0000
  C   C54       1.0  0.31806  0.03344  0.9706900000000002  1.0000
  C   C55       1.0  0.19291  0.51301  0.030679999999999995  1.0000
  C   C56       1.0  0.80934  0.51532  0.97028  1.0000
  C   C57       1.0  0.74346  0.20159  0.060759999999999995  1.0000
  C   C58       1.0  0.24595  0.20009000000000002  0.93782  1.0000
  C   C59       1.0  0.24478000000000003  0.70459  0.06111  1.0000
  C   C60       1.0  0.75576  0.70164  0.93887  1.0000
  C   C61       1.0  0.74785  0.06992  0.07477  1.0000
  C   C62       1.0  0.25364  0.06794  0.9260899999999999  1.0000
  C   C63       1.0  0.24929  0.5727  0.07558  1.0000
  C   C64       1.0  0.75169  0.56994  0.92502  1.0000
  C   C65       1.0  0.76098  0.10371999999999999  0.9358799999999999  1.0000
  C   C66       1.0  0.23989000000000002  0.10219  0.06472  1.0000
  C   C67       1.0  0.26129  0.6058  0.93643  1.0000
  C   C68       1.0  0.73866  0.60385  0.06393  1.0000
  C   C69       1.0  0.69388  0.04236  0.9483300000000001  1.0000
  C   C70       1.0  0.3082  0.04424999999999999  0.052489999999999995  1.0000
  C   C71       1.0  0.20009  0.52699  0.9484999999999999  1.0000
  C   C72       1.0  0.80586  0.54287  0.05125  1.0000
  C   C73       1.0  0.75894  0.21908  0.9806000000000001  1.0000
  C   C74       1.0  0.23839  0.21762000000000004  0.01954  1.0000
  C   C75       1.0  0.24608999999999998  0.72222  0.97887  1.0000
  C   C76       1.0  0.74028  0.71923  0.01898  1.0000
  C   C77       1.0  0.9986100000000001  0.48135000000000006  0.04065  1.0000
  C   C78       1.0  0.0004400000000000001  0.48147  0.95945  1.0000
  C   C79       1.0  0.49471  0.98001  0.04243  1.0000
  C   C80       1.0  0.49185  0.9802100000000001  0.9615499999999999  1.0000
  C   C81       1.0  0.06665  0.29215  0.02751  1.0000
  C   C82       1.0  0.93375  0.29007  0.9718999999999999  1.0000
  C   C83       1.0  0.56628  0.7948600000000001  0.028639999999999995  1.0000
  C   C84       1.0  0.43736  0.77094  0.9727699999999999  1.0000
  C   C85       1.0  0.9461099999999999  0.28223  0.05337  1.0000
  C   C86       1.0  0.05433  0.28371  0.9461499999999999  1.0000
  C   C87       1.0  0.44493000000000005  0.7798000000000002  0.05481  1.0000
  C   C88       1.0  0.55724  0.7983500000000001  0.94634  1.0000
  C   C89       1.0  0.9677099999999998  0.34164  0.64443  1.0000
  C   C90       1.0  0.0323  0.34159  0.35558  1.0000
  C   C91       1.0  0.46770999999999996  0.84164  0.64443  1.0000
  C   C92       1.0  0.5323  0.8415899999999998  0.35557  1.0000
  C   C93       1.0  0.00957  0.35261  0.06952  1.0000
  C   C94       1.0  0.9903  0.35253  0.93026  1.0000
  C   C95       1.0  0.50799  0.8523  0.07055  1.0000
  C   C96       1.0  0.48802999999999996  0.85174  0.9315200000000001  1.0000
  C   C97       1.0  0.76059  0.53391  0.84865  1.0000
  C   C98       1.0  0.24001999999999998  0.53598  0.1521  1.0000
  C   C99       1.0  0.26138  0.0321  0.84951  1.0000
  C   C100      1.0  0.73926  0.03372  0.1512  1.0000
  C   C101      1.0  0.77485  0.13321000000000005  0.85902  1.0000
  C   C102      1.0  0.22561  0.13215  0.14144  1.0000
  C   C103      1.0  0.2749  0.63365  0.8592099999999999  1.0000
  C   C104      1.0  0.72506  0.63337  0.14088  1.0000
  C   C105      1.0  0.96928  0.35338  0.85356  1.0000
  C   C106      1.0  0.0308  0.3534  0.1463  1.0000
  C   C107      1.0  0.46790000000000004  0.8533500000000002  0.8545  1.0000
  C   C108      1.0  0.52972  0.85325  0.1471  1.0000
  C   C109      1.0  0.68433  0.12864  0.46565000000000006  1.0000
  C   C110      1.0  0.31571  0.12869  0.5343  1.0000
  C   C111      1.0  0.18433  0.62864  0.46565000000000006  1.0000
  C   C112      1.0  0.81571  0.62869  0.5343  1.0000
  C   C113      1.0  0.68928  0.14255  0.54725  1.0000
  C   C114      1.0  0.31075000000000014  0.14258  0.45269  1.0000
  C   C115      1.0  0.18928  0.64255  0.54725  1.0000
  C   C116      1.0  0.81075  0.64258  0.45269  1.0000
  C   C117      1.0  0.75509  0.93712  0.48136999999999996  1.0000
  C   C118      1.0  0.24491  0.93718  0.51877  1.0000
  C   C119      1.0  0.25509  0.43712000000000006  0.48136999999999996  1.0000
  C   C120      1.0  0.74491  0.43718  0.51877  1.0000
  Cr  Cr1       1.0  0.8856899999999999  0.49286  0.74531  1.0000
  Cr  Cr2       1.0  0.11431  0.49286  0.25469  1.0000
  Cr  Cr3       1.0  0.38569  0.99286  0.74531  1.0000
  Cr  Cr4       1.0  0.61431  0.99286  0.25469  1.0000
  Cr  Cr5       1.0  0.72988  0.33227  0.74819  1.0000
  Cr  Cr6       1.0  0.27012  0.33227  0.25181  1.0000
  Cr  Cr7       1.0  0.22987999999999997  0.83227  0.74819  1.0000
  Cr  Cr8       1.0  0.77012  0.83227  0.25181  1.0000
  Cr  Cr9       1.0  0.88812  0.17859  0.75301  1.0000
  Cr  Cr10      1.0  0.11187999999999998  0.17859  0.24698999999999996  1.0000
  Cr  Cr11      1.0  0.38812  0.67859  0.75301  1.0000
  Cr  Cr12      1.0  0.61188  0.67859  0.24698999999999996  1.0000
  H   H1        1.0  0.63625  0.09054000000000001  0.44948999999999995  1.0000
  H   H2        1.0  0.36378  0.09054000000000001  0.55049  1.0000
  H   H3        1.0  0.13625  0.59054  0.44948999999999995  1.0000
  H   H4        1.0  0.86378  0.59054  0.55049  1.0000
  H   H5        1.0  0.85847  0.06602  0.54474  1.0000
  H   H6        1.0  0.14153  0.06605  0.45524  1.0000
  H   H7        1.0  0.35847  0.56602  0.54474  1.0000
  H   H8        1.0  0.64153  0.56605  0.45524  1.0000
  H   H9        1.0  0.80754  0.9076600000000001  0.47170000000000006  1.0000
  H   H10       1.0  0.19243  0.90779  0.52846  1.0000
  H   H11       1.0  0.30754  0.40766  0.47170000000000006  1.0000
  H   H12       1.0  0.69243  0.40779000000000004  0.52846  1.0000
  H   H13       1.0  0.79138  0.90571  0.59102  1.0000
  H   H14       1.0  0.20862999999999998  0.9056900000000001  0.40915  1.0000
  H   H15       1.0  0.29138  0.40571000000000007  0.59102  1.0000
  H   H16       1.0  0.70863  0.40569  0.40915  1.0000
  H   H17       1.0  0.06519  0.17977  0.4702  1.0000
  H   H18       1.0  0.93489  0.17968000000000003  0.53007  1.0000
  H   H19       1.0  0.56519  0.67976  0.47019000000000005  1.0000
  H   H20       1.0  0.43488999999999994  0.67968  0.53007  1.0000
  H   H21       1.0  0.61588  0.89117  0.45852  1.0000
  H   H22       1.0  0.38412  0.89114  0.54144  1.0000
  H   H23       1.0  0.11588  0.39117  0.45852999999999994  1.0000
  H   H24       1.0  0.8841199999999999  0.39114  0.54144  1.0000
  H   H25       1.0  0.59742  0.8174399999999999  0.57521  1.0000
  H   H26       1.0  0.4026  0.8172200000000001  0.42487  1.0000
  H   H27       1.0  0.09742  0.31744  0.57521  1.0000
  H   H28       1.0  0.9026  0.31722  0.42487  1.0000
  H   H29       1.0  0.9345900000000001  0.46440000000000003  0.4129  1.0000
  H   H30       1.0  0.06536  0.4646  0.58697  1.0000
  H   H31       1.0  0.43459000000000003  0.9644000000000001  0.4129  1.0000
  H   H32       1.0  0.56536  0.9646000000000001  0.58697  1.0000
  H   H33       1.0  0.9499900000000001  0.49893000000000004  0.5322  1.0000
  H   H34       1.0  0.04999  0.49893000000000004  0.46762  1.0000
  H   H35       1.0  0.44999  0.99893  0.5322  1.0000
  H   H36       1.0  0.54999  0.99893  0.46762  1.0000
  H   H37       1.0  0.8338399999999999  0.93606  0.06563  1.0000
  H   H38       1.0  0.1797  0.91953  0.9388600000000001  1.0000
  H   H39       1.0  0.33277  0.4385  0.06406  1.0000
  H   H40       1.0  0.66627  0.43507  0.9346  1.0000
  H   H41       1.0  0.68355  0.21739  0.44031999999999993  1.0000
  H   H42       1.0  0.31651  0.21745  0.55955  1.0000
  H   H43       1.0  0.18355  0.7173900000000001  0.44031999999999993  1.0000
  H   H44       1.0  0.81651  0.7174500000000001  0.55955  1.0000
  H   H45       1.0  0.8581800000000002  0.08529  0.06688  1.0000
  H   H46       1.0  0.1428  0.05806000000000001  0.93259  1.0000
  H   H47       1.0  0.35954  0.58598  0.07322  1.0000
  H   H48       1.0  0.64139  0.58327  0.9326600000000002  1.0000
  H   H49       1.0  0.86951  0.04267  0.9491099999999999  1.0000
  H   H50       1.0  0.1328  0.04072  0.04986  1.0000
  H   H51       1.0  0.37096  0.57168  0.95341  1.0000
  H   H52       1.0  0.63011  0.54461  0.05063  1.0000
  H   H53       1.0  0.80898  0.92979  0.9473699999999999  1.0000
  H   H54       1.0  0.19306  0.9275  0.059000000000000004  1.0000
  H   H55       1.0  0.32271  0.4446800000000001  0.94646  1.0000
  H   H56       1.0  0.69017  0.43023999999999996  0.05331  1.0000
  H   H57       1.0  0.69861  0.9232000000000001  0.03677  1.0000
  H   H58       1.0  0.33831  0.94772  0.9555  1.0000
  H   H59       1.0  0.19899  0.4224200000000001  0.04532  1.0000
  H   H60       1.0  0.80131  0.42333  0.96255  1.0000
  H   H61       1.0  0.69111  0.95986  0.91633  1.0000
  H   H62       1.0  0.31064  0.9561  0.07847  1.0000
  H   H63       1.0  0.20623  0.43975  0.9222700000000001  1.0000
  H   H64       1.0  0.81025  0.46038  0.08335  1.0000
  H   H65       1.0  0.69186  0.23417000000000002  0.07305  1.0000
  H   H66       1.0  0.29052  0.24944000000000002  0.9178499999999999  1.0000
  H   H67       1.0  0.19678  0.7385500000000002  0.08346  1.0000
  H   H68       1.0  0.80727  0.73461  0.92644  1.0000
  H   H69       1.0  0.78023  0.25069  0.09513  1.0000
  H   H70       1.0  0.20118  0.2339  0.90779  1.0000
  H   H71       1.0  0.2873  0.75211  0.08761  1.0000
  H   H72       1.0  0.71879  0.7502900000000001  0.9044299999999998  1.0000
  H   H73       1.0  0.8099400000000001  0.249  0.9799  1.0000
  H   H74       1.0  0.18849  0.24892  0.0267  1.0000
  H   H75       1.0  0.27923  0.7948500000000001  0.96423  1.0000
  H   H76       1.0  0.68911  0.74877  0.0193  1.0000
  H   H77       1.0  0.72317  0.28224  0.95649  1.0000
  H   H78       1.0  0.27703  0.28009  0.03957  1.0000
  H   H79       1.0  0.19414  0.74762  0.9631299999999999  1.0000
  H   H80       1.0  0.77594  0.7828600000000001  0.04295  1.0000
  H   H81       1.0  0.64047  0.04163  0.04992  1.0000
  H   H82       1.0  0.35674  0.09972  0.95693  1.0000
  H   H83       1.0  0.14316  0.5465  0.04714  1.0000
  H   H84       1.0  0.8585799999999999  0.54258  0.94951  1.0000
  H   H85       1.0  0.6848  0.23563  0.56211  1.0000
  H   H86       1.0  0.31522  0.23568  0.43776  1.0000
  H   H87       1.0  0.1848  0.7356299999999999  0.56211  1.0000
  H   H88       1.0  0.81522  0.7356799999999999  0.43776  1.0000
  H   H89       1.0  0.65119  0.10066000000000001  0.93154  1.0000
  H   H90       1.0  0.34834  0.10084999999999998  0.07673  1.0000
  H   H91       1.0  0.15442  0.56873  0.9245199999999999  1.0000
  H   H92       1.0  0.8477900000000002  0.60307  0.06747  1.0000
  H   H93       1.0  0.03632  0.54634  0.06018  1.0000
  H   H94       1.0  0.96333  0.5469  0.93962  1.0000
  H   H95       1.0  0.53334  0.04517999999999999  0.05953  1.0000
  H   H96       1.0  0.45067  0.03647  0.94298  1.0000
  H   H97       1.0  0.9492  0.5149  0.05897999999999999  1.0000
  H   H98       1.0  0.04968000000000001  0.51585  0.94145  1.0000
  H   H99       1.0  0.44671  0.01324  0.06415  1.0000
  H   H100      1.0  0.53774  0.02511  0.94093  1.0000
  H   H101      1.0  0.60891  0.84608  0.04517999999999999  1.0000
  H   H102      1.0  0.38512  0.78224  0.95469  1.0000
  H   H103      1.0  0.10739  0.35187  0.03635  1.0000
  H   H104      1.0  0.8916599999999999  0.3463  0.9612900000000001  1.0000
  H   H105      1.0  0.59771  0.85058  0.9209499999999999  1.0000
  H   H106      1.0  0.39976  0.8213999999999999  0.07855  1.0000
  H   H107      1.0  0.0973  0.32225  0.91647  1.0000
  H   H108      1.0  0.90226  0.31782  0.083  1.0000
  H   H109      1.0  0.9540499999999998  0.18856  0.06974  1.0000
  H   H110      1.0  0.04841  0.1896  0.92968  1.0000
  H   H111      1.0  0.45146  0.69034  0.07859  1.0000
  H   H112      1.0  0.55938  0.7080399999999999  0.92345  1.0000
  H   H113      1.0  0.92461  0.20071000000000003  0.9505499999999999  1.0000
  H   H114      1.0  0.07794  0.20337  0.04917  1.0000
  H   H115      1.0  0.4517399999999999  0.67936  0.95876  1.0000
  H   H116      1.0  0.57294  0.70216  0.04575  1.0000
  H   H117      1.0  0.64534  0.09967  0.57255  1.0000
  H   H118      1.0  0.35469  0.09972  0.42743  1.0000
  H   H119      1.0  0.14534  0.59967  0.57255  1.0000
  H   H120      1.0  0.8546900000000001  0.59972  0.42743  1.0000
  H   H121      1.0  0.72171  0.86752  0.46273  1.0000
  H   H122      1.0  0.27825  0.86758  0.53752  1.0000
  H   H123      1.0  0.22171  0.36752  0.46273  1.0000
  H   H124      1.0  0.77825  0.3675800000000001  0.53752  1.0000
  H   H125      1.0  0.70149  0.92078  0.58313  1.0000
  H   H126      1.0  0.29853  0.9207700000000001  0.41706  1.0000
  H   H127      1.0  0.20149  0.42078  0.58313  1.0000
  H   H128      1.0  0.79853  0.4207699999999999  0.41706  1.0000
  H   H129      1.0  0.8502799999999999  0.09411  0.4254  1.0000
  H   H130      1.0  0.14974  0.09423  0.57455  1.0000
  H   H131      1.0  0.35028  0.59411  0.4254  1.0000
  H   H132      1.0  0.64974  0.59423  0.57455  1.0000
  H   H133      1.0  0.79898  0.22223  0.43141999999999997  1.0000
  H   H134      1.0  0.20105  0.22234000000000004  0.56839  1.0000
  H   H135      1.0  0.29899  0.72223  0.43141999999999997  1.0000
  H   H136      1.0  0.70105  0.72234  0.56839  1.0000
  H   H137      1.0  0.83462  0.2187  0.55254  1.0000
  H   H138      1.0  0.1654  0.2187  0.44725999999999994  1.0000
  H   H139      1.0  0.33462  0.7187  0.55253  1.0000
  H   H140      1.0  0.6654  0.7187  0.44725999999999994  1.0000
  O   O1        1.0  0.95721  0.44941000000000003  0.66548  1.0000
  O   O2        1.0  0.04279  0.44941000000000003  0.33452  1.0000
  O   O3        1.0  0.45721  0.94941  0.66548  1.0000
  O   O4        1.0  0.54279  0.94941  0.33452  1.0000
  O   O5        1.0  0.73626  0.21201  0.82656  1.0000
  O   O6        1.0  0.26374  0.21201  0.17344  1.0000
  O   O7        1.0  0.23626  0.71201  0.82656  1.0000
  O   O8        1.0  0.76374  0.71201  0.17344  1.0000
  O   O9        1.0  0.83252  0.0953  0.836  1.0000
  O   O10       1.0  0.16748  0.0953  0.164  1.0000
  O   O11       1.0  0.33252  0.5953  0.836  1.0000
  O   O12       1.0  0.66748  0.5953  0.164  1.0000
  O   O13       1.0  0.94638  0.25394  0.82694  1.0000
  O   O14       1.0  0.05362  0.25394  0.17306  1.0000
  O   O15       1.0  0.44638  0.7539400000000002  0.82694  1.0000
  O   O16       1.0  0.55362  0.7539400000000002  0.17306  1.0000
  O   O17       1.0  0.83456  0.33457  0.74884  1.0000
  O   O18       1.0  0.16544  0.33457  0.25116  1.0000
  O   O19       1.0  0.33456  0.8345699999999999  0.74884  1.0000
  O   O20       1.0  0.66544  0.8345699999999999  0.25116  1.0000
  O   O21       1.0  0.82073  0.54124  0.66825  1.0000
  O   O22       1.0  0.17927  0.54124  0.33175  1.0000
  O   O23       1.0  0.32073  0.04124  0.66825  1.0000
  O   O24       1.0  0.67927  0.04124  0.33175  1.0000
  O   O25       1.0  0.71424  0.45506  0.66371  1.0000
  O   O26       1.0  0.28576  0.45506  0.33629  1.0000
  O   O27       1.0  0.21424  0.95506  0.66371  1.0000
  O   O28       1.0  0.78576  0.95506  0.33629  1.0000
  O   O29       1.0  0.73678  0.20487  0.67591  1.0000
  O   O30       1.0  0.26322  0.20487  0.32409  1.0000
  O   O31       1.0  0.23678  0.70487  0.67591  1.0000
  O   O32       1.0  0.76322  0.70487  0.32409  1.0000
  O   O33       1.0  0.83307  0.08759  0.67349  1.0000
  O   O34       1.0  0.16693  0.08759  0.32651  1.0000
  O   O35       1.0  0.33307  0.58759  0.67349  1.0000
  O   O36       1.0  0.66693  0.58759  0.32651  1.0000
  O   O37       1.0  0.94689  0.2468  0.6763  1.0000
  O   O38       1.0  0.053110000000000004  0.2468  0.3237  1.0000
  O   O39       1.0  0.44689  0.7468000000000001  0.6763  1.0000
  O   O40       1.0  0.55311  0.7468000000000001  0.3237  1.0000
  O   O41       1.0  0.9566499999999999  0.45712  0.82798  1.0000
  O   O42       1.0  0.04335  0.45712  0.17202  1.0000
  O   O43       1.0  0.45665  0.95712  0.82798  1.0000
  O   O44       1.0  0.54335  0.95712  0.17202  1.0000
  O   O45       1.0  0.82022  0.54839  0.81889  1.0000
  O   O46       1.0  0.17978  0.54839  0.18111  1.0000
  O   O47       1.0  0.32022  0.04839000000000001  0.81889  1.0000
  O   O48       1.0  0.67978  0.04839000000000001  0.18111  1.0000
  O   O49       1.0  0.71368  0.46277  0.82621  1.0000
  O   O50       1.0  0.28632  0.46277  0.17378999999999997  1.0000
  O   O51       1.0  0.21368  0.96277  0.82621  1.0000
  O   O52       1.0  0.78632  0.96277  0.17378999999999997  1.0000
  Br  Br1       1.0  0.97903  0.0716  0.40327  1.0000
  Br  Br2       1.0  0.0211  0.07172  0.59708  1.0000
  Br  Br3       1.0  0.47902  0.5716  0.40327  1.0000
  Br  Br4       1.0  0.5211  0.57172  0.59708  1.0000
