data_image0
_chemical_formula_structural       C20Cu2H8N2O8CH3CH3CH3CH3CH3CH3
_chemical_formula_sum              "C26 Cu2 H26 N2 O8"
_cell_length_a       17.07836
_cell_length_b       8.673479999999998
_cell_length_c       7.44341
_cell_angle_alpha    103.10326000000002
_cell_angle_beta     89.15251
_cell_angle_gamma    92.71721

_symmetry_space_group_name_H-M    'P 1'
_symmetry_Int_Tables_number       1

loop_
  _symmetry_equiv_pos_as_xyz
  'x,y,z'

loop_
  _atom_site_type_symbol
  _atom_site_label
  _atom_site_symmetry_multiplicity
  _atom_site_fract_x
  _atom_site_fract_y
  _atom_site_fract_z
  _atom_site_occupancy
  C   C1        1.0  0.49759  0.19976000000000002  0.4535900000000001  1.0000
  C   C2        1.0  0.50241  0.80024  0.54641  1.0000
  C   C3        1.0  0.49645  0.031740000000000025  0.4275400000000001  1.0000
  C   C4        1.0  0.50355  0.96826  0.5724600000000002  1.0000
  C   C5        1.0  0.3512  0.50234  0.52809  1.0000
  C   C6        1.0  0.6488  0.49765  0.4719100000000001  1.0000
  C   C7        1.0  0.26653  0.50514  0.55327  1.0000
  C   C8        1.0  0.73347  0.49472  0.44672  1.0000
  C   C9        1.0  0.22113  0.36099  0.52606  1.0000
  C   C10       1.0  0.7789  0.6388  0.4736300000000001  1.0000
  C   C11       1.0  0.13869  0.3658100000000001  0.5487  1.0000
  C   C12       1.0  0.86134  0.63383  0.45102000000000003  1.0000
  C   C13       1.0  0.10396  0.51504  0.5882700000000002  1.0000
  C   C14       1.0  0.89603  0.48453  0.41176  1.0000
  C   C15       1.0  0.15021  0.6554  0.6231100000000003  1.0000
  C   C16       1.0  0.84974  0.34422999999999987  0.37723000000000007  1.0000
  C   C17       1.0  0.23138000000000003  0.6523  0.60652  1.0000
  C   C18       1.0  0.76857  0.34746  0.3938  1.0000
  C   C19       1.0  0.019249999999999996  0.53078  0.5784400000000001  1.0000
  C   C20       1.0  0.98073  0.46873  0.42159000000000013  1.0000
  Cu  Cu1       1.0  0.5087  0.51725  0.683  1.0000
  Cu  Cu2       1.0  0.49129999999999996  0.48275  0.317  1.0000
  H   H1        1.0  0.010259999999999998  0.3939  0.30589000000000005  1.0000
  H   H2        1.0  0.9897100000000001  0.60564  0.6941100000000002  1.0000
  H   H3        1.0  0.12229999999999999  0.76824  0.65579  1.0000
  H   H4        1.0  0.87762  0.23133000000000006  0.3448200000000001  1.0000
  H   H5        1.0  0.4898099999999998  0.95998  0.28798000000000007  1.0000
  H   H6        1.0  0.51019  0.04002000000000002  0.7120200000000002  1.0000
  H   H7        1.0  0.43904  0.37946  0.9590700000000002  1.0000
  H   H8        1.0  0.56096  0.6205399999999998  0.04093  1.0000
  N   N1        1.0  0.47817999999999994  0.45675  0.04198000000000002  1.0000
  N   N2        1.0  0.52182  0.54325  0.9580200000000001  1.0000
  O   O1        1.0  0.50565  0.28604  0.6188800000000001  1.0000
  O   O2        1.0  0.49435  0.71396  0.3811200000000001  1.0000
  O   O3        1.0  0.49096  0.25691  0.3098  1.0000
  O   O4        1.0  0.50904  0.7430900000000001  0.6902  1.0000
  O   O5        1.0  0.3946  0.51623  0.67245  1.0000
  O   O6        1.0  0.6054  0.48377  0.32755  1.0000
  O   O7        1.0  0.37991  0.4870999999999999  0.3633800000000001  1.0000
  O   O8        1.0  0.62009  0.5129  0.6366200000000002  1.0000
  C   C21       1.0  0.2623  0.20548999999999995  0.47353  1.0000
  H   H9        1.0  0.22231  0.09881999999999998  0.44826  1.0000
  H   H10       1.0  0.29639  0.2008  0.3443900000000001  1.0000
  H   H11       1.0  0.30313  0.19681  0.58522  1.0000
  C   C22       1.0  0.73778  0.7943799999999998  0.52583  1.0000
  H   H12       1.0  0.7778  0.90101  0.55088  1.0000
  H   H13       1.0  0.69697  0.80292  0.41405  1.0000
  H   H14       1.0  0.70369  0.79931  0.6550200000000002  1.0000
  C   C23       1.0  0.72034  0.19325999999999996  0.3609600000000001  1.0000
  H   H15       1.0  0.6879  0.18378999999999995  0.48872000000000004  1.0000
  H   H16       1.0  0.67779  0.18835000000000002  0.24824000000000004  1.0000
  H   H17       1.0  0.75747  0.08911  0.3206200000000001  1.0000
  C   C24       1.0  0.27956  0.8065499999999999  0.63965  1.0000
  H   H18       1.0  0.31201  0.8162399999999997  0.5119800000000001  1.0000
  H   H19       1.0  0.24239  0.9106200000000001  0.6801200000000002  1.0000
  H   H20       1.0  0.3221  0.81138  0.7523500000000002  1.0000
  C   C25       1.0  0.91112  0.7853199999999998  0.46339  1.0000
  H   H21       1.0  0.88815  0.85363  0.36774  1.0000
  H   H22       1.0  0.91032  0.85801  0.6068300000000002  1.0000
  H   H23       1.0  0.97299  0.76409  0.42223  1.0000
  C   C26       1.0  0.08897  0.21421  0.53603  1.0000
  H   H24       1.0  0.112  0.14574000000000004  0.63143  1.0000
  H   H25       1.0  0.027099999999999996  0.23528999999999997  0.5773500000000003  1.0000
  H   H26       1.0  0.08975  0.14175  0.39249  1.0000
