data_image0
_chemical_formula_structural       C60Cr6H40O26CO2HCO2H
_chemical_formula_sum              "C62 Cr6 H42 O30"
_cell_length_a       11.02913
_cell_length_b       10.93146
_cell_length_c       18.83098
_cell_angle_alpha    90.69749999999999
_cell_angle_beta     90.43766
_cell_angle_gamma    60.52929999999999

_space_group_name_H-M_alt    "P 1"
_space_group_IT_number       1

loop_
  _space_group_symop_operation_xyz
  'x, y, z'

loop_
  _atom_site_type_symbol
  _atom_site_label
  _atom_site_symmetry_multiplicity
  _atom_site_fract_x
  _atom_site_fract_y
  _atom_site_fract_z
  _atom_site_occupancy
  C   C1        1.0  0.24330000000000016  0.6460399999999997  0.6111  1.0000
  C   C2        1.0  0.7389200000000001  0.51631  0.79679  1.0000
  C   C3        1.0  0.69708  0.66991  0.81437  1.0000
  C   C4        1.0  0.6703600000000001  0.64402  0.67814  1.0000
  C   C5        1.0  0.77407  0.69753  0.6902099999999999  1.0000
  C   C6        1.0  0.72316  0.50187  0.717  1.0000
  C   C7        1.0  0.6868600000000001  0.13501999999999995  0.81998  1.0000
  C   C8        1.0  0.7667100000000002  0.18260999999999997  0.78609  1.0000
  C   C9        1.0  0.7581900000000003  0.19741999999999996  0.71246  1.0000
  C   C10       1.0  0.5890000000000001  0.12001999999999997  0.70571  1.0000
  C   C11       1.0  0.5950000000000001  0.10734999999999999  0.77846  1.0000
  C   C12       1.0  0.6529600000000001  0.62062  0.6018999999999999  1.0000
  C   C13       1.0  0.9204400000000001  0.11437999999999998  0.78612  1.0000
  C   C14       1.0  0.9111500000000001  0.12392999999999998  0.70615  1.0000
  C   C15       1.0  0.6701500000000002  0.16678999999999997  0.67177  1.0000
  C   C16       1.0  0.17128000000000002  0.6749099999999999  0.8340999999999998  1.0000
  C   C17       1.0  0.14209999999999998  0.58859  0.79093  1.0000
  C   C18       1.0  0.16520000000000007  0.58084  0.71918  1.0000
  C   C19       1.0  0.20177000000000003  0.7828999999999999  0.72761  1.0000
  C   C20       1.0  0.20308  0.76973  0.80157  1.0000
  C   C21       1.0  0.18674  0.4359799999999999  0.79537  1.0000
  C   C22       1.0  0.22426  0.42479999999999996  0.7167  1.0000
  C   C23       1.0  0.62847  0.22736  0.6018999999999999  1.0000
  C   C24       1.0  0.1959400000000001  0.6744299999999999  0.68468  1.0000
  C   C25       1.0  0.6533200000000001  0.65812  0.16518  1.0000
  C   C26       1.0  0.74847  0.5371699999999999  0.20203  1.0000
  C   C27       1.0  0.74336  0.53092  0.27454  1.0000
  C   C28       1.0  0.5315700000000002  0.75195  0.27734  1.0000
  C   C29       1.0  0.5360300000000002  0.7591299999999997  0.20267  1.0000
  C   C30       1.0  0.9049800000000002  0.4579399999999999  0.20342  1.0000
  C   C31       1.0  0.89754  0.45368  0.2833  1.0000
  C   C32       1.0  0.6428400000000001  0.6419199999999999  0.31439  1.0000
  C   C33       1.0  0.6361200000000001  0.18899999999999995  0.16887  1.0000
  C   C34       1.0  0.22064000000000009  0.6489099999999998  0.40199999999999997  1.0000
  C   C35       1.0  0.51859  0.20773999999999998  0.20611  1.0000
  C   C36       1.0  0.51437  0.2199  0.27879  1.0000
  C   C37       1.0  0.7304000000000002  0.22361  0.2786  1.0000
  C   C38       1.0  0.7332900000000001  0.21485  0.20453  1.0000
  C   C39       1.0  0.4488700000000001  0.11986  0.20772999999999997  1.0000
  C   C40       1.0  0.44413000000000014  0.13443  0.28768  1.0000
  C   C41       1.0  0.62632  0.21347999999999998  0.31656  1.0000
  C   C42       1.0  0.11853  0.69036  0.18856  1.0000
  C   C43       1.0  0.07196000000000013  0.8103199999999998  0.23146  1.0000
  C   C44       1.0  0.08469000000000008  0.8017299999999999  0.30374  1.0000
  C   C45       1.0  0.6386000000000002  0.61944  0.39046  1.0000
  C   C46       1.0  0.17333  0.55113  0.29427  1.0000
  C   C47       1.0  0.16051999999999997  0.56091  0.22056  1.0000
  C   C48       1.0  0.10455000000000007  0.9274299999999999  0.22773999999999997  1.0000
  C   C49       1.0  0.11454000000000004  0.9216699999999999  0.30773  1.0000
  C   C50       1.0  0.14816999999999997  0.67015  0.33555  1.0000
  C   C51       1.0  0.70406  0.09418  0.89427  1.0000
  C   C52       1.0  0.7208100000000001  0.6853599999999999  0.8899  1.0000
  C   C53       1.0  0.11736000000000008  0.7064699999999999  0.90588  1.0000
  C   C54       1.0  0.67341  0.11088  0.10254  1.0000
  C   C55       1.0  0.6959200000000001  0.68845  0.09698  1.0000
  C   C56       1.0  0.6111700000000001  0.23890999999999998  0.39229  1.0000
  C   C57       1.0  0.08935999999999998  0.71201  0.11385999999999999  1.0000
  C   C58       1.0  0.54387  0.76405  0.79239  1.0000
  C   C59       1.0  0.52971  0.7492699999999999  0.71198  1.0000
  C   C60       1.0  0.7889700000000002  0.71332  0.77072  1.0000
  Cr  Cr1       1.0  0.39296000000000025  0.39791999999999994  0.50224  1.0000
  Cr  Cr2       1.0  0.39834000000000014  0.7084799999999999  0.50125  1.0000
  Cr  Cr3       1.0  0.70867  0.3935699999999999  0.49645999999999996  1.0000
  Cr  Cr4       1.0  0.9376500000000001  0.93854  0.00761  1.0000
  Cr  Cr5       1.0  0.6253300000000002  0.9373699999999999  0.9945199999999998  1.0000
  Cr  Cr6       1.0  0.93794  0.62523  0.00119  1.0000
  H   H1        1.0  0.50773  0.87582  0.80561  1.0000
  H   H2        1.0  0.82615  0.42307  0.69564  1.0000
  H   H3        1.0  0.8978500000000003  0.6447  0.7858699999999998  1.0000
  H   H4        1.0  0.8771600000000002  0.62238  0.66696  1.0000
  H   H5        1.0  0.5159800000000001  0.09904  0.6765299999999999  1.0000
  H   H6        1.0  0.5287  0.07178  0.80169  1.0000
  H   H7        1.0  0.96873  0.00575  0.8062  1.0000
  H   H8        1.0  0.95865  0.18173  0.81108  1.0000
  H   H9        1.0  0.9514800000000002  0.18999  0.6834099999999999  1.0000
  H   H10       1.0  0.9455200000000001  0.021259999999999998  0.67907  1.0000
  H   H11       1.0  0.47647999999999996  0.73265  0.82166  1.0000
  H   H12       1.0  0.21787000000000006  0.8425299999999999  0.83505  1.0000
  H   H13       1.0  0.09690000000000001  0.4186599999999999  0.80479  1.0000
  H   H14       1.0  0.33785000000000004  0.3687699999999999  0.70593  1.0000
  H   H15       1.0  0.16154  0.39308  0.68258  1.0000
  H   H16       1.0  0.44511000000000006  0.83473  0.30596  1.0000
  H   H17       1.0  0.4540600000000001  0.84822  0.17535  1.0000
  H   H18       1.0  0.9510400000000002  0.52222  0.18581  1.0000
  H   H19       1.0  0.9488700000000001  0.35256999999999994  0.17778  1.0000
  H   H20       1.0  0.93871  0.34582  0.30401  1.0000
  H   H21       1.0  0.45849  0.70659  0.7028999999999999  1.0000
  H   H22       1.0  0.93624  0.51787  0.31129  1.0000
  H   H23       1.0  0.8115400000000002  0.23327999999999996  0.30602999999999997  1.0000
  H   H24       1.0  0.8181700000000001  0.21452  0.17604999999999998  1.0000
  H   H25       1.0  0.51973  0.010939999999999998  0.18969  1.0000
  H   H26       1.0  0.34421  0.17268999999999995  0.18239  1.0000
  H   H27       1.0  0.33667  0.19688999999999995  0.30879  1.0000
  H   H28       1.0  0.51085  0.03377  0.31543  1.0000
  H   H29       1.0  0.21723000000000006  0.44810999999999995  0.31766  1.0000
  H   H30       1.0  0.18882000000000004  0.4673799999999999  0.18884  1.0000
  H   H31       1.0  0.01646000000000001  0.02575999999999999  0.2078  1.0000
  H   H32       1.0  0.48738000000000026  0.85355  0.6862199999999999  1.0000
  H   H33       1.0  0.20586000000000015  0.8952599999999998  0.20136  1.0000
  H   H34       1.0  0.22038000000000002  0.8933199999999999  0.32644  1.0000
  H   H35       1.0  0.02929  0.01566  0.3343  1.0000
  H   H36       1.0  0.76303  0.8228799999999997  0.78366  1.0000
  H   H37       1.0  0.73634  0.8006099999999998  0.66385  1.0000
  H   H38       1.0  0.84895  0.44406  0.8122399999999999  1.0000
  H   H39       1.0  0.67217  0.48446  0.82652  1.0000
  H   H40       1.0  0.6471300000000001  0.4644599999999999  0.70778  1.0000
  O   O1        1.0  0.50738  0.2557  0.58144  1.0000
  O   O2        1.0  0.5244800000000001  0.6958099999999999  0.42404  1.0000
  O   O3        1.0  0.73639  0.50429  0.41479  1.0000
  O   O4        1.0  0.6913000000000002  0.27729  0.42216999999999993  1.0000
  O   O5        1.0  0.49999  0.49999  0.4999799999999999  1.0000
  O   O6        1.0  0.08940000000000001  0.82569  0.9305699999999999  1.0000
  O   O7        1.0  0.81846  0.05444  0.9298499999999998  1.0000
  O   O8        1.0  0.6060600000000002  0.07715  0.91551  1.0000
  O   O9        1.0  0.6465500000000002  0.80668  0.9175699999999999  1.0000
  O   O10       1.0  0.8371700000000002  0.59341  0.9152499999999999  1.0000
  O   O11       1.0  0.06520000000000001  0.63553  0.93157  1.0000
  O   O12       1.0  0.28032000000000007  0.5273499999999999  0.57893  1.0000
  O   O13       1.0  0.06826000000000006  0.8288899999999999  0.09184  1.0000
  O   O14       1.0  0.79887  0.05741  0.07934  1.0000
  O   O15       1.0  0.5849300000000001  0.08035  0.07678  1.0000
  O   O16       1.0  0.62696  0.80965  0.06706  1.0000
  O   O17       1.0  0.8160400000000004  0.5966099999999998  0.07651  1.0000
  O   O18       1.0  0.045609999999999984  0.6385  0.08106  1.0000
  O   O19       1.0  0.8336400000000002  0.8337099999999998  0.0011  1.0000
  O   O20       1.0  0.2605100000000001  0.73959  0.58459  1.0000
  O   O21       1.0  0.5323000000000001  0.69508  0.57382  1.0000
  O   O22       1.0  0.7448400000000001  0.5035  0.57637  1.0000
  O   O23       1.0  0.69912  0.2765599999999999  0.57196  1.0000
  O   O24       1.0  0.49894  0.2565  0.41986  1.0000
  O   O25       1.0  0.2725  0.52808  0.42915000000000003  1.0000
  O   O26       1.0  0.25206000000000006  0.74038  0.42301  1.0000
  C   C61       1.0  0.21127999999999997  0.91005  0.70309  1.0000
  O   O27       1.0  0.17964  0.9568  0.64315  1.0000
  O   O28       1.0  0.24582000000000012  0.9854699999999998  0.75223  1.0000
  H   H41       1.0  0.2449  0.07072  0.73094  1.0000
  C   C62       1.0  0.30257000000000017  0.3592499999999999  0.84772  1.0000
  O   O29       1.0  0.40366  0.37709  0.84912  1.0000
  O   O30       1.0  0.28691  0.27634  0.89873  1.0000
  H   H42       1.0  0.35927000000000003  0.24602  0.9377599999999999  1.0000
