data_image0
_chemical_formula_structural       O2CO2CO2CO2CO2CO2CCr3OCHCH2C3HC3H5C10H6C10H5C10H6C10H6C10H4O2CO2CO2CO2CO2CO2CCr3O2HOHNO3HOHNO2
_chemical_formula_sum              "O34 C70 Cr6 H40 N2"
_cell_length_a       11.01059
_cell_length_b       10.95619
_cell_length_c       18.8324
_cell_angle_alpha    90.10435
_cell_angle_beta     89.66966
_cell_angle_gamma    60.28612999999999

_space_group_name_H-M_alt    "P 1"
_space_group_IT_number       1

loop_
  _space_group_symop_operation_xyz
  'x, y, z'

loop_
  _atom_site_type_symbol
  _atom_site_label
  _atom_site_symmetry_multiplicity
  _atom_site_fract_x
  _atom_site_fract_y
  _atom_site_fract_z
  _atom_site_occupancy
  O   O1        1.0  0.50734  0.25569  0.58143  1.0000
  O   O2        1.0  0.28036000000000005  0.52738  0.57891  1.0000
  C   C1        1.0  0.24525999999999998  0.64136  0.61229  1.0000
  O   O3        1.0  0.2606  0.73961  0.58458  1.0000
  O   O4        1.0  0.5323700000000001  0.69505  0.5738300000000001  1.0000
  C   C2        1.0  0.6551199999999999  0.62404  0.59973  1.0000
  O   O5        1.0  0.74485  0.50343  0.57638  1.0000
  O   O6        1.0  0.69908  0.2765  0.57195  1.0000
  C   C3        1.0  0.6275299999999998  0.22898999999999997  0.60277  1.0000
  O   O7        1.0  0.49885999999999997  0.25652  0.41986000000000007  1.0000
  O   O8        1.0  0.27249  0.52815  0.42914  1.0000
  C   C4        1.0  0.28018000000000004  0.6257299999999999  0.39226  1.0000
  O   O9        1.0  0.25210999999999995  0.74044  0.42301  1.0000
  O   O10       1.0  0.52451  0.69582  0.42405  1.0000
  C   C5        1.0  0.64627  0.62117  0.39243  1.0000
  O   O11       1.0  0.73637  0.50426  0.41481  1.0000
  O   O12       1.0  0.6912199999999998  0.27727  0.42218  1.0000
  C   C6        1.0  0.61023  0.23618  0.39321  1.0000
  Cr  Cr1       1.0  0.39294  0.39795  0.50223  1.0000
  Cr  Cr2       1.0  0.39839999999999987  0.7085  0.50126  1.0000
  Cr  Cr3       1.0  0.70864  0.39353  0.49646  1.0000
  O   O13       1.0  0.4999899999999999  0.49999  0.49998000000000004  1.0000
  C   C7        1.0  0.6107599999999999  0.84064  0.77174  1.0000
  H   H1        1.0  0.65903  0.90851  0.7697300000000001  1.0000
  C   C8        1.0  0.5785700000000001  0.81398  0.69442  1.0000
  H   H2        1.0  0.4698399999999999  0.83242  0.6934  1.0000
  H   H3        1.0  0.8707900000000001  0.66217  0.64695  1.0000
  C   C9        1.0  0.85585  0.63935  0.76348  1.0000
  C   C10       1.0  0.65631  0.59321  0.80112  1.0000
  C   C11       1.0  0.7178799999999999  0.69534  0.8071900000000001  1.0000
  H   H4        1.0  0.54997  0.64609  0.82525  1.0000
  C   C12       1.0  0.6771100000000001  0.6565899999999999  0.67324  1.0000
  C   C13       1.0  0.83306  0.61161  0.68538  1.0000
  C   C14       1.0  0.6415100000000001  0.56459  0.72247  1.0000
  H   H5        1.0  0.53314  0.5862  0.71286  1.0000
  H   H6        1.0  0.71079  0.45125  0.70949  1.0000
  H   H7        1.0  0.9348200000000002  0.53864  0.78631  1.0000
  H   H8        1.0  0.8985900000000001  0.49688999999999994  0.67487  1.0000
  H   H9        1.0  0.44552  0.25852  0.70105  1.0000
  C   C15       1.0  0.69658  0.15439999999999998  0.82344  1.0000
  C   C16       1.0  0.81485  0.12291  0.7792800000000001  1.0000
  C   C17       1.0  0.79777  0.13122  0.70422  1.0000
  C   C18       1.0  0.54948  0.21864  0.7211400000000001  1.0000
  C   C19       1.0  0.56534  0.20921  0.79295  1.0000
  C   C20       1.0  0.94806  0.08701  0.80625  1.0000
  C   C21       1.0  0.058300000000000005  0.061410000000000006  0.76053  1.0000
  C   C22       1.0  0.04288  0.06059  0.68764  1.0000
  C   C23       1.0  0.9153899999999999  0.08998  0.6596  1.0000
  C   C24       1.0  0.66297  0.18151  0.67586  1.0000
  H   H10       1.0  0.9679899999999999  0.08914  0.86193  1.0000
  H   H11       1.0  0.47432  0.23593  0.82507  1.0000
  H   H12       1.0  0.1586  0.03678  0.7815400000000001  1.0000
  H   H13       1.0  0.13078  0.03518  0.6526900000000001  1.0000
  H   H14       1.0  0.91076  0.07982  0.60275  1.0000
  H   H15       1.0  0.27678  0.80533  0.7051  1.0000
  C   C25       1.0  0.20276999999999998  0.65108  0.83973  1.0000
  C   C26       1.0  0.20760000000000006  0.53658  0.80227  1.0000
  C   C27       1.0  0.20250999999999994  0.53947  0.72676  1.0000
  C   C28       1.0  0.24769000000000002  0.73528  0.73043  1.0000
  C   C29       1.0  0.23753999999999997  0.7400199999999999  0.80382  1.0000
  C   C30       1.0  0.21344999999999992  0.42169000000000006  0.8386800000000001  1.0000
  C   C31       1.0  0.20108  0.3168  0.80255  1.0000
  C   C32       1.0  0.17866  0.32876  0.7295500000000001  1.0000
  C   C33       1.0  0.17758000000000004  0.43925999999999993  0.69202  1.0000
  C   C34       1.0  0.22008999999999995  0.64395  0.69006  1.0000
  H   H16       1.0  0.23457999999999998  0.40914999999999996  0.8950300000000001  1.0000
  H   H17       1.0  0.24841  0.81937  0.83264  1.0000
  H   H18       1.0  0.16336  0.25134  0.70139  1.0000
  H   H19       1.0  0.15374  0.44513  0.63632  1.0000
  H   H20       1.0  0.57132  0.8683299999999999  0.32458  1.0000
  C   C35       1.0  0.6635300000000001  0.67584  0.17128  1.0000
  C   C36       1.0  0.72466  0.53979  0.2001  1.0000
  C   C37       1.0  0.75616  0.52388  0.27274  1.0000
  C   C38       1.0  0.6184000000000001  0.77666  0.29028  1.0000
  C   C39       1.0  0.6215500000000002  0.79214  0.21699000000000002  1.0000
  C   C40       1.0  0.77626  0.41905  0.15622  1.0000
  C   C41       1.0  0.8868699999999999  0.29211  0.17869  1.0000
  C   C42       1.0  0.93618  0.27995  0.24738  1.0000
  C   C43       1.0  0.8707799999999999  0.39309  0.29446  1.0000
  C   C44       1.0  0.67779  0.64269  0.31883  1.0000
  H   H21       1.0  0.7409499999999999  0.42583  0.10205  1.0000
  H   H22       1.0  0.5869999999999999  0.8961  0.19585000000000005  1.0000
  H   H23       1.0  0.93579  0.20376  0.14237  1.0000
  H   H24       1.0  0.024730000000000002  0.18216  0.26449  1.0000
  H   H25       1.0  0.9209499999999999  0.37828  0.3452  1.0000
  H   H26       1.0  0.84819  0.09093999999999998  0.32325000000000004  1.0000
  C   C45       1.0  0.65415  0.16272  0.17405  1.0000
  C   C46       1.0  0.51877  0.23564  0.20206  1.0000
  C   C47       1.0  0.5020299999999998  0.23306000000000002  0.27581  1.0000
  C   C48       1.0  0.75612  0.12748  0.29042  1.0000
  C   C49       1.0  0.7714600000000001  0.10459  0.21869  1.0000
  C   C50       1.0  0.40052  0.29664  0.15735  1.0000
  C   C51       1.0  0.27143  0.32355  0.18258  1.0000
  C   C52       1.0  0.25502000000000014  0.30663  0.2540700000000001  1.0000
  C   C53       1.0  0.36631  0.2661  0.30061  1.0000
  C   C54       1.0  0.62336  0.19265  0.3198  1.0000
  H   H27       1.0  0.40898  0.31589  0.10166  1.0000
  H   H28       1.0  0.87682  0.039720000000000005  0.19836  1.0000
  H   H29       1.0  0.18348999999999996  0.35959  0.14698  1.0000
  H   H30       1.0  0.1546  0.32724  0.27422  1.0000
  H   H31       1.0  0.3417899999999999  0.25002  0.3538  1.0000
  H   H32       1.0  0.09212000000000004  0.56475  0.3367  1.0000
  C   C55       1.0  0.16217000000000004  0.66234  0.17846000000000004  1.0000
  C   C56       1.0  0.25478  0.70868  0.19940000000000002  1.0000
  C   C57       1.0  0.26812  0.72555  0.27197  1.0000
  C   C58       1.0  0.13623  0.60702  0.29901000000000005  1.0000
  C   C59       1.0  0.09642000000000003  0.62063  0.22886000000000004  1.0000
  C   C60       1.0  0.31068  0.76472  0.14985  1.0000
  C   C61       1.0  0.32805  0.8766699999999998  0.16992  1.0000
  C   C62       1.0  0.31596000000000013  0.9143499999999999  0.2411  1.0000
  C   C63       1.0  0.30197  0.82937  0.29229  1.0000
  C   C64       1.0  0.22895  0.65159  0.32034  1.0000
  H   H33       1.0  0.32003  0.7376  0.09396  1.0000
  H   H34       1.0  0.01549000000000002  0.59675  0.21381  1.0000
  H   H35       1.0  0.35101000000000016  0.9340699999999998  0.13032  1.0000
  H   H36       1.0  0.30687  0.85671  0.34637  1.0000
  O   O14       1.0  0.08956999999999998  0.82545  0.93059  1.0000
  O   O15       1.0  0.8187  0.05426  0.9298600000000001  1.0000
  C   C65       1.0  0.70518  0.09964  0.8955  1.0000
  O   O16       1.0  0.60631  0.07701  0.91552  1.0000
  O   O17       1.0  0.64673  0.80654  0.9175600000000002  1.0000
  C   C66       1.0  0.75053  0.70891  0.8827200000000001  1.0000
  O   O18       1.0  0.83729  0.59324  0.9152399999999999  1.0000
  O   O19       1.0  0.06531999999999999  0.63531  0.9315800000000001  1.0000
  C   C67       1.0  0.12348  0.70232  0.9073  1.0000
  O   O20       1.0  0.06847  0.82862  0.09185  1.0000
  O   O21       1.0  0.7991499999999999  0.0572  0.07935  1.0000
  C   C68       1.0  0.67596  0.10749  0.10308  1.0000
  O   O22       1.0  0.58522  0.08018  0.07677000000000002  1.0000
  O   O23       1.0  0.6271700000000001  0.80948  0.06705  1.0000
  C   C69       1.0  0.69685  0.69098  0.09796  1.0000
  O   O24       1.0  0.8161999999999999  0.59641  0.0765  1.0000
  O   O25       1.0  0.045769999999999984  0.63824  0.08107  1.0000
  C   C70       1.0  0.09484999999999998  0.70773  0.11127  1.0000
  Cr  Cr4       1.0  0.9378800000000002  0.93832  0.00762  1.0000
  Cr  Cr5       1.0  0.6255599999999999  0.93722  0.9945100000000001  1.0000
  Cr  Cr6       1.0  0.9380799999999999  0.62501  0.00119  1.0000
  O   O26       1.0  0.8338399999999999  0.83352  0.00111  1.0000
  O   O27       1.0  0.4862099999999999  0.91875  0.81122  1.0000
  H   H37       1.0  0.43016  0.87098  0.80872  1.0000
  O   O28       1.0  0.20977999999999994  0.20249  0.83751  1.0000
  H   H38       1.0  0.22548  0.20979999999999996  0.8887700000000001  1.0000
  N   N1        1.0  0.585  0.91218  0.64369  1.0000
  O   O29       1.0  0.47162999999999994  0.0038499999999999997  0.61191  1.0000
  O   O30       1.0  0.70265  0.90696  0.62813  1.0000
  O   O31       1.0  0.32922  0.02804  0.25976  1.0000
  H   H39       1.0  0.31488  0.04314  0.31177  1.0000
  O   O32       1.0  0.91133  0.73073  0.76977  1.0000
  H   H40       1.0  0.87775  0.79948  0.7305  1.0000
  N   N2        1.0  0.73778  0.46032999999999996  0.8390700000000001  1.0000
  O   O33       1.0  0.86713  0.37387  0.8217500000000001  1.0000
  O   O34       1.0  0.68103  0.4288  0.89152  1.0000
