data_image0
_chemical_formula_structural       C60Cr6F16H26O26
_chemical_formula_sum              "C60 Cr6 F16 H26 O26"
_cell_length_a       11.00051
_cell_length_b       10.98981
_cell_length_c       18.80173
_cell_angle_alpha    90.56042999999998
_cell_angle_beta     90.22862999999998
_cell_angle_gamma    60.56287

_symmetry_space_group_name_H-M    'P 1'
_symmetry_Int_Tables_number       1

loop_
  _symmetry_equiv_pos_as_xyz
  'x,y,z'

loop_
  _atom_site_type_symbol
  _atom_site_label
  _atom_site_symmetry_multiplicity
  _atom_site_fract_x
  _atom_site_fract_y
  _atom_site_fract_z
  _atom_site_occupancy
  C   C1        1.0  0.24174999999999994  0.6449300000000001  0.61104  1.0000
  C   C2        1.0  0.57369  0.14563999999999996  0.7111300000000003  1.0000
  C   C3        1.0  0.5719  0.15259  0.78413  1.0000
  C   C4        1.0  0.6552099999999997  0.62293  0.5999700000000001  1.0000
  C   C5        1.0  0.93393  0.06313  0.7810500000000001  1.0000
  C   C6        1.0  0.92571  0.08525  0.70169  1.0000
  C   C7        1.0  0.6690400000000002  0.16873  0.67279  1.0000
  C   C8        1.0  0.1880100000000001  0.6628299999999999  0.8370500000000002  1.0000
  C   C9        1.0  0.15925999999999998  0.5739  0.7954100000000002  1.0000
  C   C10       1.0  0.16790000000000002  0.57282  0.72147  1.0000
  C   C11       1.0  0.22400000000000006  0.75838  0.7286  1.0000
  C   C12       1.0  0.6501100000000001  0.5698399999999999  0.7998600000000001  1.0000
  C   C13       1.0  0.22723  0.75086  0.8025600000000003  1.0000
  C   C14       1.0  0.23369000000000004  0.4185499999999999  0.79827  1.0000
  C   C15       1.0  0.24307  0.41808  0.71807  1.0000
  C   C16       1.0  0.6287000000000001  0.22715999999999995  0.60206  1.0000
  C   C17       1.0  0.20078000000000004  0.66416  0.6864000000000001  1.0000
  C   C18       1.0  0.6533099999999998  0.67447  0.16850000000000007  1.0000
  C   C19       1.0  0.71281  0.54223  0.19968  1.0000
  C   C20       1.0  0.7163800000000001  0.5300499999999999  0.27276  1.0000
  C   C21       1.0  0.58755  0.77945  0.28739  1.0000
  C   C22       1.0  0.5836400000000002  0.79349  0.21314  1.0000
  C   C23       1.0  0.70258  0.67501  0.8111900000000002  1.0000
  C   C24       1.0  0.85602  0.41761  0.19205000000000005  1.0000
  C   C25       1.0  0.86303  0.4119099999999999  0.27225000000000005  1.0000
  C   C26       1.0  0.6572800000000002  0.64689  0.3177600000000001  1.0000
  C   C27       1.0  0.66006  0.15891  0.17505  1.0000
  C   C28       1.0  0.21744000000000002  0.65203  0.40317  1.0000
  C   C29       1.0  0.53014  0.24357999999999994  0.20481000000000005  1.0000
  C   C30       1.0  0.5180400000000001  0.25947  0.27722  1.0000
  C   C31       1.0  0.76624  0.11641  0.29252  1.0000
  C   C32       1.0  0.77931  0.10340999999999999  0.21919000000000002  1.0000
  C   C33       1.0  0.39421  0.24571999999999997  0.19635  1.0000
  C   C34       1.0  0.6742699999999998  0.64749  0.67514  1.0000
  C   C35       1.0  0.3810700000000001  0.26236  0.2764500000000001  1.0000
  C   C36       1.0  0.63386  0.19008  0.3220000000000001  1.0000
  C   C37       1.0  0.09864999999999996  0.70159  0.1922  1.0000
  C   C38       1.0  0.10154999999999996  0.81  0.22924000000000003  1.0000
  C   C39       1.0  0.11734000000000011  0.8063899999999999  0.30100000000000005  1.0000
  C   C40       1.0  0.6432199999999999  0.62214  0.39244000000000007  1.0000
  C   C41       1.0  0.09310000000000003  0.6010899999999999  0.3061200000000001  1.0000
  C   C42       1.0  0.07974000000000014  0.6038599999999997  0.23158  1.0000
  C   C43       1.0  0.18172000000000005  0.8840799999999999  0.21575  1.0000
  C   C44       1.0  0.20379000000000003  0.8778099999999999  0.29502  1.0000
  C   C45       1.0  0.8267200000000002  0.61074  0.6906800000000002  1.0000
  C   C46       1.0  0.13330999999999998  0.69055  0.33919  1.0000
  C   C47       1.0  0.7019600000000001  0.10015  0.89549  1.0000
  C   C48       1.0  0.72555  0.68927  0.8875800000000001  1.0000
  C   C49       1.0  0.12063999999999994  0.70466  0.9067600000000001  1.0000
  C   C50       1.0  0.67677  0.10572999999999999  0.1039  1.0000
  C   C51       1.0  0.69648  0.69106  0.09776  1.0000
  C   C52       1.0  0.6153799999999999  0.22993  0.39525  1.0000
  C   C53       1.0  0.08016999999999996  0.71685  0.11605  1.0000
  C   C54       1.0  0.5959800000000001  0.8178499999999997  0.778  1.0000
  C   C55       1.0  0.5774299999999999  0.80059  0.6982000000000003  1.0000
  C   C56       1.0  0.6417699999999997  0.54734  0.71965  1.0000
  C   C57       1.0  0.8435300000000001  0.62424  0.7711100000000002  1.0000
  C   C58       1.0  0.68134  0.15408  0.82276  1.0000
  C   C59       1.0  0.7830299999999999  0.16623  0.7842200000000003  1.0000
  C   C60       1.0  0.7729999999999999  0.18120999999999995  0.7100500000000001  1.0000
  Cr  Cr1       1.0  0.39296  0.39792  0.50224  1.0000
  Cr  Cr2       1.0  0.39833999999999997  0.70848  0.50125  1.0000
  Cr  Cr3       1.0  0.70867  0.39357  0.49646  1.0000
  Cr  Cr4       1.0  0.93765  0.93854  0.007610000000000001  1.0000
  Cr  Cr5       1.0  0.6253300000000002  0.9373699999999999  0.9945200000000001  1.0000
  Cr  Cr6       1.0  0.93794  0.62523  0.00119  1.0000
  F   F1        1.0  0.47530000000000006  0.12424  0.67835  1.0000
  F   F2        1.0  0.8503  0.30574  0.16137000000000004  1.0000
  F   F3        1.0  0.8748300000000001  0.29111  0.29973  1.0000
  F   F4        1.0  0.38481  0.14928  0.30957  1.0000
  F   F5        1.0  0.3417400000000001  0.7892399999999998  0.31083  1.0000
  F   F6        1.0  0.86132  0.69801  0.6535900000000002  1.0000
  F   F7        1.0  0.7392  0.44364  0.83191  1.0000
  F   F8        1.0  0.51225  0.5633499999999999  0.70287  1.0000
  F   F9        1.0  0.9526699999999999  0.93322  0.7982200000000002  1.0000
  F   F10       1.0  0.99499  0.15421999999999997  0.6788800000000001  1.0000
  F   F11       1.0  0.95628  0.96744  0.6613400000000001  1.0000
  F   F12       1.0  0.24526000000000006  0.85822  0.6989200000000001  1.0000
  F   F13       1.0  0.4676600000000001  0.8755499999999999  0.81179  1.0000
  F   F14       1.0  0.2520800000000001  0.8422999999999999  0.84026  1.0000
  F   F15       1.0  0.16514000000000004  0.3664299999999999  0.68495  1.0000
  F   F16       1.0  0.5271700000000001  0.8939899999999998  0.32989000000000007  1.0000
  H   H1        1.0  0.3353800000000001  0.3779999999999999  0.82587  1.0000
  H   H2        1.0  0.7203899999999999  0.43827  0.706  1.0000
  H   H3        1.0  0.92357  0.5207599999999999  0.79134  1.0000
  H   H4        1.0  0.90001  0.50144  0.67383  1.0000
  H   H5        1.0  0.49083999999999994  0.13983  0.8096300000000002  1.0000
  H   H6        1.0  0.0011799999999999942  0.0958  0.8104  1.0000
  H   H7        1.0  0.16626000000000002  0.3774  0.81844  1.0000
  H   H8        1.0  0.34918  0.37772  0.69655  1.0000
  H   H9        1.0  0.53745  0.8974799999999999  0.19131  1.0000
  H   H10       1.0  0.93698  0.43589  0.16814  1.0000
  H   H11       1.0  0.4672800000000001  0.83263  0.6868700000000002  1.0000
  H   H12       1.0  0.9385900000000001  0.44023  0.29560000000000003  1.0000
  H   H13       1.0  0.40476  0.14526  0.17693  1.0000
  H   H14       1.0  0.3162700000000001  0.33986999999999995  0.16754  1.0000
  H   H15       1.0  0.08938999999999997  0.51961  0.33622  1.0000
  H   H16       1.0  0.06385000000000009  0.5257099999999999  0.20503  1.0000
  H   H17       1.0  0.11538000000000001  0.99229  0.19629  1.0000
  H   H18       1.0  0.60339  0.86999  0.66696  1.0000
  H   H19       1.0  0.5452600000000001  0.61108  0.8245700000000002  1.0000
  H   H20       1.0  0.85835  0.06963999999999998  0.32588  1.0000
  H   H21       1.0  0.8822500000000001  0.04234999999999999  0.19725000000000004  1.0000
  H   H22       1.0  0.29675000000000007  0.36239  0.29538  1.0000
  H   H23       1.0  0.27885000000000004  0.81972  0.18462  1.0000
  H   H24       1.0  0.15735000000000007  0.9814599999999999  0.32207  1.0000
  H   H25       1.0  0.8813999999999999  0.69993  0.781  1.0000
  H   H26       1.0  0.6375300000000003  0.8907499999999999  0.7847600000000001  1.0000
  O   O1        1.0  0.50738  0.2557  0.58144  1.0000
  O   O2        1.0  0.83717  0.59341  0.9152500000000001  1.0000
  O   O3        1.0  0.06520000000000002  0.63553  0.93157  1.0000
  O   O4        1.0  0.2803200000000001  0.5273499999999999  0.57893  1.0000
  O   O5        1.0  0.06826000000000003  0.82889  0.09184  1.0000
  O   O6        1.0  0.79887  0.05741  0.07934000000000002  1.0000
  O   O7        1.0  0.58493  0.08035  0.07678  1.0000
  O   O8        1.0  0.6269600000000001  0.80965  0.06706  1.0000
  O   O9        1.0  0.81604  0.59661  0.07651000000000001  1.0000
  O   O10       1.0  0.04560999999999996  0.6385000000000001  0.08106  1.0000
  O   O11       1.0  0.8336400000000002  0.83371  0.0011  1.0000
  O   O12       1.0  0.5244799999999998  0.69581  0.42404000000000003  1.0000
  O   O13       1.0  0.26051  0.73959  0.58459  1.0000
  O   O14       1.0  0.5323  0.6950800000000003  0.5738200000000002  1.0000
  O   O15       1.0  0.74484  0.5034999999999998  0.57637  1.0000
  O   O16       1.0  0.69912  0.27656  0.57196  1.0000
  O   O17       1.0  0.49894  0.2565  0.41986  1.0000
  O   O18       1.0  0.27249999999999996  0.5280800000000001  0.42915000000000003  1.0000
  O   O19       1.0  0.2520600000000001  0.74038  0.42301  1.0000
  O   O20       1.0  0.7363899999999999  0.50429  0.41479  1.0000
  O   O21       1.0  0.6913  0.27729  0.42217  1.0000
  O   O22       1.0  0.4999900000000001  0.49998999999999993  0.4999800000000001  1.0000
  O   O23       1.0  0.0894  0.82569  0.93057  1.0000
  O   O24       1.0  0.8184599999999999  0.05444  0.9298500000000001  1.0000
  O   O25       1.0  0.60606  0.07715  0.91551  1.0000
  O   O26       1.0  0.6465500000000001  0.80668  0.9175700000000001  1.0000
