data_image0
_chemical_formula_structural       O3CO2CO2VOCOCVOCH3C13H5C3HCHC4H3C3HCHC4H4CH3C13H5O3CO2CO2VOCOCVO2CH3
_chemical_formula_sum              "O21 C53 V4 H30"
_cell_length_a       6.9596
_cell_length_b       13.585520000000002
_cell_length_c       20.246780000000005
_cell_angle_alpha    103.03527
_cell_angle_beta     90.64669
_cell_angle_gamma    90.05554

_space_group_name_H-M_alt    "P 1"
_space_group_IT_number       1

loop_
  _space_group_symop_operation_xyz
  'x, y, z'

loop_
  _atom_site_type_symbol
  _atom_site_label
  _atom_site_symmetry_multiplicity
  _atom_site_fract_x
  _atom_site_fract_y
  _atom_site_fract_z
  _atom_site_occupancy
  O   O1        1.0  0.50677  0.5997  0.44955  1.0000
  O   O2        1.0  0.17998000000000006  0.5957399999999999  0.58796  1.0000
  O   O3        1.0  0.004580000000000001  0.4003  0.55045  1.0000
  C   C1        1.0  0.34872000000000003  0.61781  0.61504  1.0000
  O   O4        1.0  0.17738  0.6116999999999998  0.45237999999999995  1.0000
  O   O5        1.0  0.00197  0.4163699999999999  0.4139  1.0000
  C   C2        1.0  0.34528  0.6391899999999998  0.43624  1.0000
  O   O6        1.0  0.50939  0.58363  0.5861  1.0000
  O   O7        1.0  0.3375300000000001  0.4358899999999999  0.48753  1.0000
  V   V1        1.0  0.06466000000000001  0.5118899999999997  0.50231  1.0000
  O   O8        1.0  0.6719500000000002  0.4042599999999999  0.41204  1.0000
  C   C3        1.0  0.8398200000000002  0.38210999999999995  0.38497  1.0000
  O   O9        1.0  0.6745400000000003  0.3883  0.54762  1.0000
  C   C4        1.0  0.84399  0.36159999999999987  0.56415  1.0000
  V   V2        1.0  0.56403  0.4881099999999999  0.49768999999999997  1.0000
  O   O10       1.0  0.84103  0.56411  0.51247  1.0000
  C   C5        1.0  0.89472  0.11063999999999999  0.61054  1.0000
  H   H1        1.0  0.8904500000000002  0.16067  0.51731  1.0000
  H   H2        1.0  0.91789  0.9856299999999998  0.69366  1.0000
  H   H3        1.0  0.9144900000000002  0.0323  0.5848  1.0000
  C   C6        1.0  0.8548700000000002  0.28458  0.60397  1.0000
  C   C7        1.0  0.8333  0.31623999999999997  0.9306999999999999  1.0000
  C   C8        1.0  0.81835  0.3922199999999999  0.89515  1.0000
  C   C9        1.0  0.82666  0.3692199999999999  0.8246  1.0000
  C   C10       1.0  0.8504700000000002  0.2683  0.78745  1.0000
  C   C11       1.0  0.8664  0.19076  0.8243600000000001  1.0000
  C   C12       1.0  0.85891  0.24171999999999993  0.71509  1.0000
  C   C13       1.0  0.8841500000000002  0.13869  0.68154  1.0000
  C   C14       1.0  0.89903  0.06428999999999997  0.71891  1.0000
  C   C15       1.0  0.8899700000000001  0.08971  0.78911  1.0000
  C   C16       1.0  0.84366  0.3137199999999999  0.67459  1.0000
  C   C17       1.0  0.88083  0.18331999999999996  0.57202  1.0000
  C   C18       1.0  0.85757  0.21589999999999993  0.8960699999999999  1.0000
  H   H4        1.0  0.82421  0.39313  0.69603  1.0000
  H   H5        1.0  0.8255900000000003  0.33567999999999987  0.98554  1.0000
  H   H6        1.0  0.81386  0.4323799999999999  0.80092  1.0000
  H   H7        1.0  0.7996800000000001  0.4697899999999999  0.9224899999999999  1.0000
  H   H8        1.0  0.90185  0.029109999999999997  0.81561  1.0000
  C   C19       1.0  0.7087400000000003  0.24776  0.20387999999999998  1.0000
  C   C20       1.0  0.8667700000000003  0.18506999999999996  0.18368  1.0000
  C   C21       1.0  0.01978  0.19046  0.23042  1.0000
  H   H9        1.0  0.14298  0.14205  0.21750999999999998  1.0000
  C   C22       1.0  0.01037  0.2541  0.29575  1.0000
  H   H10       1.0  0.12701  0.2529799999999999  0.33132  1.0000
  C   C23       1.0  0.84816  0.31482  0.31622  1.0000
  C   C24       1.0  0.70016  0.3123799999999999  0.26823  1.0000
  C   C25       1.0  0.4915200000000001  0.29004  0.27424  1.0000
  C   C26       1.0  0.50251  0.21844999999999998  0.20370999999999997  1.0000
  H   H11       1.0  0.46780999999999995  0.24850999999999995  0.31493  1.0000
  H   H12       1.0  0.42313000000000006  0.23752999999999994  0.1606  1.0000
  H   H13       1.0  0.4863  0.13774  0.20576999999999998  1.0000
  C   C27       1.0  0.50125  0.6795799999999999  0.73037  1.0000
  C   C28       1.0  0.35252  0.6839999999999998  0.68415  1.0000
  C   C29       1.0  0.19593  0.74789  0.7077  1.0000
  H   H14       1.0  0.07661  0.75318  0.67406  1.0000
  C   C30       1.0  0.19682  0.81042  0.77348  1.0000
  H   H15       1.0  0.07941  0.8623399999999998  0.78833  1.0000
  C   C31       1.0  0.3546100000000001  0.8112499999999999  0.8176099999999998  1.0000
  C   C32       1.0  0.50281  0.7421299999999998  0.79526  1.0000
  C   C33       1.0  0.7137500000000002  0.7601499999999999  0.79322  1.0000
  C   C34       1.0  0.71183  0.6918399999999998  0.72261  1.0000
  H   H16       1.0  0.79451  0.7278999999999998  0.83102  1.0000
  H   H17       1.0  0.7475200000000001  0.8402499999999998  0.79361  1.0000
  H   H18       1.0  0.79101  0.61996  0.71959  1.0000
  H   H19       1.0  0.7446100000000002  0.7321899999999998  0.68201  1.0000
  C   C35       1.0  0.26011000000000006  0.8867599999999997  0.38829  1.0000
  H   H20       1.0  0.24606  0.83484  0.48057999999999995  1.0000
  H   H21       1.0  0.21104000000000003  0.007500000000000004  0.30325  1.0000
  H   H22       1.0  0.20839000000000002  0.9613399999999998  0.41234  1.0000
  C   C36       1.0  0.34839  0.71838  0.39771  1.0000
  C   C37       1.0  0.43308  0.6888299999999998  0.07318  1.0000
  C   C38       1.0  0.47842  0.6182499999999997  0.11082  1.0000
  C   C39       1.0  0.46133000000000013  0.6426299999999998  0.18101  1.0000
  C   C40       1.0  0.3894800000000001  0.73753  0.21543  1.0000
  C   C41       1.0  0.34527000000000013  0.8102499999999999  0.17655  1.0000
  C   C42       1.0  0.36252  0.7629599999999997  0.28714  1.0000
  C   C43       1.0  0.2957800000000001  0.86113  0.31841  1.0000
  C   C44       1.0  0.26059  0.9323000000000001  0.2796  1.0000
  C   C45       1.0  0.2842100000000001  0.9072999999999998  0.20980999999999997  1.0000
  C   C46       1.0  0.3922000000000001  0.69315  0.32872  1.0000
  C   C47       1.0  0.28278  0.81523  0.42736  1.0000
  C   C48       1.0  0.36943  0.78517  0.10524999999999998  1.0000
  H   H23       1.0  0.43913  0.6168999999999998  0.3087  1.0000
  H   H24       1.0  0.45604  0.6698  0.01893  1.0000
  H   H25       1.0  0.51049  0.58654  0.207  1.0000
  H   H26       1.0  0.5332600000000001  0.54501  0.08561  1.0000
  H   H27       1.0  0.25255000000000005  0.9647199999999998  0.18202  1.0000
  O   O11       1.0  0.20345  0.9163199999999998  0.9139099999999999  1.0000
  O   O12       1.0  0.53552  0.8882999999999998  0.04762  1.0000
  O   O13       1.0  0.71086  0.08364999999999997  0.0861  1.0000
  C   C49       1.0  0.3683400000000001  0.86263  0.06517  1.0000
  O   O14       1.0  0.53286  0.9042499999999998  0.9120399999999999  1.0000
  O   O15       1.0  0.70819  0.09971000000000006  0.9495500000000001  1.0000
  C   C50       1.0  0.3639200000000001  0.8825599999999998  0.88482  1.0000
  O   O16       1.0  0.20612000000000005  0.9002599999999997  0.05046  1.0000
  O   O17       1.0  0.37528  0.06408  0.01247  1.0000
  V   V3        1.0  0.64818  0.9881099999999999  0.99769  1.0000
  O   O18       1.0  0.038220000000000004  0.11173999999999991  0.9523699999999999  1.0000
  C   C51       1.0  0.86873  0.13837  0.93582  1.0000
  O   O19       1.0  0.04088000000000001  0.09578999999999997  0.08794  1.0000
  C   C52       1.0  0.87313  0.11596999999999998  0.11563  1.0000
  V   V4        1.0  0.1488  0.01195  0.0023  1.0000
  O   O20       1.0  0.8718200000000003  0.9359199999999998  0.9875299999999999  1.0000
  O   O21       1.0  0.37815  0.3797099999999999  0.28523  1.0000
  C   C53       1.0  0.3169200000000001  0.4085999999999999  0.22575  1.0000
  H   H28       1.0  0.20438000000000006  0.35645999999999994  0.19866  1.0000
  H   H29       1.0  0.43947000000000014  0.41449999999999987  0.19214  1.0000
  H   H30       1.0  0.24863  0.48392  0.24037  1.0000
