data_image0
_chemical_formula_structural       O3CO2CO2VOCOCVOCH3C13H5C3HCHC4H4C3HCHC4H4CH3C13H4O3CO2CO2VOCOCVOSO3H
_chemical_formula_sum              "O23 C52 V4 H28 S1"
_cell_length_a       6.95826
_cell_length_b       13.537729999999998
_cell_length_c       20.25677
_cell_angle_alpha    103.03024999999998
_cell_angle_beta     89.70915
_cell_angle_gamma    90.81597

_space_group_name_H-M_alt    "P 1"
_space_group_IT_number       1

loop_
  _space_group_symop_operation_xyz
  'x, y, z'

loop_
  _atom_site_type_symbol
  _atom_site_label
  _atom_site_symmetry_multiplicity
  _atom_site_fract_x
  _atom_site_fract_y
  _atom_site_fract_z
  _atom_site_occupancy
  O   O1        1.0  0.50677  0.5997  0.44955  1.0000
  O   O2        1.0  0.17998  0.59574  0.58796  1.0000
  O   O3        1.0  0.004580000000000004  0.4003000000000001  0.5504499999999999  1.0000
  C   C1        1.0  0.34825  0.61772  0.6150699999999999  1.0000
  O   O4        1.0  0.17738  0.6117000000000001  0.45237999999999995  1.0000
  O   O5        1.0  0.0019700000000000013  0.41637  0.41389999999999993  1.0000
  C   C2        1.0  0.34704  0.6378000000000003  0.43512  1.0000
  O   O6        1.0  0.50939  0.58363  0.5861  1.0000
  O   O7        1.0  0.33753  0.43589000000000006  0.48752999999999996  1.0000
  V   V1        1.0  0.06466  0.51189  0.50231  1.0000
  O   O8        1.0  0.67195  0.40426000000000006  0.41204  1.0000
  C   C3        1.0  0.84057  0.38276  0.3847799999999999  1.0000
  O   O9        1.0  0.67454  0.3883000000000001  0.54762  1.0000
  C   C4        1.0  0.84224  0.3614500000000001  0.56417  1.0000
  V   V2        1.0  0.56403  0.48811  0.49769  1.0000
  O   O10       1.0  0.84103  0.56411  0.51247  1.0000
  C   C5        1.0  0.83495  0.10838000000000005  0.61053  1.0000
  H   H1        1.0  0.82703  0.15825999999999996  0.5172999999999999  1.0000
  H   H2        1.0  0.83474  0.9826200000000002  0.69364  1.0000
  H   H3        1.0  0.82659  0.029049999999999986  0.58478  1.0000
  C   C6        1.0  0.8471199999999999  0.2841200000000001  0.60398  1.0000
  C   C7        1.0  0.87496  0.31797  0.9307299999999998  1.0000
  C   C8        1.0  0.87538  0.3945000000000001  0.8951999999999999  1.0000
  C   C9        1.0  0.86789  0.37086000000000013  0.82464  1.0000
  C   C10       1.0  0.85968  0.26871  0.78748  1.0000
  C   C11       1.0  0.85762  0.19057999999999997  0.82438  1.0000
  C   C12       1.0  0.85357  0.24147000000000002  0.7151099999999999  1.0000
  C   C13       1.0  0.84362  0.13716999999999996  0.6815399999999999  1.0000
  C   C14       1.0  0.84182  0.062229999999999924  0.7188999999999998  1.0000
  C   C15       1.0  0.84909  0.08832  0.78911  1.0000
  C   C16       1.0  0.85654  0.3140199999999999  0.6746099999999998  1.0000
  C   C17       1.0  0.8356  0.18155  0.5720199999999999  1.0000
  C   C18       1.0  0.86555  0.21638999999999994  0.8960899999999998  1.0000
  H   H4        1.0  0.86426  0.39439  0.69607  1.0000
  H   H5        1.0  0.8821899999999999  0.33798  0.9855799999999998  1.0000
  H   H6        1.0  0.86881  0.43452000000000013  0.80097  1.0000
  H   H7        1.0  0.88222  0.47301999999999994  0.92256  1.0000
  H   H8        1.0  0.84767  0.02723999999999997  0.8155999999999999  1.0000
  C   C19       1.0  0.7156899999999999  0.25513  0.20265  1.0000
  C   C20       1.0  0.86763  0.18810000000000004  0.18276  1.0000
  C   C21       1.0  0.02059  0.19285  0.22880999999999999  1.0000
  H   H9        1.0  0.14107  0.14269  0.21570999999999999  1.0000
  C   C22       1.0  0.01288  0.25689  0.29413  1.0000
  H   H10       1.0  0.12834  0.25492  0.32928999999999997  1.0000
  C   C23       1.0  0.85132  0.31743  0.3155  1.0000
  C   C24       1.0  0.70751  0.31777  0.26747  1.0000
  C   C25       1.0  0.49667  0.30121  0.27277  1.0000
  C   C26       1.0  0.50511  0.23377000000000003  0.20189999999999994  1.0000
  H   H11       1.0  0.41534  0.37201000000000006  0.27568  1.0000
  H   H12       1.0  0.46072  0.25899  0.31242  1.0000
  H   H13       1.0  0.42896  0.26575  0.16351  1.0000
  H   H14       1.0  0.47264  0.15275  0.20038999999999998  1.0000
  C   C27       1.0  0.4987  0.6786000000000002  0.73005  1.0000
  C   C28       1.0  0.35153999999999996  0.68374  0.68422  1.0000
  C   C29       1.0  0.1969  0.74862  0.70812  1.0000
  H   H15       1.0  0.0789  0.7545000000000001  0.6747899999999998  1.0000
  C   C30       1.0  0.19861  0.81153  0.7738  1.0000
  H   H16       1.0  0.08286999999999999  0.8643300000000003  0.7889399999999999  1.0000
  C   C31       1.0  0.35519999999999996  0.81159  0.8174899999999999  1.0000
  C   C32       1.0  0.50099  0.7413600000000002  0.79488  1.0000
  C   C33       1.0  0.71284  0.75807  0.7923  1.0000
  C   C34       1.0  0.71015  0.68948  0.72174  1.0000
  H   H17       1.0  0.79079  0.7252300000000002  0.8298999999999999  1.0000
  H   H18       1.0  0.75037  0.8381899999999999  0.7925499999999998  1.0000
  H   H19       1.0  0.786  0.61683  0.7185699999999999  1.0000
  H   H20       1.0  0.74629  0.7297000000000001  0.68106  1.0000
  C   C35       1.0  0.40319000000000005  0.8907200000000002  0.38985  1.0000
  H   H21       1.0  0.40664000000000006  0.83896  0.4824899999999999  1.0000
  H   H22       1.0  0.44851  0.01429999999999997  0.3059899999999999  1.0000
  H   H23       1.0  0.43514999999999987  0.9684800000000002  0.41546  1.0000
  C   C36       1.0  0.35823  0.71578  0.39567  1.0000
  C   C37       1.0  0.29172  0.68681  0.07157  1.0000
  C   C38       1.0  0.22162  0.61847  0.10797  1.0000
  C   C39       1.0  0.20899  0.64518  0.17877  1.0000
  C   C40       1.0  0.29879  0.73753  0.21465  1.0000
  C   C41       1.0  0.35276  0.81078  0.17673  1.0000
  C   C42       1.0  0.33259  0.7622500000000002  0.28615  1.0000
  C   C43       1.0  0.37982  0.86384  0.31919999999999993  1.0000
  C   C44       1.0  0.41056  0.9368500000000002  0.28133  1.0000
  C   C45       1.0  0.4045699999999999  0.9099200000000001  0.21110999999999996  1.0000
  C   C46       1.0  0.33658  0.6883  0.32525  1.0000
  C   C47       1.0  0.38908  0.8172000000000003  0.428  1.0000
  C   C48       1.0  0.34715  0.7846  0.10502999999999997  1.0000
  H   H24       1.0  0.32951  0.60869  0.30156999999999995  1.0000
  H   H25       1.0  0.28634  0.6662700000000003  0.0167  1.0000
  H   H26       1.0  0.16077  0.5472  0.08012999999999998  1.0000
  H   H27       1.0  0.44  0.96793  0.18387  1.0000
  O   O11       1.0  0.20345  0.91632  0.9139099999999999  1.0000
  O   O12       1.0  0.53552  0.8883000000000002  0.04761999999999999  1.0000
  O   O13       1.0  0.7108599999999999  0.08365000000000003  0.08609999999999998  1.0000
  C   C49       1.0  0.36532  0.86183  0.06464  1.0000
  O   O14       1.0  0.53286  0.9042500000000003  0.91204  1.0000
  O   O15       1.0  0.7081899999999998  0.09970999999999998  0.9495499999999999  1.0000
  C   C50       1.0  0.3644  0.8827000000000002  0.8847799999999999  1.0000
  O   O16       1.0  0.20611999999999994  0.90026  0.05046  1.0000
  O   O17       1.0  0.37527999999999995  0.06408  0.012469999999999997  1.0000
  V   V3        1.0  0.64818  0.9881100000000003  0.9976899999999999  1.0000
  O   O18       1.0  0.03822  0.11174000000000005  0.95237  1.0000
  C   C51       1.0  0.8705199999999998  0.13852999999999988  0.9358199999999999  1.0000
  O   O19       1.0  0.04088  0.09579  0.08793999999999999  1.0000
  C   C52       1.0  0.87267  0.11726  0.11525  1.0000
  V   V4        1.0  0.14879999999999996  0.011950000000000004  0.0022999999999999995  1.0000
  O   O20       1.0  0.87182  0.93592  0.9875299999999999  1.0000
  S   S1        1.0  0.03448  0.57526  0.21496  1.0000
  O   O21       1.0  0.9524  0.6387200000000002  0.27918  1.0000
  O   O22       1.0  0.87231  0.54266  0.16571  1.0000
  O   O23       1.0  0.13349999999999995  0.47077  0.2313  1.0000
  H   H28       1.0  0.16582  0.4279500000000001  0.18629  1.0000
