data_image0
_chemical_formula_structural       C140Cr12H64O52CNCNCNCNSO3HSO3HSO3HSO3H
_chemical_formula_sum              "C144 Cr12 H68 O64 N4 S4"
_cell_length_a       19.26989
_cell_length_b       11.29268
_cell_length_c       18.7389
_cell_angle_alpha    90.23651
_cell_angle_beta     92.20722
_cell_angle_gamma    90.16409999999999

_symmetry_space_group_name_H-M    'P 1'
_symmetry_Int_Tables_number       1

loop_
  _symmetry_equiv_pos_as_xyz
  'x,y,z'

loop_
  _atom_site_type_symbol
  _atom_site_label
  _atom_site_symmetry_multiplicity
  _atom_site_fract_x
  _atom_site_fract_y
  _atom_site_fract_z
  _atom_site_occupancy
  C   C1        1.0  0.7114  0.33327  0.1391  1.0000
  C   C2        1.0  0.28655999999999987  0.33525  0.86136  1.0000
  C   C3        1.0  0.22788999999999998  0.8740800000000001  0.14576  1.0000
  C   C4        1.0  0.78864  0.83205  0.8607899999999999  1.0000
  C   C5        1.0  0.47752999999999995  0.06432  0.02522  1.0000
  C   C6        1.0  0.5326399999999999  0.06849000000000001  0.96734  1.0000
  C   C7        1.0  0.9794499999999999  0.55946  0.02746  1.0000
  C   C8        1.0  0.03493  0.56663  0.97  1.0000
  C   C9        1.0  0.78004  0.84763  0.93861  1.0000
  C   C10       1.0  0.24062  0.90945  0.07186999999999998  1.0000
  C   C11       1.0  0.27464  0.35086  0.93898  1.0000
  C   C12       1.0  0.71907  0.3529  0.061689999999999995  1.0000
  C   C13       1.0  0.71738  0.8134000000000001  0.9706399999999998  1.0000
  C   C14       1.0  0.30340999999999996  0.87907  0.04095  1.0000
  C   C15       1.0  0.21036  0.31957  0.9695899999999998  1.0000
  C   C16       1.0  0.78025  0.31677  0.02825  1.0000
  C   C17       1.0  0.70044  0.8659  0.03586  1.0000
  C   C18       1.0  0.30768  0.87824  0.96551  1.0000
  C   C19       1.0  0.19957999999999995  0.34939  0.04211  1.0000
  C   C20       1.0  0.7974599999999998  0.37051  0.9640299999999999  1.0000
  C   C21       1.0  0.81993  0.9219900000000001  0.05442  1.0000
  C   C22       1.0  0.18881  0.94158  0.95326  1.0000
  C   C23       1.0  0.3192699999999999  0.40452000000000005  0.05809999999999999  1.0000
  C   C24       1.0  0.67957  0.43424  0.9478799999999998  1.0000
  C   C25       1.0  0.8308199999999999  0.9081300000000001  0.982  1.0000
  C   C26       1.0  0.18348  0.9446  0.026469999999999997  1.0000
  C   C27       1.0  0.3279  0.39809  0.9849399999999999  1.0000
  C   C28       1.0  0.66895  0.4184800000000001  0.02012  1.0000
  C   C29       1.0  0.66563  0.7453799999999999  0.9352299999999999  1.0000
  C   C30       1.0  0.36162  0.84403  0.08341  1.0000
  C   C31       1.0  0.15365  0.26732  0.9303599999999999  1.0000
  C   C32       1.0  0.83042  0.24416  0.06122999999999999  1.0000
  C   C33       1.0  0.08806  0.27015  0.95507  1.0000
  C   C34       1.0  0.8989299999999999  0.25528  0.04648  1.0000
  C   C35       1.0  0.5970899999999999  0.76211  0.94766  1.0000
  C   C36       1.0  0.41451  0.78298  0.05324  1.0000
  C   C37       1.0  0.58019  0.82497  0.007159999999999999  1.0000
  C   C38       1.0  0.41725999999999996  0.77818  0.97942  1.0000
  C   C39       1.0  0.07953  0.29529  0.02621  1.0000
  C   C40       1.0  0.91631  0.31914  0.98724  1.0000
  C   C41       1.0  0.63002  0.8767800000000001  0.05034  1.0000
  C   C42       1.0  0.36724  0.83051  0.93616  1.0000
  C   C43       1.0  0.13403  0.32905  0.06929  1.0000
  C   C44       1.0  0.8674399999999999  0.37927  0.94861  1.0000
  C   C45       1.0  0.5356999999999998  0.15455  0.14296  1.0000
  C   C46       1.0  0.46773  0.15575  0.85478  1.0000
  C   C47       1.0  0.03461  0.65463  0.14375  1.0000
  C   C48       1.0  0.96769  0.65495  0.85511  1.0000
  C   C49       1.0  0.7536599999999999  0.9128300000000001  0.08048  1.0000
  C   C50       1.0  0.25109  0.91903  0.92227  1.0000
  C   C51       1.0  0.25409  0.39722000000000013  0.08526999999999998  1.0000
  C   C52       1.0  0.74511  0.41928  0.9204299999999999  1.0000
  C   C53       1.0  0.5001  0.17271  0.57708  1.0000
  C   C54       1.0  0.50471  0.16204  0.4261099999999999  1.0000
  C   C55       1.0  0.00010999999999999857  0.67271  0.57709  1.0000
  C   C56       1.0  0.004719999999999995  0.66204  0.4261099999999999  1.0000
  C   C57       1.0  0.52178  0.0693  0.5429  1.0000
  C   C58       1.0  0.50932  0.05881  0.46888  1.0000
  C   C59       1.0  0.021789999999999997  0.56929  0.5429  1.0000
  C   C60       1.0  0.00933  0.55881  0.46889  1.0000
  C   C61       1.0  0.49162  0.27109  0.45985  1.0000
  C   C62       1.0  0.48761999999999994  0.2763  0.53497  1.0000
  C   C63       1.0  0.99164  0.7711  0.45985999999999994  1.0000
  C   C64       1.0  0.98764  0.77631  0.53498  1.0000
  C   C65       1.0  0.54635  0.9698300000000001  0.58162  1.0000
  C   C66       1.0  0.49965999999999994  0.94414  0.44067999999999996  1.0000
  C   C67       1.0  0.04635  0.46982000000000007  0.58162  1.0000
  C   C68       1.0  0.9996599999999999  0.44415  0.44067999999999996  1.0000
  C   C69       1.0  0.04082  0.35767000000000004  0.55144  1.0000
  C   C70       1.0  0.015350000000000004  0.34589  0.48150999999999994  1.0000
  C   C71       1.0  0.54082  0.85768  0.55144  1.0000
  C   C72       1.0  0.51535  0.84589  0.48150999999999994  1.0000
  C   C73       1.0  0.7380499999999999  0.93798  0.58498  1.0000
  C   C74       1.0  0.26102999999999993  0.96537  0.40903  1.0000
  C   C75       1.0  0.23804999999999998  0.43798  0.58498  1.0000
  C   C76       1.0  0.7610099999999999  0.46535000000000004  0.40904  1.0000
  C   C77       1.0  0.7658  0.04594000000000001  0.56418  1.0000
  C   C78       1.0  0.21383999999999997  0.04303  0.44018  1.0000
  C   C79       1.0  0.26579  0.54595  0.56419  1.0000
  C   C80       1.0  0.71382  0.54299  0.4402  1.0000
  C   C81       1.0  0.77336  0.06655  0.49073  1.0000
  C   C82       1.0  0.20544999999999994  0.03268  0.51402  1.0000
  C   C83       1.0  0.2733499999999999  0.56656  0.49073  1.0000
  C   C84       1.0  0.70544  0.53263  0.51404  1.0000
  C   C85       1.0  0.6949199999999999  0.9006200000000001  0.4653999999999999  1.0000
  C   C86       1.0  0.32566  0.96878  0.52173  1.0000
  C   C87       1.0  0.19491999999999998  0.40062  0.46541  1.0000
  C   C88       1.0  0.82565  0.46876000000000007  0.52173  1.0000
  C   C89       1.0  0.74107  0.97115  0.14864  1.0000
  C   C90       1.0  0.25905  0.9697900000000003  0.8509599999999999  1.0000
  C   C91       1.0  0.24189999999999998  0.46619000000000005  0.15062  1.0000
  C   C92       1.0  0.7586599999999999  0.47255000000000014  0.85145  1.0000
  C   C93       1.0  0.7003  0.86801  0.53604  1.0000
  C   C94       1.0  0.32143999999999995  0.9399  0.44858  1.0000
  C   C95       1.0  0.2003  0.36801  0.53604  1.0000
  C   C96       1.0  0.8214299999999999  0.43989000000000006  0.44858999999999993  1.0000
  C   C97       1.0  0.79521  0.12462000000000001  0.61561  1.0000
  C   C98       1.0  0.16499  0.10644000000000002  0.39819  1.0000
  C   C99       1.0  0.2951999999999999  0.62462  0.61562  1.0000
  C   C100      1.0  0.66496  0.6064  0.39822999999999986  1.0000
  C   C101      1.0  0.8456899999999999  0.20352  0.59623  1.0000
  C   C102      1.0  0.09870999999999998  0.12022  0.42225  1.0000
  C   C103      1.0  0.34568  0.70353  0.59623  1.0000
  C   C104      1.0  0.59868  0.62018  0.42228999999999994  1.0000
  C   C105      1.0  0.8621  0.21047000000000002  0.52525  1.0000
  C   C106      1.0  0.08405999999999997  0.08504  0.49124  1.0000
  C   C107      1.0  0.3621  0.7104800000000002  0.52526  1.0000
  C   C108      1.0  0.58404  0.585  0.4912899999999999  1.0000
  C   C109      1.0  0.82331  0.15092  0.47209  1.0000
  C   C110      1.0  0.1371  0.04623  0.53806  1.0000
  C   C111      1.0  0.32329999999999987  0.6509300000000001  0.4721  1.0000
  C   C112      1.0  0.63709  0.54616  0.53809  1.0000
  C   C113      1.0  0.73424  0.9957  0.44056  1.0000
  C   C114      1.0  0.2651  0.0011500000000000004  0.55716  1.0000
  C   C115      1.0  0.23424  0.49571  0.44056  1.0000
  C   C116      1.0  0.7650899999999999  0.50112  0.55717  1.0000
  C   C117      1.0  0.73398  0.38835  0.34922999999999993  1.0000
  C   C118      1.0  0.2671  0.38127000000000005  0.64836  1.0000
  C   C119      1.0  0.23398  0.88835  0.34922999999999993  1.0000
  C   C120      1.0  0.7671  0.8812700000000001  0.64836  1.0000
  C   C121      1.0  0.5327699999999999  0.15672  0.3529999999999999  1.0000
  C   C122      1.0  0.46784  0.15866  0.64769  1.0000
  C   C123      1.0  0.03277  0.65672  0.3529999999999999  1.0000
  C   C124      1.0  0.96785  0.6586600000000001  0.64769  1.0000
  C   C125      1.0  0.7296899999999998  0.02086  0.3638  1.0000
  C   C126      1.0  0.26952999999999994  0.01868  0.63578  1.0000
  C   C127      1.0  0.22969  0.52086  0.3638  1.0000
  C   C128      1.0  0.7695199999999999  0.51867  0.63578  1.0000
  C   C129      1.0  0.53063  0.26163  0.97008  1.0000
  C   C130      1.0  0.47547  0.25774  0.02836  1.0000
  C   C131      1.0  0.02719999999999999  0.76035  0.9710399999999999  1.0000
  C   C132      1.0  0.9712999999999999  0.7524800000000001  0.02853  1.0000
  C   C133      1.0  0.57297  0.16512  0.009739999999999999  1.0000
  C   C134      1.0  0.43508  0.16055  0.98639  1.0000
  C   C135      1.0  0.07184999999999998  0.6677  0.01185  1.0000
  C   C136      1.0  0.93457  0.65165  0.9869  1.0000
  C   C137      1.0  0.51717  0.16112  0.0665  1.0000
  C   C138      1.0  0.4905299999999999  0.16435  0.92953  1.0000
  C   C139      1.0  0.01561  0.66044  0.06777  1.0000
  C   C140      1.0  0.9905999999999997  0.6597  0.9303599999999999  1.0000
  Cr  Cr1       1.0  0.7728199999999997  0.16982  0.25264  1.0000
  Cr  Cr2       1.0  0.22718  0.16982  0.74736  1.0000
  Cr  Cr3       1.0  0.27282  0.66982  0.25264  1.0000
  Cr  Cr4       1.0  0.72718  0.66982  0.74736  1.0000
  Cr  Cr5       1.0  0.6150399999999999  0.32361  0.24915  1.0000
  Cr  Cr6       1.0  0.3849599999999999  0.32361  0.75085  1.0000
  Cr  Cr7       1.0  0.11503999999999999  0.82361  0.24915  1.0000
  Cr  Cr8       1.0  0.8849599999999999  0.82361  0.75085  1.0000
  Cr  Cr9       1.0  0.6167199999999999  0.011130000000000001  0.25065999999999994  1.0000
  Cr  Cr10      1.0  0.38328  0.011130000000000001  0.74934  1.0000
  Cr  Cr11      1.0  0.11672  0.51113  0.25065999999999994  1.0000
  Cr  Cr12      1.0  0.88328  0.5111299999999999  0.74934  1.0000
  H   H1        1.0  0.62986  0.16428  0.02124  1.0000
  H   H2        1.0  0.37814999999999993  0.15688  0.97497  1.0000
  H   H3        1.0  0.12854  0.67449  0.024359999999999993  1.0000
  H   H4        1.0  0.87776  0.64499  0.97516  1.0000
  H   H5        1.0  0.56504  0.9776700000000002  0.6367  1.0000
  H   H6        1.0  0.47562999999999994  0.9284600000000001  0.3884  1.0000
  H   H7        1.0  0.06504  0.47765  0.6367  1.0000
  H   H8        1.0  0.9756199999999999  0.42847  0.3884  1.0000
  H   H9        1.0  0.053259999999999995  0.28033  0.58324  1.0000
  H   H10       1.0  0.0021899999999999997  0.26123  0.45930999999999994  1.0000
  H   H11       1.0  0.55326  0.78034  0.58325  1.0000
  H   H12       1.0  0.50218  0.76122  0.45933  1.0000
  H   H13       1.0  0.66391  0.8451500000000001  0.42949999999999994  1.0000
  H   H14       1.0  0.37403999999999993  0.95494  0.55168  1.0000
  H   H15       1.0  0.16391  0.34515  0.42949999999999994  1.0000
  H   H16       1.0  0.8740399999999999  0.45494000000000007  0.55169  1.0000
  H   H17       1.0  0.7842299999999998  0.11690000000000002  0.6717  1.0000
  H   H18       1.0  0.17457  0.12712  0.34297  1.0000
  H   H19       1.0  0.28423  0.6169  0.6717  1.0000
  H   H20       1.0  0.67454  0.6271000000000001  0.34301  1.0000
  H   H21       1.0  0.67847  0.7840900000000001  0.55143  1.0000
  H   H22       1.0  0.36258  0.89246  0.42379  1.0000
  H   H23       1.0  0.17846999999999996  0.2841000000000001  0.55144  1.0000
  H   H24       1.0  0.8625799999999999  0.39247  0.4238  1.0000
  H   H25       1.0  0.8738199999999999  0.25598  0.63624  1.0000
  H   H26       1.0  0.05829  0.15142000000000003  0.38543999999999995  1.0000
  H   H27       1.0  0.3738199999999999  0.75598  0.63626  1.0000
  H   H28       1.0  0.5582599999999999  0.65139  0.38548  1.0000
  H   H29       1.0  0.9025  0.26826  0.5112499999999998  1.0000
  H   H30       1.0  0.03159  0.08942  0.5089  1.0000
  H   H31       1.0  0.4024899999999999  0.76828  0.5112599999999999  1.0000
  H   H32       1.0  0.53158  0.5894  0.50895  1.0000
  H   H33       1.0  0.83652  0.16882  0.41809  1.0000
  H   H34       1.0  0.12116999999999997  0.018600000000000002  0.58978  1.0000
  H   H35       1.0  0.3365199999999999  0.66883  0.4181  1.0000
  H   H36       1.0  0.6211599999999999  0.51852  0.58981  1.0000
  H   H37       1.0  0.55239  0.33768  0.94191  1.0000
  H   H38       1.0  0.4531  0.33131  0.05827  1.0000
  H   H39       1.0  0.04924999999999999  0.8386800000000001  0.9449799999999999  1.0000
  H   H40       1.0  0.94592  0.82356  0.058159999999999996  1.0000
  H   H41       1.0  0.45684999999999987  0.99083  0.05528999999999999  1.0000
  H   H42       1.0  0.55591  0.0010199999999999992  0.9328099999999999  1.0000
  H   H43       1.0  0.96151  0.48549000000000003  0.060369999999999986  1.0000
  H   H44       1.0  0.06155999999999999  0.49518000000000006  0.94156  1.0000
  H   H45       1.0  0.86079  0.9591200000000001  0.08876  1.0000
  H   H46       1.0  0.14482  0.96655  0.91916  1.0000
  H   H47       1.0  0.36083  0.43769000000000013  0.09309  1.0000
  H   H48       1.0  0.63907  0.47452  0.91484  1.0000
  H   H49       1.0  0.6754399999999999  0.68357  0.8955  1.0000
  H   H50       1.0  0.36753  0.86276  0.13985  1.0000
  H   H51       1.0  0.15573000000000004  0.21457  0.88324  1.0000
  H   H52       1.0  0.8188  0.18118000000000004  0.09959  1.0000
  H   H53       1.0  0.04615999999999999  0.23271000000000003  0.9219099999999998  1.0000
  H   H54       1.0  0.93665  0.21182000000000004  0.08121  1.0000
  H   H55       1.0  0.55831  0.7238  0.9113599999999998  1.0000
  H   H56       1.0  0.45554999999999995  0.7453000000000002  0.08706  1.0000
  H   H57       1.0  0.03375999999999999  0.27216  0.05254  1.0000
  H   H58       1.0  0.9668999999999999  0.33294  0.97073  1.0000
  H   H59       1.0  0.52914  0.8458500000000001  0.018089999999999995  1.0000
  H   H60       1.0  0.45741999999999994  0.72959  0.95449  1.0000
  H   H61       1.0  0.60941  0.9350800000000001  0.08845  1.0000
  H   H62       1.0  0.37283  0.81524  0.88007  1.0000
  H   H63       1.0  0.12305  0.32249  0.12473  1.0000
  H   H64       1.0  0.8885599999999999  0.44157000000000013  0.9132  1.0000
  O   O1        1.0  0.78819  0.043  0.17252  1.0000
  O   O2        1.0  0.21181  0.043  0.82748  1.0000
  O   O3        1.0  0.28819  0.543  0.17252  1.0000
  O   O4        1.0  0.71181  0.543  0.82748  1.0000
  O   O5        1.0  0.55655  0.25326  0.3234799999999999  1.0000
  O   O6        1.0  0.44344999999999996  0.25326  0.67652  1.0000
  O   O7        1.0  0.05654999999999999  0.7532600000000002  0.3234799999999999  1.0000
  O   O8        1.0  0.9434500000000002  0.7532600000000002  0.67652  1.0000
  O   O9        1.0  0.54583  0.05161  0.33016  1.0000
  O   O10       1.0  0.45417  0.05161  0.66984  1.0000
  O   O11       1.0  0.04583  0.55161  0.33016  1.0000
  O   O12       1.0  0.95417  0.55161  0.66984  1.0000
  O   O13       1.0  0.68192  0.95972  0.32707  1.0000
  O   O14       1.0  0.31807999999999986  0.95972  0.67293  1.0000
  O   O15       1.0  0.18192  0.45972000000000013  0.32707  1.0000
  O   O16       1.0  0.8180799999999998  0.45972000000000013  0.67293  1.0000
  O   O17       1.0  0.6681899999999998  0.16819  0.25082  1.0000
  O   O18       1.0  0.33180999999999994  0.16819  0.7491799999999997  1.0000
  O   O19       1.0  0.16819  0.66819  0.25082  1.0000
  O   O20       1.0  0.83181  0.66819  0.7491799999999997  1.0000
  O   O21       1.0  0.76624  0.2923  0.17686  1.0000
  O   O22       1.0  0.23376  0.2923  0.82314  1.0000
  O   O23       1.0  0.26624  0.7923000000000001  0.17686  1.0000
  O   O24       1.0  0.73376  0.7923000000000001  0.82314  1.0000
  O   O25       1.0  0.67031  0.40916  0.16872  1.0000
  O   O26       1.0  0.32969  0.40916  0.83128  1.0000
  O   O27       1.0  0.17031  0.9091600000000001  0.16872  1.0000
  O   O28       1.0  0.82969  0.9091600000000001  0.83128  1.0000
  O   O29       1.0  0.5561599999999999  0.2519  0.17338  1.0000
  O   O30       1.0  0.44384  0.2519  0.82662  1.0000
  O   O31       1.0  0.056159999999999995  0.7519000000000001  0.17338  1.0000
  O   O32       1.0  0.94384  0.7519000000000001  0.82662  1.0000
  O   O33       1.0  0.54541  0.050140000000000004  0.16824  1.0000
  O   O34       1.0  0.45459  0.050140000000000004  0.83176  1.0000
  O   O35       1.0  0.04541  0.55014  0.16824  1.0000
  O   O36       1.0  0.9545899999999999  0.55014  0.83176  1.0000
  O   O37       1.0  0.6815299999999997  0.95835  0.17697  1.0000
  O   O38       1.0  0.31847  0.95835  0.82303  1.0000
  O   O39       1.0  0.18153  0.45835  0.17697  1.0000
  O   O40       1.0  0.81847  0.45835  0.82303  1.0000
  O   O41       1.0  0.78861  0.044480000000000006  0.33445  1.0000
  O   O42       1.0  0.21138999999999997  0.044480000000000006  0.6655499999999998  1.0000
  O   O43       1.0  0.28861  0.54448  0.33445  1.0000
  O   O44       1.0  0.71139  0.54448  0.6655499999999998  1.0000
  O   O45       1.0  0.76663  0.29367  0.32697  1.0000
  O   O46       1.0  0.2333699999999999  0.29367  0.6730299999999998  1.0000
  O   O47       1.0  0.26663  0.79367  0.32697  1.0000
  O   O48       1.0  0.73337  0.79367  0.6730299999999998  1.0000
  O   O49       1.0  0.6707299999999999  0.41064  0.3306399999999999  1.0000
  O   O50       1.0  0.32926999999999995  0.41064  0.66936  1.0000
  O   O51       1.0  0.17072999999999994  0.9106400000000001  0.3306399999999999  1.0000
  O   O52       1.0  0.82927  0.9106400000000001  0.66936  1.0000
  C   C141      1.0  0.47462  0.37454000000000004  0.41704999999999987  1.0000
  N   N1        1.0  0.46044  0.45670000000000005  0.38283  1.0000
  C   C142      1.0  0.4698399999999999  0.38816  0.5677699999999999  1.0000
  N   N2        1.0  0.45554  0.47703000000000007  0.59434  1.0000
  C   C143      1.0  0.9746499999999998  0.87456  0.41705999999999993  1.0000
  N   N3        1.0  0.96048  0.95672  0.38283999999999996  1.0000
  C   C144      1.0  0.96988  0.88817  0.56778  1.0000
  N   N4        1.0  0.9556  0.97705  0.5943599999999998  1.0000
  S   S1        1.0  0.8979299999999999  0.99868  0.94991  1.0000
  O   O53       1.0  0.94176  0.03889  0.01251  1.0000
  O   O54       1.0  0.9442399999999999  0.9381000000000002  0.89926  1.0000
  O   O55       1.0  0.86072  0.1151  0.9081599999999999  1.0000
  H   H65       1.0  0.8954999999999999  0.14356  0.8745799999999999  1.0000
  S   S2        1.0  0.10547  0.00573  0.055999999999999994  1.0000
  O   O56       1.0  0.06584  0.05453000000000001  0.99331  1.0000
  O   O57       1.0  0.06078  0.91505  0.08819  1.0000
  O   O58       1.0  0.12311999999999998  0.10766  0.11934999999999998  1.0000
  H   H66       1.0  0.08030999999999999  0.11368  0.14683  1.0000
  S   S3        1.0  0.39183  0.49380000000000007  0.95483  1.0000
  O   O59       1.0  0.42956999999999995  0.54692  0.01842  1.0000
  O   O60       1.0  0.44315  0.43482000000000004  0.90876  1.0000
  O   O61       1.0  0.34896  0.5968  0.9064599999999999  1.0000
  H   H67       1.0  0.37732  0.6104200000000001  0.8642099999999999  1.0000
  S   S4        1.0  0.60121  0.50711  0.05397999999999999  1.0000
  O   O62       1.0  0.55652  0.55078  0.99294  1.0000
  O   O63       1.0  0.55536  0.44264  0.10337  1.0000
  O   O64       1.0  0.6378699999999999  0.62238  0.0983  1.0000
  H   H68       1.0  0.60088  0.65429  0.12814  1.0000
