data_image0
_chemical_formula_structural       O8C4O8C4O4V4C4H4C4O4N4C44H8C20O4C4H20NO2NO2NO2NO2
_chemical_formula_sum              "O36 C84 V4 H32 N8"
_cell_length_a       28.19819
_cell_length_b       7.196240000000001
_cell_length_c       17.1948
_cell_angle_alpha    90.08282
_cell_angle_beta     101.95361
_cell_angle_gamma    89.96518000000002

_space_group_name_H-M_alt    "P 1"
_space_group_IT_number       1

loop_
  _space_group_symop_operation_xyz
  'x, y, z'

loop_
  _atom_site_type_symbol
  _atom_site_label
  _atom_site_symmetry_multiplicity
  _atom_site_fract_x
  _atom_site_fract_y
  _atom_site_fract_z
  _atom_site_occupancy
  O   O1        1.0  0.0007000000000000023  0.43651  0.85792  1.0000
  O   O2        1.0  0.9993  0.56349  0.14208  1.0000
  O   O3        1.0  0.9993  0.93651  0.64208  1.0000
  O   O4        1.0  0.0006999999999999971  0.06349  0.35792  1.0000
  O   O5        1.0  0.93008  0.76638  0.72189  1.0000
  O   O6        1.0  0.06992  0.23362000000000005  0.27811  1.0000
  O   O7        1.0  0.06992000000000001  0.26638  0.7781099999999999  1.0000
  O   O8        1.0  0.93008  0.73362  0.22189  1.0000
  C   C1        1.0  0.9105900000000001  0.59758  0.70891  1.0000
  C   C2        1.0  0.08941  0.40243  0.29107  1.0000
  C   C3        1.0  0.0894  0.09755  0.79124  1.0000
  C   C4        1.0  0.9106000000000001  0.9024500000000002  0.20878  1.0000
  O   O9        1.0  0.99618  0.7662300000000002  0.86231  1.0000
  O   O10       1.0  0.003819999999999993  0.23377000000000003  0.13768999999999995  1.0000
  O   O11       1.0  0.0038200000000000057  0.26623  0.63769  1.0000
  O   O12       1.0  0.99618  0.7337700000000003  0.36230999999999997  1.0000
  O   O13       1.0  0.06586999999999998  0.93646  0.7835  1.0000
  O   O14       1.0  0.93413  0.06354  0.2165  1.0000
  O   O15       1.0  0.9341300000000001  0.43646  0.7165  1.0000
  O   O16       1.0  0.06587  0.56354  0.2835  1.0000
  C   C5        1.0  0.9984900000000001  0.5965000000000003  0.8945  1.0000
  C   C6        1.0  0.0015099999999999966  0.40349  0.10549999999999997  1.0000
  C   C7        1.0  0.001509999999999996  0.09639  0.60554  1.0000
  C   C8        1.0  0.9984900000000001  0.9036100000000002  0.39445999999999987  1.0000
  O   O17       1.0  0.02278999999999998  0.6030200000000001  0.7239799999999997  1.0000
  O   O18       1.0  0.97721  0.39698  0.27602  1.0000
  O   O19       1.0  0.97721  0.10302  0.77602  1.0000
  O   O20       1.0  0.02279  0.89698  0.22398  1.0000
  V   V1        1.0  0.9957699999999998  0.8779  0.7548299999999998  1.0000
  V   V2        1.0  0.004229999999999996  0.1221  0.24516999999999997  1.0000
  V   V3        1.0  0.004229999999999996  0.3779  0.74517  1.0000
  V   V4        1.0  0.99577  0.6221  0.25483  1.0000
  C   C9        1.0  0.0017099999999999936  0.08259  0.51961  1.0000
  C   C10       1.0  0.99829  0.9174100000000002  0.48038999999999993  1.0000
  C   C11       1.0  0.9983  0.5826600000000001  0.98047  1.0000
  C   C12       1.0  0.0016999999999999997  0.4173400000000001  0.01953  1.0000
  H   H1        1.0  0.004500000000000001  0.21138  0.488  1.0000
  H   H2        1.0  0.9955  0.78862  0.512  1.0000
  H   H3        1.0  0.99553  0.7114800000000002  0.01223  1.0000
  H   H4        1.0  0.004470000000000015  0.28852  0.9877700000000001  1.0000
  C   C13       1.0  0.6829  0.9170500000000003  0.02812  1.0000
  C   C14       1.0  0.31714  0.08435  0.97189  1.0000
  C   C15       1.0  0.31648  0.44624000000000014  0.47245  1.0000
  C   C16       1.0  0.6834500000000002  0.55691  0.52758  1.0000
  O   O21       1.0  0.7119900000000002  0.8830300000000002  0.97652  1.0000
  O   O22       1.0  0.28811  0.12042000000000001  0.02339  1.0000
  O   O23       1.0  0.28677  0.44086  0.52466  1.0000
  O   O24       1.0  0.7130900000000001  0.56497  0.47531  1.0000
  N   N1        1.0  0.7027800000000001  0.9409500000000001  0.10716  1.0000
  N   N2        1.0  0.2972  0.05851  0.89299  1.0000
  N   N3        1.0  0.29730000000000006  0.4391  0.39249  1.0000
  N   N4        1.0  0.70272  0.5610700000000001  0.60755  1.0000
  C   C17       1.0  0.67402  0.97193  0.16101  1.0000
  C   C18       1.0  0.32589  0.02537  0.8392299999999998  1.0000
  C   C19       1.0  0.32681  0.43854  0.3384399999999999  1.0000
  C   C20       1.0  0.6733  0.55864  0.66172  1.0000
  C   C21       1.0  0.77697  0.77229  0.16731  1.0000
  C   C22       1.0  0.22305  0.22737000000000004  0.8328399999999998  1.0000
  C   C23       1.0  0.22289  0.27004  0.33288  1.0000
  C   C24       1.0  0.77712  0.72995  0.6672  1.0000
  C   C25       1.0  0.82739  0.7602400000000002  0.19122999999999996  1.0000
  C   C26       1.0  0.17264  0.23956000000000005  0.80885  1.0000
  C   C27       1.0  0.17246  0.25853  0.30924  1.0000
  C   C28       1.0  0.82755  0.7414200000000001  0.69086  1.0000
  C   C29       1.0  0.8346  0.07811  0.14955  1.0000
  C   C30       1.0  0.16535000000000002  0.92185  0.85066  1.0000
  C   C31       1.0  0.16564  0.57924  0.34792  1.0000
  C   C32       1.0  0.83437  0.42099  0.65179  1.0000
  C   C33       1.0  0.78389  0.09205  0.12479000000000001  1.0000
  C   C34       1.0  0.21605  0.90776  0.87551  1.0000
  C   C35       1.0  0.21637000000000006  0.5926200000000003  0.37204  1.0000
  C   C36       1.0  0.78364  0.40765  0.62762  1.0000
  C   C37       1.0  0.75479  0.9363500000000002  0.13388  1.0000
  C   C38       1.0  0.24519  0.0633  0.86633  1.0000
  C   C39       1.0  0.2453  0.4351  0.36488  1.0000
  C   C40       1.0  0.75471  0.56504  0.63503  1.0000
  C   C41       1.0  0.6021  0.9653500000000002  0.0543  1.0000
  C   C42       1.0  0.39788  0.03376  0.9457799999999998  1.0000
  C   C43       1.0  0.39795  0.46416000000000013  0.44596999999999987  1.0000
  C   C44       1.0  0.60206  0.53617  0.55422  1.0000
  C   C45       1.0  0.63233  0.92881  0.00031  1.0000
  C   C46       1.0  0.36772  0.07245000000000003  0.9996699999999998  1.0000
  C   C47       1.0  0.36698000000000003  0.46033  0.50052  1.0000
  C   C48       1.0  0.63295  0.54307  0.49955999999999995  1.0000
  C   C49       1.0  0.61158  0.9060200000000003  0.9198  1.0000
  C   C50       1.0  0.38854  0.09746  0.08003  1.0000
  C   C51       1.0  0.38689  0.47212  0.58179  1.0000
  C   C52       1.0  0.61292  0.5350100000000001  0.41825  1.0000
  C   C53       1.0  0.6233  0.9856300000000002  0.13557  1.0000
  C   C54       1.0  0.37661  0.01145  0.8646499999999999  1.0000
  C   C55       1.0  0.37754  0.4507500000000001  0.36415  1.0000
  C   C56       1.0  0.62256  0.5464200000000001  0.6361  1.0000
  C   C57       1.0  0.8568700000000001  0.9132400000000003  0.18293999999999994  1.0000
  C   C58       1.0  0.14312  0.08669  0.81716  1.0000
  C   C59       1.0  0.14315  0.4130300000000001  0.31640999999999997  1.0000
  C   C60       1.0  0.8568600000000002  0.58703  0.6835299999999997  1.0000
  H   H5        1.0  0.85679  0.19728  0.14268  1.0000
  H   H6        1.0  0.14312  0.80281  0.85757  1.0000
  H   H7        1.0  0.14369  0.70008  0.35358  1.0000
  H   H8        1.0  0.85633  0.30028  0.64599  1.0000
  H   H9        1.0  0.6339200000000003  0.87679  0.877  1.0000
  H   H10       1.0  0.36627  0.12899  0.12269999999999999  1.0000
  H   H11       1.0  0.36393  0.46913  0.6251  1.0000
  H   H12       1.0  0.63579  0.5415500000000001  0.37483  1.0000
  C   C61       1.0  0.47894  0.97746  0.9175899999999999  1.0000
  C   C62       1.0  0.52101  0.02055  0.08253  1.0000
  C   C63       1.0  0.52023  0.5132  0.58325  1.0000
  C   C64       1.0  0.4798200000000001  0.48583  0.41704  1.0000
  C   C65       1.0  0.46987  0.03985  0.0552  1.0000
  C   C66       1.0  0.53014  0.96002  0.94481  1.0000
  C   C67       1.0  0.53091  0.5068  0.4441199999999999  1.0000
  C   C68       1.0  0.46905  0.49506  0.5561  1.0000
  C   C69       1.0  0.4491200000000001  0.01706  0.97297  1.0000
  C   C70       1.0  0.55085  0.98193  0.0271  1.0000
  C   C71       1.0  0.55084  0.51875  0.5270799999999998  1.0000
  C   C72       1.0  0.4491700000000001  0.4816500000000001  0.47316  1.0000
  C   C73       1.0  0.45618999999999993  0.95716  0.8363999999999998  1.0000
  C   C74       1.0  0.54365  0.03773  0.16389999999999993  1.0000
  C   C75       1.0  0.54219  0.52655  0.66507  1.0000
  C   C76       1.0  0.4579900000000001  0.4677100000000001  0.33535  1.0000
  C   C77       1.0  0.40623999999999993  0.9739200000000001  0.8107499999999997  1.0000
  C   C78       1.0  0.59359  0.02065000000000001  0.18958999999999995  1.0000
  C   C79       1.0  0.59216  0.54244  0.69069  1.0000
  C   C80       1.0  0.40805  0.45118  0.30969999999999986  1.0000
  O   O25       1.0  0.30538  0.00335  0.76162  1.0000
  O   O26       1.0  0.69447  0.9920400000000003  0.23875  1.0000
  O   O27       1.0  0.69308  0.5654100000000002  0.7401699999999998  1.0000
  O   O28       1.0  0.3071300000000001  0.4288700000000001  0.26002  1.0000
  C   C81       1.0  0.56171  0.92083  0.89254  1.0000
  C   C82       1.0  0.4384  0.08212  0.10729  1.0000
  C   C83       1.0  0.4367  0.4891800000000001  0.6091  1.0000
  C   C84       1.0  0.56312  0.51747  0.3909899999999999  1.0000
  H   H13       1.0  0.15685  0.36858  0.78332  1.0000
  H   H14       1.0  0.84321  0.63121  0.2167  1.0000
  H   H15       1.0  0.8435199999999999  0.87128  0.7152199999999997  1.0000
  H   H16       1.0  0.15649  0.12855  0.28503  1.0000
  H   H17       1.0  0.24513000000000001  0.34680000000000005  0.82588  1.0000
  H   H18       1.0  0.7549300000000002  0.6527500000000003  0.17422999999999997  1.0000
  H   H19       1.0  0.75525  0.8506400000000002  0.67325  1.0000
  H   H20       1.0  0.24476000000000006  0.14927000000000007  0.32697  1.0000
  H   H21       1.0  0.39087999999999995  0.9563100000000002  0.74799  1.0000
  H   H22       1.0  0.6088700000000001  0.03593  0.25249  1.0000
  H   H23       1.0  0.6069  0.55116  0.7540199999999998  1.0000
  H   H24       1.0  0.3934  0.4389300000000001  0.24646  1.0000
  H   H25       1.0  0.47576999999999997  0.92776  0.7903699999999999  1.0000
  H   H26       1.0  0.52396  0.06398  0.21008  1.0000
  H   H27       1.0  0.52196  0.52473  0.71169  1.0000
  H   H28       1.0  0.47837000000000013  0.4648600000000001  0.28893999999999986  1.0000
  H   H29       1.0  0.54932  0.9008100000000002  0.82961  1.0000
  H   H30       1.0  0.4509  0.10509000000000003  0.17002  1.0000
  H   H31       1.0  0.44841  0.49777  0.6726299999999997  1.0000
  H   H32       1.0  0.55124  0.51372  0.3273799999999999  1.0000
  N   N5        1.0  0.76289  0.26376  0.09056  1.0000
  O   O29       1.0  0.71876  0.3100700000000001  0.0939  1.0000
  O   O30       1.0  0.789  0.38116  0.059989999999999995  1.0000
  N   N6        1.0  0.23698  0.73611  0.90993  1.0000
  O   O31       1.0  0.21077000000000004  0.61872  0.94027  1.0000
  O   O32       1.0  0.2812  0.6898900000000002  0.90707  1.0000
  N   N7        1.0  0.23773  0.76618  0.40321  1.0000
  O   O33       1.0  0.28069  0.8141000000000003  0.39392  1.0000
  O   O34       1.0  0.21284000000000003  0.88372  0.4362699999999999  1.0000
  N   N8        1.0  0.76229  0.2343  0.59614  1.0000
  O   O35       1.0  0.78729  0.11669  0.56332  1.0000
  O   O36       1.0  0.71921  0.18657000000000007  0.60491  1.0000
