data_image0
_chemical_formula_structural       PO6HCH2P2O5CH2CH2CH2CH3BaCH2CH2CH2CH2PO4PO4BaPCH2OCH2CH3PO2HCH2CHPCO2H2CH2C18H5C12H5C10H4CHOCHONO2NO2NO2
_chemical_formula_sum              "P8 O32 H51 C58 Ba2 N3"
_cell_length_a       8.31772
_cell_length_b       12.67627
_cell_length_c       18.68934
_cell_angle_alpha    98.88892
_cell_angle_beta     91.60401999999999
_cell_angle_gamma    98.27567

_space_group_name_H-M_alt    "P 1"
_space_group_IT_number       1

loop_
  _space_group_symop_operation_xyz
  'x, y, z'

loop_
  _atom_site_type_symbol
  _atom_site_label
  _atom_site_symmetry_multiplicity
  _atom_site_fract_x
  _atom_site_fract_y
  _atom_site_fract_z
  _atom_site_occupancy
  P   P1        1.0  0.04104000000000002  0.39477000000000007  0.3363300000000001  1.0000
  O   O1        1.0  0.8730899999999998  0.4258900000000001  0.32514  1.0000
  O   O2        1.0  0.12242  0.43437  0.41438  1.0000
  O   O3        1.0  0.6595  0.6271  0.36881  1.0000
  O   O4        1.0  0.7626199999999999  0.54805  0.24118000000000003  1.0000
  O   O5        1.0  0.018829999999999993  0.25444  0.31652  1.0000
  O   O6        1.0  0.67599  0.73996  0.25206  1.0000
  H   H1        1.0  0.61879  0.85886  0.33142000000000005  1.0000
  C   C1        1.0  0.51206  0.87155  0.22692000000000004  1.0000
  H   H2        1.0  0.42769999999999997  0.9260300000000002  0.25104  1.0000
  H   H3        1.0  0.62002  0.9209100000000002  0.20915  1.0000
  P   P2        1.0  0.6728799999999997  0.7540300000000001  0.5561  1.0000
  P   P3        1.0  0.13799000000000003  0.8216700000000001  0.39807  1.0000
  O   O7        1.0  0.8482  0.7681900000000002  0.53453  1.0000
  O   O8        1.0  0.08115999999999997  0.68595  0.40481000000000006  1.0000
  O   O9        1.0  0.004049999999999997  0.88358  0.4322  1.0000
  O   O10       1.0  0.6937500000000001  0.7976200000000002  0.64968  1.0000
  O   O11       1.0  0.13525  0.83822  0.30659  1.0000
  C   C2        1.0  0.08305  0.738  0.26321000000000006  1.0000
  H   H4        1.0  0.96837  0.6995900000000003  0.28224  1.0000
  H   H5        1.0  0.1769399999999999  0.6847600000000001  0.2649  1.0000
  C   C3        1.0  0.05201  0.75313  0.18502000000000002  1.0000
  H   H6        1.0  0.0007799999999999932  0.67447  0.15199  1.0000
  H   H7        1.0  0.9631199999999999  0.8097900000000001  0.18184000000000003  1.0000
  C   C4        1.0  0.2755  0.78689  0.6255500000000002  1.0000
  H   H8        1.0  0.40099999999999986  0.81144  0.64904  1.0000
  H   H9        1.0  0.27681  0.72799  0.5751800000000001  1.0000
  C   C5        1.0  0.21139999999999995  0.88627  0.60676  1.0000
  H   H10       1.0  0.15119  0.9267300000000003  0.6532700000000002  1.0000
  H   H11       1.0  0.3119099999999999  0.94406  0.59093  1.0000
  H   H12       1.0  0.12157  0.86279  0.56062  1.0000
  Ba  Ba1       1.0  0.8527799999999999  0.54834  0.46507  1.0000
  C   C6        1.0  0.90584  0.2056  0.35946000000000006  1.0000
  H   H13       1.0  0.82342  0.26030000000000003  0.38422000000000006  1.0000
  H   H14       1.0  0.97313  0.17694  0.40302000000000004  1.0000
  C   C7        1.0  0.80428  0.10980000000000002  0.3116000000000001  1.0000
  H   H15       1.0  0.7140399999999999  0.06793000000000003  0.34428  1.0000
  H   H16       1.0  0.73807  0.13843  0.26772000000000007  1.0000
  C   C8        1.0  0.73301  0.71509  0.68535  1.0000
  H   H17       1.0  0.84008  0.68323  0.66155  1.0000
  H   H18       1.0  0.6282399999999998  0.6489800000000001  0.6813200000000001  1.0000
  C   C9        1.0  0.7760900000000001  0.7619700000000003  0.7651700000000002  1.0000
  H   H19       1.0  0.8909100000000001  0.8200600000000001  0.76915  1.0000
  H   H20       1.0  0.7959799999999999  0.6965200000000001  0.7959400000000002  1.0000
  P   P4        1.0  0.14866999999999997  0.60532  0.66368  1.0000
  O   O12       1.0  0.31661000000000006  0.5741400000000001  0.6749000000000003  1.0000
  O   O13       1.0  0.06729  0.56572  0.58563  1.0000
  O   O14       1.0  0.53021  0.37299  0.6312  1.0000
  O   O15       1.0  0.18034000000000003  0.7464700000000001  0.67856  1.0000
  P   P5        1.0  0.06717000000000002  0.17231000000000005  0.5895000000000001  1.0000
  O   O16       1.0  0.61134  0.36629  0.46363  1.0000
  O   O17       1.0  0.10854999999999998  0.31414  0.5952  1.0000
  O   O18       1.0  0.20685999999999993  0.12210000000000003  0.55128  1.0000
  O   O19       1.0  0.07613  0.13301  0.67552  1.0000
  Ba  Ba2       1.0  0.33706  0.4517500000000001  0.53494  1.0000
  P   P6        1.0  0.63034  0.61081  0.27503  1.0000
  C   C10       1.0  0.56188  0.8043800000000002  0.28223  1.0000
  H   H21       1.0  0.4488099999999999  0.75838  0.29884  1.0000
  H   H22       1.0  0.45069  0.81744  0.17856  1.0000
  O   O20       1.0  0.57837  0.6338  0.53638  1.0000
  C   C11       1.0  0.45702  0.28375  0.31301  1.0000
  H   H23       1.0  0.34961000000000003  0.3143500000000001  0.33748000000000006  1.0000
  H   H24       1.0  0.5634599999999997  0.34896  0.32095000000000007  1.0000
  C   C12       1.0  0.4193499999999999  0.24757000000000007  0.23200000000000004  1.0000
  H   H25       1.0  0.30926  0.18521  0.22282000000000002  1.0000
  H   H26       1.0  0.39724  0.31683  0.20546000000000006  1.0000
  H   H27       1.0  0.52348  0.21322000000000005  0.20665000000000006  1.0000
  P   P7        1.0  0.5179099999999998  0.23142000000000001  0.43769  1.0000
  O   O21       1.0  0.34151  0.23185000000000003  0.46551  1.0000
  O   O22       1.0  0.49128  0.19497  0.34353  1.0000
  H   H28       1.0  0.1668  0.78512  0.16193000000000005  1.0000
  C   C13       1.0  0.11834  0.22195000000000006  0.73106  1.0000
  H   H29       1.0  0.23866000000000007  0.26368000000000014  0.7215900000000002  1.0000
  H   H30       1.0  0.03485000000000003  0.2824100000000001  0.7315800000000001  1.0000
  C   C14       1.0  0.11930999999999997  0.1809  0.8051  1.0000
  H   H31       1.0  0.15276999999999996  0.09849000000000004  0.79745  1.0000
  P   P8        1.0  0.55232  0.39241000000000004  0.7262400000000001  1.0000
  C   C15       1.0  0.53219  0.18028  0.70273  1.0000
  O   O23       1.0  0.41486  0.45342  0.75664  1.0000
  O   O24       1.0  0.51214  0.2671  0.7572  1.0000
  H   H32       1.0  0.46775  0.18509  0.65068  1.0000
  H   H33       1.0  0.49372999999999995  0.07363000000000007  0.7842500000000001  1.0000
  C   C16       1.0  0.45793  0.07447000000000004  0.72666  1.0000
  H   H34       1.0  0.49702999999999997  0.003939999999999989  0.69258  1.0000
  H   H35       1.0  0.32547  0.06404000000000006  0.7191900000000001  1.0000
  C   C17       1.0  0.98467  0.46413  0.05094  1.0000
  C   C18       1.0  0.88426  0.411  0.09796  1.0000
  C   C19       1.0  0.72088  0.3719  0.07614  1.0000
  C   C20       1.0  0.65828  0.38431000000000004  0.00817  1.0000
  C   C21       1.0  0.7589100000000001  0.4332400000000001  0.9597100000000001  1.0000
  C   C22       1.0  0.9226199999999998  0.47377  0.98113  1.0000
  C   C23       1.0  0.6997600000000002  0.43805000000000005  0.88934  1.0000
  C   C24       1.0  0.80454  0.47615  0.83758  1.0000
  C   C25       1.0  0.96768  0.52149  0.85991  1.0000
  C   C26       1.0  0.02498999999999999  0.5217  0.9323400000000001  1.0000
  C   C27       1.0  0.75414  0.46466  0.76338  1.0000
  C   C28       1.0  0.86503  0.49798  0.7134  1.0000
  C   C29       1.0  0.022739999999999944  0.54987  0.73488  1.0000
  C   C30       1.0  0.07523999999999997  0.56327  0.80953  1.0000
  C   C31       1.0  0.14749999999999994  0.50579  0.07318000000000001  1.0000
  C   C32       1.0  0.2078  0.4999  0.14413000000000004  1.0000
  C   C33       1.0  0.10455  0.45034  0.19289  1.0000
  C   C34       1.0  0.9470699999999999  0.39951000000000003  0.16656  1.0000
  H   H36       1.0  0.6408  0.33266000000000007  0.11199000000000002  1.0000
  H   H37       1.0  0.5315599999999998  0.3538500000000001  0.99305  1.0000
  H   H38       1.0  0.82587  0.48585000000000006  0.65663  1.0000
  H   H39       1.0  0.57348  0.4068  0.8746600000000001  1.0000
  H   H40       1.0  0.86898  0.3537200000000001  0.19960000000000003  1.0000
  C   C35       1.0  0.23308  0.6137500000000001  0.8353000000000003  1.0000
  C   C36       1.0  0.29141000000000006  0.6105400000000001  0.9060900000000001  1.0000
  C   C37       1.0  0.18779  0.56366  0.9547100000000001  1.0000
  C   C38       1.0  0.24890000000000004  0.55576  0.024970000000000006  1.0000
  C   C39       1.0  0.4546699999999999  0.64931  0.92805  1.0000
  C   C40       1.0  0.51467  0.64246  0.99746  1.0000
  C   C41       1.0  0.4127299999999999  0.59593  0.04632  1.0000
  C   C42       1.0  0.37087  0.54473  0.16633  1.0000
  C   C43       1.0  0.4728199999999999  0.5891  0.11596  1.0000
  C   C44       1.0  0.4256999999999999  0.54642  0.23887000000000003  1.0000
  C   C45       1.0  0.31939000000000006  0.5067800000000002  0.2881000000000001  1.0000
  C   C46       1.0  0.16160999999999995  0.45625  0.26652000000000003  1.0000
  H   H41       1.0  0.3148799999999999  0.65253  0.8002200000000002  1.0000
  H   H42       1.0  0.53743  0.68242  0.89092  1.0000
  H   H43       1.0  0.64163  0.67253  0.01264  1.0000
  H   H44       1.0  0.59956  0.6197200000000002  0.13024  1.0000
  H   H45       1.0  0.36236  0.5126  0.34398  1.0000
  C   C47       1.0  0.77474  0.17754000000000006  0.5134900000000001  1.0000
  C   C48       1.0  0.43312999999999996  0.8071100000000001  0.46814000000000006  1.0000
  C   C49       1.0  0.40356  0.98389  0.44268  1.0000
  C   C50       1.0  0.3407200000000001  0.8756700000000002  0.44017  1.0000
  C   C51       1.0  0.58178  0.8474700000000002  0.50616  1.0000
  C   C52       1.0  0.64856  0.9583300000000001  0.5096  1.0000
  C   C53       1.0  0.5571599999999998  0.02688000000000001  0.47703  1.0000
  C   C54       1.0  0.62101  0.13715  0.48076  1.0000
  C   C55       1.0  0.86877  0.11108000000000005  0.5426000000000002  1.0000
  C   C56       1.0  0.80359  0.00302000000000001  0.54338  1.0000
  H   H46       1.0  0.33018  0.03306  0.41759  1.0000
  H   H47       1.0  0.87492  0.9565600000000002  0.57164  1.0000
  H   H48       1.0  0.82313  0.26207  0.51592  1.0000
  H   H49       1.0  0.38483  0.72223  0.46313  1.0000
  C   C57       1.0  0.91018  0.03247  0.27782  1.0000
  H   H50       1.0  0.0003900000000000016  0.05636000000000001  0.24023  1.0000
  O   O25       1.0  0.89431  0.94148  0.29223  1.0000
  C   C58       1.0  0.64402  0.81892  0.7990900000000002  1.0000
  H   H51       1.0  0.52309  0.8065400000000001  0.7729800000000001  1.0000
  O   O26       1.0  0.67037  0.8770000000000004  0.8579100000000001  1.0000
  N   N1        1.0  0.23825999999999997  0.2504100000000001  0.8571000000000002  1.0000
  O   O27       1.0  0.3476  0.20903000000000005  0.89024  1.0000
  O   O28       1.0  0.2340899999999999  0.3534399999999999  0.8718099999999999  1.0000
  N   N2        1.0  0.9586700000000001  0.17332000000000003  0.83517  1.0000
  O   O29       1.0  0.8882499999999998  0.08177000000000005  0.8506900000000002  1.0000
  O   O30       1.0  0.8888299999999996  0.25861  0.85062  1.0000
  N   N3        1.0  0.7041  0.17915999999999996  0.6913600000000001  1.0000
  O   O31       1.0  0.7859  0.25768  0.66469  1.0000
  O   O32       1.0  0.77329  0.09680000000000004  0.70206  1.0000
