data_image0
_chemical_formula_structural       Br12C60Cr6H24O26
_chemical_formula_sum              "Br12 C60 Cr6 H24 O26"
_cell_length_a       11.17957
_cell_length_b       11.09541
_cell_length_c       18.42533
_cell_angle_alpha    90.05118
_cell_angle_beta     90.13329
_cell_angle_gamma    119.88448999999999

_symmetry_space_group_name_H-M    'P 1'
_symmetry_Int_Tables_number       1

loop_
  _symmetry_equiv_pos_as_xyz
  'x,y,z'

loop_
  _atom_site_type_symbol
  _atom_site_label
  _atom_site_symmetry_multiplicity
  _atom_site_fract_x
  _atom_site_fract_y
  _atom_site_fract_z
  _atom_site_occupancy
  Br  Br1       1.0  0.21715  0.99129  0.44692  1.0000
  Br  Br2       1.0  0.15579  0.40814  0.60782  1.0000
  Br  Br3       1.0  0.5369999999999999  0.7502099999999999  0.87558  1.0000
  Br  Br4       1.0  0.25528999999999996  0.8000199999999998  0.61704  1.0000
  Br  Br5       1.0  0.7592  0.79756  0.051  1.0000
  Br  Br6       1.0  0.96529  0.20385  0.43893999999999994  1.0000
  Br  Br7       1.0  0.24686  0.046279999999999995  0.06499  1.0000
  Br  Br8       1.0  0.76014  0.7925399999999998  0.45483999999999997  1.0000
  Br  Br9       1.0  0.03894000000000001  0.24409999999999998  0.04175  1.0000
  Br  Br10      1.0  0.18834999999999996  0.51347  0.8743199999999999  1.0000
  Br  Br11      1.0  0.5018499999999998  0.6963999999999998  0.62125  1.0000
  Br  Br12      1.0  0.24751999999999993  0.85834  0.89577  1.0000
  C   C1        1.0  0.53901  0.42739  0.63759  1.0000
  C   C2        1.0  0.45559  0.52216  0.35586  1.0000
  C   C3        1.0  0.47847  0.93692  0.14572  1.0000
  C   C4        1.0  0.06334999999999999  0.54187  0.35447  1.0000
  C   C5        1.0  0.3820299999999999  0.99225  0.48042  1.0000
  C   C6        1.0  0.5962999999999999  0.6307499999999999  0.01762  1.0000
  C   C7        1.0  0.9711  0.37184  0.47338  1.0000
  C   C8        1.0  0.40621  0.03944999999999999  0.0289  1.0000
  C   C9        1.0  0.60553  0.61376  0.48133  1.0000
  C   C10       1.0  0.009759999999999984  0.39699  0.01678  1.0000
  C   C11       1.0  0.0771  0.50769  0.9572399999999999  1.0000
  C   C12       1.0  0.88172  0.45813  0.86233  1.0000
  C   C13       1.0  0.49779  0.58034  0.54096  1.0000
  C   C14       1.0  0.39932  0.94745  0.9648799999999998  1.0000
  C   C15       1.0  0.06307999999999994  0.4618499999999999  0.53596  1.0000
  C   C16       1.0  0.50172  0.61925  0.95417  1.0000
  C   C17       1.0  0.38753  0.8975199999999999  0.5396  1.0000
  C   C18       1.0  0.51012  0.1167  0.51258  1.0000
  C   C19       1.0  0.59801  0.50132  0.9903499999999998  1.0000
  C   C20       1.0  0.85166  0.38899  0.502  1.0000
  C   C21       1.0  0.54419  0.15771  0.00063  1.0000
  C   C22       1.0  0.62606  0.49456  0.5073799999999999  1.0000
  C   C23       1.0  0.54636  0.06706  0.64415  1.0000
  C   C24       1.0  0.86758  0.36894  0.99232  1.0000
  C   C25       1.0  0.08735000000000001  0.6206  0.01084  1.0000
  C   C26       1.0  0.38203  0.47873999999999994  0.48876  1.0000
  C   C27       1.0  0.47758  0.89136  0.01009  1.0000
  C   C28       1.0  0.11178000000000003  0.59409  0.48921999999999993  1.0000
  C   C29       1.0  0.37294  0.52505  0.0010499999999999997  1.0000
  C   C30       1.0  0.48207  0.8661999999999999  0.49054999999999993  1.0000
  C   C31       1.0  0.51694  0.02061  0.56959  1.0000
  C   C32       1.0  0.5007  0.48885999999999996  0.9289299999999999  1.0000
  C   C33       1.0  0.945  0.48088999999999993  0.56307  1.0000
  C   C34       1.0  0.52101  0.45447  0.8558399999999999  1.0000
  C   C35       1.0  0.53828  0.06396  0.93795  1.0000
  C   C36       1.0  0.51646  0.45985  0.5645  1.0000
  C   C37       1.0  0.93536  0.48133  0.93569  1.0000
  C   C38       1.0  0.015820000000000025  0.50803  0.06956  1.0000
  C   C39       1.0  0.49133  0.50977  0.42995  1.0000
  C   C40       1.0  0.4881299999999999  0.9868899999999999  0.07278  1.0000
  C   C41       1.0  0.016220000000000005  0.5038699999999999  0.4278399999999999  1.0000
  C   C42       1.0  0.46773  0.53433  0.06325999999999998  1.0000
  C   C43       1.0  0.47923  0.96453  0.43265  1.0000
  C   C44       1.0  0.6121199999999999  0.9914499999999999  0.52219  1.0000
  C   C45       1.0  0.8920900000000002  0.4617099999999999  0.63709  1.0000
  C   C46       1.0  0.37343  0.39381  0.97442  1.0000
  C   C47       1.0  0.9919899999999998  0.6125999999999999  0.51735  1.0000
  C   C48       1.0  0.61728  0.00913  0.98259  1.0000
  C   C49       1.0  0.40147  0.35748999999999986  0.51393  1.0000
  C   C50       1.0  0.94407  0.59372  0.9874  1.0000
  C   C51       1.0  0.8739600000000001  0.48023999999999994  0.04587  1.0000
  C   C52       1.0  0.5116699999999998  0.3910999999999999  0.45516999999999996  1.0000
  C   C53       1.0  0.62396  0.10278  0.04592  1.0000
  C   C54       1.0  0.8987400000000001  0.52103  0.45539  1.0000
  C   C55       1.0  0.47028  0.40591  0.03678  1.0000
  C   C56       1.0  0.57229  0.11335  0.86289  1.0000
  C   C57       1.0  0.60592  0.08753999999999999  0.46409  1.0000
  C   C58       1.0  0.42807  0.54332  0.13749  1.0000
  C   C59       1.0  0.47562  0.92959  0.35675999999999997  1.0000
  C   C60       1.0  0.06658999999999998  0.54435  0.14373  1.0000
  Cr  Cr1       1.0  0.76993  0.54313  0.75  1.0000
  Cr  Cr2       1.0  0.7732000000000001  0.23007  0.75  1.0000
  Cr  Cr3       1.0  0.45687  0.2268  0.75  1.0000
  Cr  Cr4       1.0  0.5431300000000001  0.76993  0.25  1.0000
  Cr  Cr5       1.0  0.2300699999999999  0.7732  0.25  1.0000
  Cr  Cr6       1.0  0.22679999999999997  0.45687  0.25  1.0000
  H   H1        1.0  0.5219099999999999  0.2141099999999999  0.5336199999999999  1.0000
  H   H2        1.0  0.2186  0.67168  0.47565  1.0000
  H   H3        1.0  0.28873  0.54272  0.01699  1.0000
  H   H4        1.0  0.4655099999999999  0.7640899999999999  0.47297  1.0000
  H   H5        1.0  0.70632  0.99227  0.54198  1.0000
  H   H6        1.0  0.28335  0.29675  0.9540999999999998  1.0000
  H   H7        1.0  0.9978299999999998  0.7104799999999999  0.53612  1.0000
  H   H8        1.0  0.70634  0.0001299999999999998  0.96311  1.0000
  H   H9        1.0  0.31713  0.25364  0.53054  1.0000
  H   H10       1.0  0.91992  0.67615  0.97247  1.0000
  H   H11       1.0  0.79161  0.4661199999999999  0.0843  1.0000
  H   H12       1.0  0.68708  0.49174999999999996  0.9752999999999998  1.0000
  H   H13       1.0  0.5200299999999999  0.31792999999999993  0.41719  1.0000
  H   H14       1.0  0.71224  0.16314  0.08325  1.0000
  H   H15       1.0  0.83437  0.5438699999999999  0.41814  1.0000
  H   H16       1.0  0.46225000000000005  0.32562  0.07521999999999998  1.0000
  H   H17       1.0  0.68768  0.16023  0.4268299999999999  1.0000
  H   H18       1.0  0.74838  0.31573  0.51989  1.0000
  H   H19       1.0  0.5781299999999999  0.26608999999999994  0.98987  1.0000
  H   H20       1.0  0.72093  0.5112299999999999  0.53263  1.0000
  H   H21       1.0  0.7955900000000001  0.27116  0.9664499999999999  1.0000
  H   H22       1.0  0.17850999999999995  0.72097  0.025789999999999997  1.0000
  H   H23       1.0  0.28493  0.47564  0.47356999999999994  1.0000
  H   H24       1.0  0.44291  0.7823799999999999  0.02235  1.0000
  O   O1        1.0  0.91327  0.5742599999999999  0.66855  1.0000
  O   O2        1.0  0.5742599999999999  0.9132699999999999  0.33145  1.0000
  O   O3        1.0  0.08673000000000006  0.66099  0.16855  1.0000
  O   O4        1.0  0.3390099999999999  0.42574  0.33145  1.0000
  O   O5        1.0  0.64016  0.5303999999999999  0.6733  1.0000
  O   O6        1.0  0.89024  0.3598399999999999  0.8267  1.0000
  O   O7        1.0  0.4696  0.10975999999999998  0.6733  1.0000
  O   O8        1.0  0.64016  0.5303999999999999  0.8267  1.0000
  O   O9        1.0  0.89024  0.3598399999999999  0.6733  1.0000
  O   O10       1.0  0.4696  0.10975999999999998  0.8267  1.0000
  O   O11       1.0  0.5304  0.64016  0.1733  1.0000
  O   O12       1.0  0.66099  0.08673  0.8314499999999999  1.0000
  O   O13       1.0  0.3598399999999999  0.8902399999999999  0.32669999999999993  1.0000
  O   O14       1.0  0.10976  0.4696  0.1733  1.0000
  O   O15       1.0  0.5304  0.64016  0.32669999999999993  1.0000
  O   O16       1.0  0.3598399999999999  0.8902399999999999  0.1733  1.0000
  O   O17       1.0  0.10976  0.4696  0.32669999999999993  1.0000
  O   O18       1.0  0.66667  0.33332999999999996  0.75  1.0000
  O   O19       1.0  0.33333  0.66667  0.25  1.0000
  O   O20       1.0  0.42574000000000006  0.33901  0.66855  1.0000
  O   O21       1.0  0.91327  0.5742599999999999  0.8314499999999999  1.0000
  O   O22       1.0  0.66099  0.08673  0.66855  1.0000
  O   O23       1.0  0.42574000000000006  0.33901  0.8314499999999999  1.0000
  O   O24       1.0  0.5742599999999999  0.9132699999999999  0.16855  1.0000
  O   O25       1.0  0.08673000000000006  0.66099  0.33145  1.0000
  O   O26       1.0  0.3390099999999999  0.42574  0.16855  1.0000
