data_image0
_chemical_formula_structural       O16H8C8H24O4V4C72OHOHOHOHOHOHOHOH
_chemical_formula_sum              "O28 H40 C80 V4"
_cell_length_a       7.2214
_cell_length_b       12.112319999999999
_cell_length_c       29.10158
_cell_angle_alpha    90.00005999999999
_cell_angle_beta     89.99838000000001
_cell_angle_gamma    89.99936

_space_group_name_H-M_alt    "P 1"
_space_group_IT_number       1

loop_
  _space_group_symop_operation_xyz
  'x, y, z'

loop_
  _atom_site_type_symbol
  _atom_site_label
  _atom_site_symmetry_multiplicity
  _atom_site_fract_x
  _atom_site_fract_y
  _atom_site_fract_z
  _atom_site_occupancy
  O   O1        1.0  0.64717  0.84918  0.20122  1.0000
  O   O2        1.0  0.35283  0.15082  0.79878  1.0000
  O   O3        1.0  0.35283  0.15082  0.7012199999999998  1.0000
  O   O4        1.0  0.64717  0.84918  0.29878  1.0000
  O   O5        1.0  0.14717000000000005  0.65082  0.29878  1.0000
  O   O6        1.0  0.8528300000000001  0.3491800000000001  0.7012199999999998  1.0000
  O   O7        1.0  0.8528300000000001  0.3491800000000001  0.79878  1.0000
  O   O8        1.0  0.14717000000000005  0.65082  0.20122  1.0000
  O   O9        1.0  0.31743  0.86221  0.29845  1.0000
  O   O10       1.0  0.6825700000000001  0.13779  0.70155  1.0000
  O   O11       1.0  0.6825700000000001  0.13779  0.7984499999999998  1.0000
  O   O12       1.0  0.31743  0.86221  0.20155  1.0000
  O   O13       1.0  0.81743  0.63779  0.20155  1.0000
  O   O14       1.0  0.18257  0.36221  0.7984499999999998  1.0000
  O   O15       1.0  0.18257  0.36221  0.70155  1.0000
  O   O16       1.0  0.81743  0.63779  0.29845  1.0000
  H   H1        1.0  0.91678  0.22854  0.45346999999999993  1.0000
  H   H2        1.0  0.08319  0.77147  0.54654  1.0000
  H   H3        1.0  0.08345000000000001  0.7714900000000001  0.9534599999999999  1.0000
  H   H4        1.0  0.9165500000000002  0.22851000000000002  0.04653999999999999  1.0000
  H   H5        1.0  0.41679  0.2715  0.04653999999999999  1.0000
  H   H6        1.0  0.58321  0.7285  0.9534599999999999  1.0000
  H   H7        1.0  0.5839  0.7285600000000002  0.54653  1.0000
  H   H8        1.0  0.41615000000000013  0.27144  0.45346999999999993  1.0000
  C   C1        1.0  0.4857400000000001  0.88784  0.31335  1.0000
  C   C2        1.0  0.51426  0.11216  0.68665  1.0000
  C   C3        1.0  0.5142500000000001  0.11217000000000003  0.8133499999999998  1.0000
  C   C4        1.0  0.48575  0.88783  0.18665  1.0000
  C   C5        1.0  0.98575  0.6121600000000001  0.18665  1.0000
  C   C6        1.0  0.014250000000000004  0.38783  0.8133499999999998  1.0000
  C   C7        1.0  0.01426  0.38783  0.68665  1.0000
  C   C8        1.0  0.9857400000000002  0.61217  0.31335  1.0000
  H   H9        1.0  0.011970000000000003  0.61063  0.69129  1.0000
  H   H10       1.0  0.98804  0.38937000000000005  0.30872  1.0000
  H   H11       1.0  0.98782  0.38933  0.19129  1.0000
  H   H12       1.0  0.01218  0.61067  0.80871  1.0000
  H   H13       1.0  0.512  0.8893400000000001  0.80871  1.0000
  H   H14       1.0  0.488  0.11066000000000001  0.19129  1.0000
  H   H15       1.0  0.48766  0.11066000000000001  0.30872  1.0000
  H   H16       1.0  0.51269  0.88932  0.69129  1.0000
  H   H17       1.0  0.96955  0.2602  0.37333  1.0000
  H   H18       1.0  0.030440000000000005  0.7398000000000001  0.62667  1.0000
  H   H19       1.0  0.03074  0.73984  0.8733299999999999  1.0000
  H   H20       1.0  0.96926  0.26016  0.12667  1.0000
  H   H21       1.0  0.46951  0.23983000000000004  0.12667  1.0000
  H   H22       1.0  0.53048  0.76017  0.8733299999999999  1.0000
  H   H23       1.0  0.53138  0.76017  0.62667  1.0000
  H   H24       1.0  0.46895  0.23982  0.37333  1.0000
  H   H25       1.0  0.021110000000000004  0.33783  0.59916  1.0000
  H   H26       1.0  0.9788700000000002  0.66217  0.4008399999999999  1.0000
  H   H27       1.0  0.979  0.6622  0.09915999999999998  1.0000
  H   H28       1.0  0.021000000000000008  0.33780000000000004  0.90084  1.0000
  H   H29       1.0  0.52111  0.16219  0.90084  1.0000
  H   H30       1.0  0.4788900000000001  0.8378100000000003  0.09915999999999998  1.0000
  H   H31       1.0  0.4790900000000001  0.8378100000000003  0.40083  1.0000
  H   H32       1.0  0.52065  0.16221  0.59917  1.0000
  O   O17       1.0  0.48063  0.6806300000000001  0.25  1.0000
  O   O18       1.0  0.51937  0.31937000000000004  0.75  1.0000
  O   O19       1.0  0.9806300000000002  0.8193700000000003  0.25  1.0000
  O   O20       1.0  0.01937  0.18063  0.75  1.0000
  V   V1        1.0  0.2058  0.76286  0.25  1.0000
  V   V2        1.0  0.7942000000000002  0.23714000000000002  0.75  1.0000
  V   V3        1.0  0.7058000000000002  0.73714  0.25  1.0000
  V   V4        1.0  0.29420000000000013  0.26286  0.75  1.0000
  C   C9        1.0  0.9933100000000002  0.5343  0.35172  1.0000
  C   C10       1.0  0.00669  0.4657  0.64828  1.0000
  C   C11       1.0  0.006700000000000002  0.46571  0.8517199999999998  1.0000
  C   C12       1.0  0.9933  0.53429  0.14828  1.0000
  C   C13       1.0  0.49331  0.9657000000000001  0.14828  1.0000
  C   C14       1.0  0.50669  0.0343  0.8517199999999998  1.0000
  C   C15       1.0  0.50673  0.03429  0.64828  1.0000
  C   C16       1.0  0.49328  0.96571  0.35172  1.0000
  C   C17       1.0  0.9817800000000002  0.34779000000000004  0.38037  1.0000
  C   C18       1.0  0.01821  0.6522200000000001  0.6196399999999997  1.0000
  C   C19       1.0  0.01841  0.65225  0.88036  1.0000
  C   C20       1.0  0.9815900000000002  0.3477500000000001  0.11964  1.0000
  C   C21       1.0  0.4817500000000001  0.15224  0.11964  1.0000
  C   C22       1.0  0.51824  0.8477600000000001  0.88036  1.0000
  C   C23       1.0  0.51882  0.8477600000000001  0.6196399999999997  1.0000
  C   C24       1.0  0.48137  0.15223  0.38037  1.0000
  C   C25       1.0  0.9907200000000003  0.42092  0.34355  1.0000
  C   C26       1.0  0.00928  0.5790800000000002  0.65646  1.0000
  C   C27       1.0  0.009430000000000003  0.57911  0.84354  1.0000
  C   C28       1.0  0.99057  0.4208900000000001  0.15645999999999996  1.0000
  C   C29       1.0  0.4906900000000001  0.0791  0.15645999999999996  1.0000
  C   C30       1.0  0.50931  0.9209000000000003  0.84354  1.0000
  C   C31       1.0  0.50976  0.92089  0.65646  1.0000
  C   C32       1.0  0.4904400000000001  0.0791  0.34355  1.0000
  C   C33       1.0  0.9952900000000002  0.57431  0.39682  1.0000
  C   C34       1.0  0.00469  0.42569  0.6031799999999999  1.0000
  C   C35       1.0  0.004650000000000001  0.42568  0.89682  1.0000
  C   C36       1.0  0.9953500000000002  0.57432  0.10317999999999997  1.0000
  C   C37       1.0  0.4953  0.9256800000000001  0.10317999999999997  1.0000
  C   C38       1.0  0.5047  0.07432  0.89682  1.0000
  C   C39       1.0  0.5045  0.07431  0.6031799999999999  1.0000
  C   C40       1.0  0.49536000000000013  0.92569  0.39682  1.0000
  C   C41       1.0  0.00229  0.50162  0.43496  1.0000
  C   C42       1.0  0.9976800000000002  0.49838  0.56504  1.0000
  C   C43       1.0  0.9977100000000002  0.49838  0.93496  1.0000
  C   C44       1.0  0.00229  0.50162  0.06504  1.0000
  C   C45       1.0  0.5023  0.9983800000000002  0.06504  1.0000
  C   C46       1.0  0.4977  0.00162  0.93496  1.0000
  C   C47       1.0  0.4976800000000001  0.00161  0.56504  1.0000
  C   C48       1.0  0.50223  0.9983800000000002  0.43495  1.0000
  C   C49       1.0  0.98167  0.3874  0.42576  1.0000
  C   C50       1.0  0.0183  0.61261  0.57424  1.0000
  C   C51       1.0  0.01844  0.6126200000000002  0.92576  1.0000
  C   C52       1.0  0.9815600000000002  0.38738  0.07423999999999997  1.0000
  C   C53       1.0  0.4816700000000001  0.11262  0.07423999999999997  1.0000
  C   C54       1.0  0.51833  0.8873800000000001  0.92576  1.0000
  C   C55       1.0  0.51866  0.8873800000000001  0.57424  1.0000
  C   C56       1.0  0.48137  0.11261000000000003  0.42576  1.0000
  C   C57       1.0  0.017620000000000007  0.53851  0.4816899999999999  1.0000
  C   C58       1.0  0.98235  0.46150000000000013  0.51831  1.0000
  C   C59       1.0  0.9823300000000003  0.4614900000000001  0.98169  1.0000
  C   C60       1.0  0.01767  0.53851  0.01831  1.0000
  C   C61       1.0  0.51763  0.96149  0.01831  1.0000
  C   C62       1.0  0.48236  0.03851  0.98169  1.0000
  C   C63       1.0  0.48222  0.03849  0.51831  1.0000
  C   C64       1.0  0.51765  0.9615  0.4816899999999999  1.0000
  C   C65       1.0  0.92993  0.3513  0.50683  1.0000
  C   C66       1.0  0.07003  0.64871  0.4931699999999999  1.0000
  C   C67       1.0  0.07016  0.64872  0.00683  1.0000
  C   C68       1.0  0.92983  0.35129  0.99317  1.0000
  C   C69       1.0  0.42995  0.14873  0.9931799999999997  1.0000
  C   C70       1.0  0.57004  0.85127  0.00682  1.0000
  C   C71       1.0  0.5703  0.8513200000000002  0.4931699999999999  1.0000
  C   C72       1.0  0.42958  0.14867  0.50683  1.0000
  C   C73       1.0  0.94629  0.31424  0.4614499999999999  1.0000
  C   C74       1.0  0.05368  0.68576  0.53856  1.0000
  C   C75       1.0  0.05386  0.6857800000000001  0.96144  1.0000
  C   C76       1.0  0.94613  0.31422  0.03856  1.0000
  C   C77       1.0  0.44629000000000013  0.18579  0.03856  1.0000
  C   C78       1.0  0.5537  0.81421  0.96144  1.0000
  C   C79       1.0  0.55415  0.8142500000000001  0.53855  1.0000
  C   C80       1.0  0.4458400000000001  0.18574  0.4614499999999999  1.0000
  O   O21       1.0  0.84978  0.28287000000000007  0.53922  1.0000
  H   H33       1.0  0.82343  0.20954  0.52554  1.0000
  O   O22       1.0  0.15018  0.71714  0.46078  1.0000
  H   H34       1.0  0.1765  0.79048  0.47446  1.0000
  O   O23       1.0  0.15037000000000006  0.71714  0.03921  1.0000
  H   H35       1.0  0.1767  0.7904900000000002  0.02554  1.0000
  O   O24       1.0  0.84963  0.28286  0.96079  1.0000
  H   H36       1.0  0.8233000000000003  0.20952  0.9744599999999998  1.0000
  O   O25       1.0  0.3498100000000001  0.21717000000000003  0.96079  1.0000
  H   H37       1.0  0.32351  0.29052  0.97447  1.0000
  O   O26       1.0  0.6501900000000002  0.7828200000000002  0.03921  1.0000
  H   H38       1.0  0.6764800000000002  0.7094800000000002  0.025529999999999994  1.0000
  O   O27       1.0  0.6505300000000002  0.78293  0.4607699999999999  1.0000
  H   H39       1.0  0.67702  0.70961  0.47444  1.0000
  O   O28       1.0  0.3493000000000001  0.21706  0.53922  1.0000
  H   H40       1.0  0.3229300000000001  0.2904  0.52555  1.0000
