data_image0
_chemical_formula_structural       O3CO2CO2VOCOCVOCH2C13H4C2H2C2H2C2H2C2HCH3C13H3O3CO2CO2VOCOCVO2HOCH2CH3OCH2CH3OHOCH2CH3
_chemical_formula_sum              "O25 C50 V4 H36"
_cell_length_a       6.94095
_cell_length_b       13.64721
_cell_length_c       20.40274
_cell_angle_alpha    102.13139
_cell_angle_beta     90.44199
_cell_angle_gamma    90.33088

_symmetry_space_group_name_H-M    'P 1'
_symmetry_Int_Tables_number       1

loop_
  _symmetry_equiv_pos_as_xyz
  'x,y,z'

loop_
  _atom_site_type_symbol
  _atom_site_label
  _atom_site_symmetry_multiplicity
  _atom_site_fract_x
  _atom_site_fract_y
  _atom_site_fract_z
  _atom_site_occupancy
  O   O1        1.0  0.50686  0.59939  0.44924  1.0000
  O   O2        1.0  0.18022  0.5945999999999998  0.58678  1.0000
  O   O3        1.0  0.0045000000000000005  0.40061  0.55076  1.0000
  C   C1        1.0  0.3490600000000001  0.61241  0.61461  1.0000
  O   O4        1.0  0.17749  0.6112899999999999  0.45197  1.0000
  O   O5        1.0  0.0017499999999999994  0.41741999999999996  0.41499  1.0000
  C   C2        1.0  0.34585  0.63798  0.43516999999999995  1.0000
  O   O6        1.0  0.50961  0.58258  0.58501  1.0000
  O   O7        1.0  0.33742  0.43636999999999987  0.48802  1.0000
  V   V1        1.0  0.06468  0.5118  0.50222  1.0000
  O   O8        1.0  0.67171  0.4053999999999999  0.41322  1.0000
  C   C3        1.0  0.8396000000000001  0.38349  0.38671  1.0000
  O   O9        1.0  0.6744400000000002  0.3887099999999999  0.54803  1.0000
  C   C4        1.0  0.8434  0.36258  0.56507  1.0000
  V   V2        1.0  0.56401  0.4882  0.49778  1.0000
  O   O10       1.0  0.84114  0.56363  0.51198  1.0000
  C   C5        1.0  0.8767100000000002  0.11239999999999997  0.61201  1.0000
  H   H1        1.0  0.87675  0.16341999999999998  0.51958  1.0000
  H   H2        1.0  0.88975  0.034910000000000004  0.58608  1.0000
  C   C6        1.0  0.8527200000000003  0.28581999999999996  0.60503  1.0000
  C   C7        1.0  0.8552  0.3159599999999999  0.9296700000000001  1.0000
  C   C8        1.0  0.8396500000000001  0.39153000000000004  0.8928900000000001  1.0000
  C   C9        1.0  0.83872  0.36822999999999995  0.82309  1.0000
  C   C10       1.0  0.85019  0.26779  0.78698  1.0000
  C   C11       1.0  0.8589600000000002  0.19054  0.82414  1.0000
  C   C12       1.0  0.85367  0.24164999999999998  0.71533  1.0000
  C   C13       1.0  0.86593  0.13892  0.68245  1.0000
  C   C14       1.0  0.86581  0.06367000000000002  0.72009  1.0000
  C   C15       1.0  0.86607  0.08967999999999998  0.78981  1.0000
  C   C16       1.0  0.84609  0.31408  0.67489  1.0000
  C   C17       1.0  0.86972  0.18535  0.57371  1.0000
  C   C18       1.0  0.86002  0.21550999999999998  0.8952600000000001  1.0000
  H   H3        1.0  0.83498  0.39315999999999995  0.69573  1.0000
  H   H4        1.0  0.8278400000000002  0.43113  0.79913  1.0000
  H   H5        1.0  0.82634  0.4691799999999999  0.91827  1.0000
  H   H6        1.0  0.8711200000000002  0.029240000000000002  0.8167  1.0000
  C   C19       1.0  0.0052499999999999995  0.28852  0.28542  1.0000
  C   C20       1.0  0.84207  0.31415  0.32026  1.0000
  H   H7        1.0  0.14211  0.31838  0.30724  1.0000
  H   H8        1.0  0.70377  0.28468  0.30013  1.0000
  C   C21       1.0  0.01414  0.22035000000000002  0.21787  1.0000
  C   C22       1.0  0.85909  0.18397  0.18014  1.0000
  H   H9        1.0  0.15714  0.20051999999999998  0.19844  1.0000
  H   H10       1.0  0.71495  0.20363  0.1979  1.0000
  C   C23       1.0  0.20669000000000007  0.7895099999999998  0.78194  1.0000
  C   C24       1.0  0.36514  0.8249899999999998  0.8173900000000001  1.0000
  H   H11       1.0  0.06553  0.8087999999999999  0.80324  1.0000
  H   H12       1.0  0.50575  0.81269  0.79463  1.0000
  C   C25       1.0  0.21418999999999996  0.73054  0.71162  1.0000
  C   C26       1.0  0.35974  0.66901  0.68549  1.0000
  H   H13       1.0  0.08887  0.73653  0.68062  1.0000
  C   C27       1.0  0.31141  0.88782  0.38697  1.0000
  H   H14       1.0  0.3076500000000001  0.83763  0.47981000000000007  1.0000
  H   H15       1.0  0.27001  0.009820000000000002  0.30258  1.0000
  H   H16       1.0  0.28406  0.9648899999999999  0.41147  1.0000
  C   C28       1.0  0.3521900000000001  0.71539  0.39538  1.0000
  C   C29       1.0  0.4124800000000001  0.68712  0.07241  1.0000
  C   C30       1.0  0.46474  0.6152699999999999  0.10901  1.0000
  C   C31       1.0  0.46804  0.64088  0.17926  1.0000
  C   C32       1.0  0.3928300000000001  0.7346199999999999  0.21391000000000002  1.0000
  C   C33       1.0  0.35236000000000006  0.8087799999999998  0.17585  1.0000
  C   C34       1.0  0.36771  0.75963  0.28514  1.0000
  C   C35       1.0  0.32866  0.8605199999999998  0.31696  1.0000
  C   C36       1.0  0.3018  0.93296  0.27871  1.0000
  C   C37       1.0  0.3085500000000001  0.9071499999999998  0.20926999999999998  1.0000
  C   C38       1.0  0.3702200000000001  0.68737  0.32574  1.0000
  C   C39       1.0  0.3245  0.8157099999999999  0.42597  1.0000
  C   C40       1.0  0.36549  0.78438  0.10508  1.0000
  H   H17       1.0  0.37336  0.60813  0.30451  1.0000
  H   H18       1.0  0.4218600000000001  0.66933  0.01819  1.0000
  H   H19       1.0  0.28099  0.96571  0.18201  1.0000
  O   O11       1.0  0.20323000000000005  0.91731  0.91502  1.0000
  O   O12       1.0  0.5355  0.88869  0.04804  1.0000
  O   O13       1.0  0.71108  0.08260999999999999  0.085  1.0000
  C   C41       1.0  0.36747  0.86228  0.06516  1.0000
  O   O14       1.0  0.53263  0.9053699999999999  0.91323  1.0000
  O   O15       1.0  0.70819  0.09940999999999996  0.9492299999999999  1.0000
  C   C42       1.0  0.36431  0.8861499999999995  0.88606  1.0000
  O   O16       1.0  0.20612000000000003  0.90051  0.05079  1.0000
  O   O17       1.0  0.37536  0.06357  0.01199  1.0000
  V   V3        1.0  0.6481700000000001  0.9881999999999997  0.9977799999999999  1.0000
  O   O18       1.0  0.03824  0.11138999999999995  0.95194  1.0000
  C   C43       1.0  0.86931  0.13736  0.93477  1.0000
  O   O19       1.0  0.04112  0.09470999999999997  0.08675  1.0000
  C   C44       1.0  0.8727800000000002  0.11597  0.11346000000000002  1.0000
  V   V4        1.0  0.14881000000000005  0.011929999999999998  0.00218  1.0000
  O   O20       1.0  0.8717500000000001  0.9364299999999999  0.9880099999999999  1.0000
  O   O21       1.0  0.51165  0.65314  0.72627  1.0000
  H   H20       1.0  0.5966400000000001  0.60068  0.70098  1.0000
  O   O22       1.0  0.87356  0.9634499999999998  0.68897  1.0000
  C   C45       1.0  0.6835  0.92804  0.67328  1.0000
  H   H21       1.0  0.59923  0.9787499999999998  0.64771  1.0000
  H   H22       1.0  0.6071  0.9204999999999998  0.71969  1.0000
  C   C46       1.0  0.69041  0.82601  0.62591  1.0000
  H   H23       1.0  0.75423  0.76999  0.65186  1.0000
  H   H24       1.0  0.54226  0.80168  0.6088  1.0000
  H   H25       1.0  0.7782300000000001  0.8303999999999999  0.58132  1.0000
  O   O23       1.0  0.5622  0.57662  0.21260000000000004  1.0000
  C   C47       1.0  0.7546900000000002  0.61042  0.22503  1.0000
  H   H26       1.0  0.7625  0.6909799999999998  0.25081  1.0000
  H   H27       1.0  0.83562  0.5998099999999998  0.17716  1.0000
  C   C48       1.0  0.85225  0.55008  0.27033  1.0000
  H   H28       1.0  0.84647  0.46923  0.24656  1.0000
  H   H29       1.0  0.005240000000000002  0.57379  0.27874  1.0000
  H   H30       1.0  0.7782300000000001  0.56233  0.31942  1.0000
  O   O24       1.0  0.5264200000000001  0.52117  0.07762  1.0000
  H   H31       1.0  0.51706  0.51471  0.02837  1.0000
  O   O25       1.0  0.84926  0.33698000000000006  0.9992900000000001  1.0000
  C   C49       1.0  0.9872900000000002  0.41095  0.027179999999999996  1.0000
  H   H32       1.0  0.9274300000000002  0.4868599999999999  0.029100000000000004  1.0000
  H   H33       1.0  0.12476  0.40274000000000004  0.99857  1.0000
  C   C50       1.0  0.03333  0.40117  0.0985  1.0000
  H   H34       1.0  0.10409  0.32823  0.098  1.0000
  H   H35       1.0  0.13157  0.4628300000000001  0.12294000000000001  1.0000
  H   H36       1.0  0.8984700000000002  0.40500999999999987  0.12777  1.0000
