data_image0
_chemical_formula_structural       C42Cr6H17O26CH3
_chemical_formula_sum              "C43 Cr6 H20 O26"
_cell_length_a       10.65411
_cell_length_b       10.636660000000001
_cell_length_c       16.87917
_cell_angle_alpha    98.97151000000001
_cell_angle_beta     98.95563
_cell_angle_gamma    61.624300000000005

_space_group_name_H-M_alt    "P 1"
_space_group_IT_number       1

loop_
  _space_group_symop_operation_xyz
  'x, y, z'

loop_
  _atom_site_type_symbol
  _atom_site_label
  _atom_site_symmetry_multiplicity
  _atom_site_fract_x
  _atom_site_fract_y
  _atom_site_fract_z
  _atom_site_occupancy
  C   C1        1.0  0.35474  0.77521  0.39858  1.0000
  C   C2        1.0  0.7625199999999999  0.2915400000000001  0.24804  1.0000
  C   C3        1.0  0.83159  0.34235  0.32417  1.0000
  C   C4        1.0  0.98199  0.23622  0.3023  1.0000
  C   C5        1.0  0.9816500000000001  0.353  0.25764  1.0000
  C   C6        1.0  0.8299400000000001  0.45975  0.28054  1.0000
  C   C7        1.0  0.76251  0.40768  0.20366  1.0000
  C   C8        1.0  0.91365  0.30161000000000004  0.18167  1.0000
  C   C9        1.0  0.4757199999999999  0.77241  0.2202  1.0000
  C   C10       1.0  0.41563000000000005  0.68512  0.25266  1.0000
  C   C11       1.0  0.34859999999999997  0.8093  0.31816  1.0000
  C   C12       1.0  0.37116  0.34702  0.3586  1.0000
  C   C13       1.0  0.41053000000000006  0.8945599999999999  0.28783  1.0000
  C   C14       1.0  0.26994  0.9641700000000001  0.23321999999999996  1.0000
  C   C15       1.0  0.20908000000000004  0.87757  0.26467  1.0000
  C   C16       1.0  0.27452  0.75467  0.1983  1.0000
  C   C17       1.0  0.33452  0.8409300000000001  0.16707  1.0000
  C   C18       1.0  0.4625799999999999  0.26279  0.77703  1.0000
  C   C19       1.0  0.40284999999999993  0.40429  0.73778  1.0000
  C   C20       1.0  0.34096  0.33792  0.66459  1.0000
  C   C21       1.0  0.40139  0.19731000000000004  0.70276  1.0000
  C   C22       1.0  0.25891  0.25947  0.7396599999999999  1.0000
  C   C23       1.0  0.7770499999999999  0.37674  0.40191  1.0000
  C   C24       1.0  0.19790000000000005  0.40031999999999995  0.70046  1.0000
  C   C25       1.0  0.2594600000000001  0.46509000000000006  0.7757  1.0000
  C   C26       1.0  0.31994  0.32359  0.81382  1.0000
  C   C27       1.0  0.7649600000000001  0.36973  0.71614  1.0000
  C   C28       1.0  0.80836  0.33202  0.7831099999999998  1.0000
  C   C29       1.0  0.35915  0.76206  0.71497  1.0000
  C   C30       1.0  0.3279000000000001  0.80708  0.78291  1.0000
  C   C31       1.0  0.95838  0.28492000000000006  0.10257  1.0000
  C   C32       1.0  0.3201800000000001  0.30076  0.11974  1.0000
  C   C33       1.0  0.29830999999999996  0.88503  0.08631  1.0000
  C   C34       1.0  0.37982999999999995  0.71527  0.63159  1.0000
  C   C35       1.0  0.87542  0.30358  0.86315  1.0000
  C   C36       1.0  0.3086299999999999  0.29471  0.8923999999999997  1.0000
  C   C37       1.0  0.28354999999999997  0.8775400000000001  0.8605899999999999  1.0000
  C   C38       1.0  0.36813  0.34661  0.58575  1.0000
  C   C39       1.0  0.7172300000000001  0.4113  0.63564  1.0000
  C   C40       1.0  0.34623  0.3377  0.2747  1.0000
  C   C41       1.0  0.33422999999999997  0.32834  0.20337  1.0000
  C   C42       1.0  0.9142999999999999  0.18432  0.2244  1.0000
  Cr  Cr1       1.0  0.6083400000000002  0.61104  0.5204299999999997  1.0000
  Cr  Cr2       1.0  0.28765000000000013  0.60112  0.48935  1.0000
  Cr  Cr3       1.0  0.6040399999999999  0.28787  0.49027999999999994  1.0000
  Cr  Cr4       1.0  0.05402  0.052700000000000004  0.97085  1.0000
  Cr  Cr5       1.0  0.059230000000000005  0.37512  0.9933899999999999  1.0000
  Cr  Cr6       1.0  0.37495000000000006  0.06119999999999998  0.99234  1.0000
  H   H1        1.0  0.6719300000000001  0.26669  0.24622  1.0000
  H   H2        1.0  0.21584999999999996  0.07862999999999999  0.22147999999999995  1.0000
  H   H3        1.0  0.10275999999999999  0.91721  0.28681  1.0000
  H   H4        1.0  0.22074999999999997  0.6959  0.1602  1.0000
  H   H5        1.0  0.4633  0.46387  0.73452  1.0000
  H   H6        1.0  0.5705799999999999  0.20883  0.80983  1.0000
  H   H7        1.0  0.45679  0.08804  0.67136  1.0000
  H   H8        1.0  0.09045000000000003  0.45363999999999993  0.667  1.0000
  H   H9        1.0  0.20362999999999998  0.57388  0.80749  1.0000
  H   H10       1.0  0.94475  0.07366  0.19614  1.0000
  H   H11       1.0  0.06900999999999999  0.16906  0.34582  1.0000
  H   H12       1.0  0.07044999999999998  0.3799  0.25955  1.0000
  H   H13       1.0  0.7948499999999998  0.57359  0.3044499999999999  1.0000
  H   H14       1.0  0.6746699999999998  0.47482000000000013  0.16053  1.0000
  H   H15       1.0  0.475  0.56994  0.2636  1.0000
  H   H16       1.0  0.58361  0.73064  0.19962  1.0000
  H   H17       1.0  0.4638700000000001  0.95312  0.32657  1.0000
  O   O1        1.0  0.75122  0.49922999999999995  0.43517  1.0000
  O   O2        1.0  0.2978799999999999  0.46908000000000005  0.56005  1.0000
  O   O3        1.0  0.48972  0.25459  0.56481  1.0000
  O   O4        1.0  0.72522  0.30423  0.58508  1.0000
  O   O5        1.0  0.50001  0.50001  0.50002  1.0000
  O   O6        1.0  0.1718299999999999  0.9138800000000001  0.057509999999999985  1.0000
  O   O7        1.0  0.9406900000000001  0.18605  0.05473  1.0000
  O   O8        1.0  0.9204699999999999  0.40572  0.07501  1.0000
  O   O9        1.0  0.19668999999999998  0.37046  0.08412  1.0000
  O   O10       1.0  0.41298999999999997  0.18075  0.09160999999999997  1.0000
  O   O11       1.0  0.3666199999999999  0.9431300000000001  0.06576  1.0000
  O   O12       1.0  0.47721999999999987  0.7276  0.43686999999999987  1.0000
  O   O13       1.0  0.16051000000000004  0.90633  0.87921  1.0000
  O   O14       1.0  0.93019  0.17905  0.88945  1.0000
  O   O15       1.0  0.9091399999999998  0.39817  0.89671  1.0000
  O   O16       1.0  0.18619000000000002  0.36346  0.91883  1.0000
  O   O17       1.0  0.4016700000000001  0.1732  0.91331  1.0000
  O   O18       1.0  0.3561199999999999  0.93613  0.90047  1.0000
  O   O19       1.0  0.16273999999999997  0.16301  0.98553  1.0000
  O   O20       1.0  0.2586500000000001  0.74512  0.41147  1.0000
  O   O21       1.0  0.29707000000000006  0.46724  0.39596  1.0000
  O   O22       1.0  0.48883000000000004  0.25261  0.38779  1.0000
  O   O23       1.0  0.7244000000000002  0.30239  0.42098  1.0000
  O   O24       1.0  0.7521  0.50121  0.61219  1.0000
  O   O25       1.0  0.4780399999999999  0.72944  0.60097  1.0000
  O   O26       1.0  0.25953  0.74711  0.58849  1.0000
  C   C43       1.0  0.17716000000000004  0.17569  0.73811  1.0000
  H   H18       1.0  0.14106999999999997  0.15066  0.6751  1.0000
  H   H19       1.0  0.24826  0.07557  0.76592  1.0000
  H   H20       1.0  0.08415000000000003  0.23997999999999997  0.77294  1.0000
