data_image0
_chemical_formula_structural       C92Cr12H44O52NHCH3NHCH3NHCH3NHCH3NH2NH2NH2NH2NH2NH2NH2NH2
_chemical_formula_sum              "C96 Cr12 H76 O52 N12"
_cell_length_a       19.00939
_cell_length_b       10.9612
_cell_length_c       18.78987
_cell_angle_alpha    89.91226
_cell_angle_beta     89.62803
_cell_angle_gamma    90.06460999999999

_space_group_name_H-M_alt    "P 1"
_space_group_IT_number       1

loop_
  _space_group_symop_operation_xyz
  'x, y, z'

loop_
  _atom_site_type_symbol
  _atom_site_label
  _atom_site_symmetry_multiplicity
  _atom_site_fract_x
  _atom_site_fract_y
  _atom_site_fract_z
  _atom_site_occupancy
  C   C1        1.0  0.23963  0.46694  0.6469  1.0000
  C   C2        1.0  0.76018  0.46754  0.35291  1.0000
  C   C3        1.0  0.73963  0.9669399999999999  0.6469  1.0000
  C   C4        1.0  0.26018  0.96754  0.35291  1.0000
  C   C5        1.0  0.283  0.8348399999999999  0.53158  1.0000
  C   C6        1.0  0.70874  0.84267  0.46496000000000004  1.0000
  C   C7        1.0  0.783  0.33483999999999997  0.53158  1.0000
  C   C8        1.0  0.20874000000000004  0.34267  0.46496000000000004  1.0000
  C   C9        1.0  0.003740000000000002  0.65748  0.42628  1.0000
  C   C10       1.0  0.99277  0.66888  0.576  1.0000
  C   C11       1.0  0.50374  0.15748  0.42628  1.0000
  C   C12       1.0  0.49276999999999993  0.16888  0.576  1.0000
  C   C13       1.0  0.03263  0.87508  0.42238  1.0000
  C   C14       1.0  0.004510000000000001  0.89449  0.56768  1.0000
  C   C15       1.0  0.53263  0.37508  0.42238  1.0000
  C   C16       1.0  0.50451  0.3944899999999999  0.56768  1.0000
  C   C17       1.0  0.03935  0.98696  0.45624  1.0000
  C   C18       1.0  0.023770000000000003  0.99745  0.52841  1.0000
  C   C19       1.0  0.53935  0.48696  0.45624  1.0000
  C   C20       1.0  0.52377  0.49745  0.52841  1.0000
  C   C21       1.0  0.00292  0.77781  0.53566  1.0000
  C   C22       1.0  0.01222  0.77027  0.4608400000000001  1.0000
  C   C23       1.0  0.50292  0.27781  0.53566  1.0000
  C   C24       1.0  0.51222  0.27027  0.4608400000000001  1.0000
  C   C25       1.0  0.97937  0.55888  0.53992  1.0000
  C   C26       1.0  0.9988199999999999  0.54948  0.46808000000000005  1.0000
  C   C27       1.0  0.47936  0.05888  0.53992  1.0000
  C   C28       1.0  0.49882  0.04948  0.46808000000000005  1.0000
  C   C29       1.0  0.95426  0.4539599999999999  0.57595  1.0000
  C   C30       1.0  0.01036  0.4314  0.43988  1.0000
  C   C31       1.0  0.45426  0.9539599999999999  0.57595  1.0000
  C   C32       1.0  0.51036  0.9313999999999999  0.43988  1.0000
  C   C33       1.0  0.96098  0.33912  0.54537  1.0000
  C   C34       1.0  0.9902499999999999  0.32777  0.47787  1.0000
  C   C35       1.0  0.46097  0.8391199999999999  0.54537  1.0000
  C   C36       1.0  0.4902500000000001  0.8277699999999999  0.47787  1.0000
  C   C37       1.0  0.21005  0.81067  0.9370600000000001  1.0000
  C   C38       1.0  0.77352  0.86716  0.06628  1.0000
  C   C39       1.0  0.71005  0.31067  0.9370600000000001  1.0000
  C   C40       1.0  0.27352  0.36716999999999994  0.06628  1.0000
  C   C41       1.0  0.24768  0.8986599999999999  0.08413  1.0000
  C   C42       1.0  0.75659  0.88621  0.9090800000000001  1.0000
  C   C43       1.0  0.74768  0.39867  0.08413  1.0000
  C   C44       1.0  0.25659  0.38621  0.9090800000000001  1.0000
  C   C45       1.0  0.22695  0.8724799999999999  0.64696  1.0000
  C   C46       1.0  0.77282  0.87329  0.35285  1.0000
  C   C47       1.0  0.72695  0.3724799999999999  0.64696  1.0000
  C   C48       1.0  0.27282  0.37328999999999996  0.35285  1.0000
  C   C49       1.0  0.18236  0.88841  0.05844  1.0000
  C   C50       1.0  0.81567  0.9094699999999999  0.9446000000000001  1.0000
  C   C51       1.0  0.68236  0.38841  0.05844  1.0000
  C   C52       1.0  0.31567  0.40947  0.9446000000000001  1.0000
  C   C53       1.0  0.17004  0.88129  0.9811000000000001  1.0000
  C   C54       1.0  0.82683  0.8730299999999999  0.01832  1.0000
  C   C55       1.0  0.67004  0.38128999999999996  0.9811000000000001  1.0000
  C   C56       1.0  0.32682  0.37303  0.01832  1.0000
  C   C57       1.0  0.04764999999999999  0.6558  0.93366  1.0000
  C   C58       1.0  0.01962  0.66157  0.08828  1.0000
  C   C59       1.0  0.54765  0.1558  0.93366  1.0000
  C   C60       1.0  0.51962  0.16157  0.08828  1.0000
  C   C61       1.0  0.03825  0.56088  0.05198  1.0000
  C   C62       1.0  0.06255  0.56324  0.97758  1.0000
  C   C63       1.0  0.53826  0.06087999999999999  0.05198  1.0000
  C   C64       1.0  0.56255  0.06324  0.97758  1.0000
  C   C65       1.0  0.02676  0.65629  0.64661  1.0000
  C   C66       1.0  0.97268  0.6540199999999999  0.35397  1.0000
  C   C67       1.0  0.52676  0.15629  0.64661  1.0000
  C   C68       1.0  0.47267999999999993  0.15402  0.35397  1.0000
  C   C69       1.0  0.24003  0.46127  0.8482  1.0000
  C   C70       1.0  0.76057  0.46320999999999996  0.15028  1.0000
  C   C71       1.0  0.74003  0.96127  0.8482  1.0000
  C   C72       1.0  0.26056  0.9632099999999999  0.15029  1.0000
  C   C73       1.0  0.2059  0.81975  0.85892  1.0000
  C   C74       1.0  0.78931  0.8320499999999998  0.13887  1.0000
  C   C75       1.0  0.7059  0.31975  0.85892  1.0000
  C   C76       1.0  0.28931  0.33205  0.13887  1.0000
  C   C77       1.0  0.06297  0.64758  0.85805  1.0000
  C   C78       1.0  0.97356  0.65234  0.15076  1.0000
  C   C79       1.0  0.56297  0.14758  0.85806  1.0000
  C   C80       1.0  0.47356000000000004  0.15234  0.15076  1.0000
  C   C81       1.0  0.25135  0.9130899999999998  0.57756  1.0000
  C   C82       1.0  0.74965  0.91405  0.42281  1.0000
  C   C83       1.0  0.75135  0.41309  0.57756  1.0000
  C   C84       1.0  0.24965  0.4140499999999999  0.42281  1.0000
  C   C85       1.0  0.24494  0.9078799999999998  0.41921  1.0000
  C   C86       1.0  0.75291  0.9088399999999999  0.57918  1.0000
  C   C87       1.0  0.74494  0.40787999999999996  0.41921  1.0000
  C   C88       1.0  0.25291  0.4088399999999999  0.57918  1.0000
  C   C89       1.0  0.29788  0.87431  0.46035  1.0000
  C   C90       1.0  0.69851  0.87421  0.53933  1.0000
  C   C91       1.0  0.79788  0.37431  0.46035  1.0000
  C   C92       1.0  0.19851  0.37421999999999994  0.53933  1.0000
  Cr  Cr1       1.0  0.11397000000000002  0.50863  0.74792  1.0000
  Cr  Cr2       1.0  0.8860299999999999  0.50863  0.25208  1.0000
  Cr  Cr3       1.0  0.61397  0.00863  0.74792  1.0000
  Cr  Cr4       1.0  0.38603  0.00863  0.25208  1.0000
  Cr  Cr5       1.0  0.2692  0.66674  0.74985  1.0000
  Cr  Cr6       1.0  0.7308  0.66674  0.25015  1.0000
  Cr  Cr7       1.0  0.7692  0.16674  0.74985  1.0000
  Cr  Cr8       1.0  0.2308  0.16674  0.25015  1.0000
  Cr  Cr9       1.0  0.1123  0.8200699999999999  0.7498  1.0000
  Cr  Cr10      1.0  0.8877  0.8200699999999999  0.2502  1.0000
  Cr  Cr11      1.0  0.6123  0.32006999999999997  0.7498  1.0000
  Cr  Cr12      1.0  0.3877  0.32006999999999997  0.2502  1.0000
  H   H1        1.0  0.35196  0.87435  0.4416999999999999  1.0000
  H   H2        1.0  0.64531  0.86953  0.56073  1.0000
  H   H3        1.0  0.85196  0.3743499999999999  0.4416999999999999  1.0000
  H   H4        1.0  0.14531  0.36954000000000004  0.56073  1.0000
  H   H5        1.0  0.29342  0.8801299999999997  0.0513  1.0000
  H   H6        1.0  0.71726  0.8228  0.92892  1.0000
  H   H7        1.0  0.79342  0.38013  0.0513  1.0000
  H   H8        1.0  0.21726  0.3228  0.92892  1.0000
  H   H9        1.0  0.029030000000000004  0.47095  0.07457  1.0000
  H   H10       1.0  0.08586  0.4803099999999999  0.9563300000000001  1.0000
  H   H11       1.0  0.52903  0.9709499999999999  0.07457  1.0000
  H   H12       1.0  0.58586  0.98031  0.95634  1.0000
  H   H13       1.0  0.03279  0.75164  0.06856  1.0000
  H   H14       1.0  0.024129999999999995  0.7393199999999998  0.95273  1.0000
  H   H15       1.0  0.53279  0.25164  0.06856  1.0000
  H   H16       1.0  0.52413  0.23931999999999998  0.95273  1.0000
  H   H17       1.0  0.19102  0.9061799999999999  0.43899000000000005  1.0000
  H   H18       1.0  0.8061  0.91037  0.55747  1.0000
  H   H19       1.0  0.69102  0.40618  0.43899000000000005  1.0000
  H   H20       1.0  0.3061  0.41036999999999996  0.55748  1.0000
  H   H21       1.0  0.23836  0.005259999999999999  0.56076  1.0000
  H   H22       1.0  0.77336  0.9965999999999999  0.44393000000000005  1.0000
  H   H23       1.0  0.73836  0.50526  0.56076  1.0000
  H   H24       1.0  0.27337  0.49661  0.44393000000000005  1.0000
  H   H25       1.0  0.05628999999999999  0.06529  0.42579000000000006  1.0000
  H   H26       1.0  0.02732  0.08526  0.55429  1.0000
  H   H27       1.0  0.55629  0.56529  0.42579000000000006  1.0000
  H   H28       1.0  0.52731  0.58526  0.55429  1.0000
  H   H29       1.0  0.04619  0.8701999999999999  0.36641  1.0000
  H   H30       1.0  0.98985  0.90776  0.6228  1.0000
  H   H31       1.0  0.54619  0.3702  0.36641  1.0000
  H   H32       1.0  0.48984999999999995  0.40775999999999996  0.6228  1.0000
  H   H33       1.0  0.03498  0.41834  0.38835  1.0000
  H   H34       1.0  0.93225  0.4603099999999999  0.62915  1.0000
  H   H35       1.0  0.53498  0.91834  0.38835  1.0000
  H   H36       1.0  0.43224999999999997  0.96031  0.62915  1.0000
  H   H37       1.0  0.94535  0.25878  0.57483  1.0000
  H   H38       1.0  0.9957  0.2389  0.4541  1.0000
  H   H39       1.0  0.44534999999999997  0.7587799999999999  0.57483  1.0000
  H   H40       1.0  0.4957  0.7389  0.4541  1.0000
  H   H41       1.0  0.13787  0.91476  0.09165  1.0000
  H   H42       1.0  0.85679  0.9653099999999999  0.92079  1.0000
  H   H43       1.0  0.63787  0.41476  0.09165  1.0000
  H   H44       1.0  0.35679  0.46531  0.92079  1.0000
  O   O1        1.0  0.04323  0.5493  0.66799  1.0000
  O   O2        1.0  0.95677  0.5493  0.33201  1.0000
  O   O3        1.0  0.54323  0.0493  0.66799  1.0000
  O   O4        1.0  0.45677  0.0493  0.33201  1.0000
  O   O5        1.0  0.26292  0.7886  0.82442  1.0000
  O   O6        1.0  0.73708  0.7886  0.17558  1.0000
  O   O7        1.0  0.76292  0.2886  0.82442  1.0000
  O   O8        1.0  0.23708000000000004  0.2886  0.17558  1.0000
  O   O9        1.0  0.16753  0.90511  0.83034  1.0000
  O   O10       1.0  0.83247  0.90511  0.16966  1.0000
  O   O11       1.0  0.66753  0.40511  0.83034  1.0000
  O   O12       1.0  0.33247  0.40511  0.16966  1.0000
  O   O13       1.0  0.05401  0.7484399999999999  0.8228600000000001  1.0000
  O   O14       1.0  0.9459900000000001  0.7484399999999999  0.17714  1.0000
  O   O15       1.0  0.55401  0.24844  0.8228600000000001  1.0000
  O   O16       1.0  0.44598999999999994  0.24844  0.17714  1.0000
  O   O17       1.0  0.16516  0.66515  0.74919  1.0000
  O   O18       1.0  0.83484  0.66515  0.25081  1.0000
  O   O19       1.0  0.66516  0.16515  0.74919  1.0000
  O   O20       1.0  0.33484  0.16515  0.25081  1.0000
  O   O21       1.0  0.17862  0.4576  0.6741  1.0000
  O   O22       1.0  0.82138  0.4576  0.3259  1.0000
  O   O23       1.0  0.67862  0.9576  0.6741  1.0000
  O   O24       1.0  0.32138  0.9576  0.3259  1.0000
  O   O25       1.0  0.28468  0.5421  0.66946  1.0000
  O   O26       1.0  0.71532  0.5421  0.33054  1.0000
  O   O27       1.0  0.78468  0.042099999999999985  0.66946  1.0000
  O   O28       1.0  0.21532000000000004  0.0421  0.33054  1.0000
  O   O29       1.0  0.26286  0.79039  0.67665  1.0000
  O   O30       1.0  0.73714  0.79039  0.32335  1.0000
  O   O31       1.0  0.76286  0.29039  0.67665  1.0000
  O   O32       1.0  0.23714  0.29039  0.32335  1.0000
  O   O33       1.0  0.16746  0.90703  0.67094  1.0000
  O   O34       1.0  0.83254  0.90703  0.32906  1.0000
  O   O35       1.0  0.66746  0.40703  0.67094  1.0000
  O   O36       1.0  0.33254  0.40703  0.32906  1.0000
  O   O37       1.0  0.05395  0.75022  0.6751  1.0000
  O   O38       1.0  0.9460499999999998  0.75022  0.3249  1.0000
  O   O39       1.0  0.55395  0.25022  0.6751  1.0000
  O   O40       1.0  0.44604999999999995  0.25022  0.3249  1.0000
  O   O41       1.0  0.0433  0.54737  0.82739  1.0000
  O   O42       1.0  0.9566999999999999  0.54737  0.17261  1.0000
  O   O43       1.0  0.5433  0.04737  0.82739  1.0000
  O   O44       1.0  0.4567  0.04737  0.17261  1.0000
  O   O45       1.0  0.17869  0.45581999999999995  0.82186  1.0000
  O   O46       1.0  0.82131  0.45581999999999995  0.17814  1.0000
  O   O47       1.0  0.67869  0.95582  0.82186  1.0000
  O   O48       1.0  0.32131  0.95582  0.17814  1.0000
  O   O49       1.0  0.28475  0.54017  0.82886  1.0000
  O   O50       1.0  0.71525  0.54017  0.17114  1.0000
  O   O51       1.0  0.78475  0.04017  0.82886  1.0000
  O   O52       1.0  0.21525  0.04017  0.17114  1.0000
  N   N1        1.0  0.11681  0.9591  0.95338  1.0000
  H   H45       1.0  0.06882  0.9457999999999999  0.97786  1.0000
  C   C93       1.0  0.13598  0.08687  0.9513600000000001  1.0000
  H   H46       1.0  0.09400000000000001  0.13956  0.9243799999999999  1.0000
  H   H47       1.0  0.1859  0.09963  0.92116  1.0000
  H   H48       1.0  0.14229  0.12283  0.00622  1.0000
  N   N2        1.0  0.89772  0.8579399999999999  0.04044  1.0000
  H   H49       1.0  0.9247900000000001  0.79975  0.00732  1.0000
  C   C94       1.0  0.9354800000000001  0.9714099999999999  0.05132  1.0000
  H   H50       1.0  0.9850899999999999  0.95298  0.08013  1.0000
  H   H51       1.0  0.90383  0.03627999999999999  0.08363  1.0000
  H   H52       1.0  0.9484700000000001  0.01499  0.99949  1.0000
  N   N3        1.0  0.6168  0.45909  0.95338  1.0000
  H   H53       1.0  0.56881  0.44576  0.9778500000000001  1.0000
  C   C95       1.0  0.63596  0.58686  0.95137  1.0000
  H   H54       1.0  0.59398  0.63954  0.9243900000000002  1.0000
  H   H55       1.0  0.68589  0.59964  0.92117  1.0000
  H   H56       1.0  0.64226  0.62282  0.00622  1.0000
  N   N4        1.0  0.39772  0.35794  0.04044  1.0000
  H   H57       1.0  0.42479  0.29975  0.00732  1.0000
  C   C96       1.0  0.43548  0.47141  0.05132  1.0000
  H   H58       1.0  0.48509  0.45298999999999995  0.08013  1.0000
  H   H59       1.0  0.40383  0.53628  0.08363  1.0000
  H   H60       1.0  0.44847  0.51499  0.99949  1.0000
  N   N5        1.0  0.25276  0.71231  0.96393  1.0000
  H   H61       1.0  0.30517  0.74073  0.9660700000000001  1.0000
  H   H62       1.0  0.23570999999999998  0.68223  0.01396  1.0000
  N   N6        1.0  0.70301  0.9034299999999998  0.04893  1.0000
  H   H63       1.0  0.68862  0.97489  0.0828  1.0000
  H   H64       1.0  0.66927  0.83001  0.05907  1.0000
  N   N7        1.0  0.75277  0.21230999999999997  0.9639199999999999  1.0000
  H   H65       1.0  0.80518  0.24072999999999997  0.9660700000000001  1.0000
  H   H66       1.0  0.73572  0.18222999999999998  0.01396  1.0000
  N   N8        1.0  0.20301  0.40344  0.04893  1.0000
  H   H67       1.0  0.18862  0.47489999999999993  0.0828  1.0000
  H   H68       1.0  0.16927  0.33002  0.05907  1.0000
  N   N9        1.0  0.29384  0.70778  0.54531  1.0000
  H   H69       1.0  0.24571000000000004  0.66896  0.56008  1.0000
  H   H70       1.0  0.33126  0.69742  0.58513  1.0000
  N   N10       1.0  0.67639  0.7329099999999998  0.43968  1.0000
  H   H71       1.0  0.62234  0.74127  0.44754999999999995  1.0000
  H   H72       1.0  0.6938  0.6606  0.4713  1.0000
  N   N11       1.0  0.79384  0.20777999999999996  0.54531  1.0000
  H   H73       1.0  0.7457  0.16895999999999997  0.56008  1.0000
  H   H74       1.0  0.83126  0.19742  0.58513  1.0000
  N   N12       1.0  0.17639  0.2329  0.43968  1.0000
  H   H75       1.0  0.12233999999999999  0.24127999999999997  0.44753  1.0000
  H   H76       1.0  0.19379  0.1606  0.47130999999999995  1.0000
