data_image0
_chemical_formula_structural       C120Cr12H84N12O52
_chemical_formula_sum              "C120 Cr12 H84 N12 O52"
_cell_length_a       19.00033
_cell_length_b       11.00673
_cell_length_c       18.75848
_cell_angle_alpha    89.68196
_cell_angle_beta     90.58753
_cell_angle_gamma    90.26391

_symmetry_space_group_name_H-M    'P 1'
_symmetry_Int_Tables_number       1

loop_
  _symmetry_equiv_pos_as_xyz
  'x,y,z'

loop_
  _atom_site_type_symbol
  _atom_site_label
  _atom_site_symmetry_multiplicity
  _atom_site_fract_x
  _atom_site_fract_y
  _atom_site_fract_z
  _atom_site_occupancy
  C   C1        1.0  0.27512  0.03508  0.8565299999999999  1.0000
  C   C2        1.0  0.76595  0.55315  0.9329699999999999  1.0000
  C   C3        1.0  0.22830999999999999  0.54265  0.3550599999999999  1.0000
  C   C4        1.0  0.47157  0.82355  0.64794  1.0000
  C   C5        1.0  0.56234  0.8192400000000001  0.36009  1.0000
  C   C6        1.0  0.97152  0.32361  0.648  1.0000
  C   C7        1.0  0.06217  0.31925  0.3600999999999999  1.0000
  C   C8        1.0  0.25906  0.6357  0.64491  1.0000
  C   C9        1.0  0.73933  0.63626  0.3559999999999999  1.0000
  C   C10       1.0  0.75901  0.1358  0.64491  1.0000
  C   C11       1.0  0.23937  0.13605  0.3559  1.0000
  C   C12       1.0  0.43472000000000005  0.88725  0.043789999999999996  1.0000
  C   C13       1.0  0.73474  0.05446  0.06674  1.0000
  C   C14       1.0  0.4770499999999999  0.9430000000000001  0.981  1.0000
  C   C15       1.0  0.93472  0.38725  0.043789999999999996  1.0000
  C   C16       1.0  0.97705  0.443  0.981  1.0000
  C   C17       1.0  0.41879  0.7736800000000001  0.99861  1.0000
  C   C18       1.0  0.5446  0.88183  0.01002  1.0000
  C   C19       1.0  0.9187899999999999  0.27368  0.99861  1.0000
  C   C20       1.0  0.0446  0.38183  0.01002  1.0000
  C   C21       1.0  0.46181  0.82783  0.93752  1.0000
  C   C22       1.0  0.5018  0.82663  0.07114  1.0000
  C   C23       1.0  0.96181  0.32783  0.93752  1.0000
  C   C24       1.0  0.26595  0.05314  0.9329699999999999  1.0000
  C   C25       1.0  0.0018  0.32663  0.07115  1.0000
  C   C26       1.0  0.28418  0.48757  0.02873  1.0000
  C   C27       1.0  0.71645  0.48657  0.9717699999999999  1.0000
  C   C28       1.0  0.7841799999999999  0.98757  0.02873  1.0000
  C   C29       1.0  0.21645  0.98656  0.9717699999999999  1.0000
  C   C30       1.0  0.28824  0.49704  0.9550399999999998  1.0000
  C   C31       1.0  0.71087  0.50263  0.04458999999999999  1.0000
  C   C32       1.0  0.78824  0.99704  0.9550399999999998  1.0000
  C   C33       1.0  0.72508  0.03579  0.14347  1.0000
  C   C34       1.0  0.21086999999999997  0.0026299999999999995  0.0446  1.0000
  C   C35       1.0  0.17893  0.60615  0.9527299999999999  1.0000
  C   C36       1.0  0.82087  0.61241  0.04613  1.0000
  C   C37       1.0  0.67893  0.10616000000000002  0.9527299999999999  1.0000
  C   C38       1.0  0.32087  0.1124  0.04613  1.0000
  C   C39       1.0  0.17943  0.60779  0.027279999999999995  1.0000
  C   C40       1.0  0.82122  0.6086900000000001  0.9716899999999999  1.0000
  C   C41       1.0  0.67942  0.10780000000000002  0.027279999999999995  1.0000
  C   C42       1.0  0.32122  0.10867999999999998  0.9716899999999999  1.0000
  C   C43       1.0  0.36207  0.48462000000000005  0.03647  1.0000
  C   C44       1.0  0.77512  0.53509  0.8565299999999999  1.0000
  C   C45       1.0  0.63881  0.47562  0.9622799999999999  1.0000
  C   C46       1.0  0.86207  0.98461  0.03647  1.0000
  C   C47       1.0  0.13881  0.97562  0.96229  1.0000
  C   C48       1.0  0.36642  0.48794000000000004  0.95557  1.0000
  C   C49       1.0  0.63265  0.49746  0.04203  1.0000
  C   C50       1.0  0.8664199999999999  0.9879300000000001  0.95557  1.0000
  C   C51       1.0  0.13265  0.99746  0.04203  1.0000
  C   C52       1.0  0.24064999999999998  0.56985  0.91673  1.0000
  C   C53       1.0  0.75885  0.5753  0.08236  1.0000
  C   C54       1.0  0.74065  0.06985  0.91673  1.0000
  C   C55       1.0  0.22507999999999997  0.53579  0.14347  1.0000
  C   C56       1.0  0.25885  0.0753  0.08236  1.0000
  C   C57       1.0  0.5496  0.82533  0.43657  1.0000
  C   C58       1.0  0.50992  0.82784  0.58091  1.0000
  C   C59       1.0  0.04859  0.32524  0.43631  1.0000
  C   C60       1.0  0.00873  0.32789  0.58049  1.0000
  C   C61       1.0  0.43994  0.81756  0.8624199999999999  1.0000
  C   C62       1.0  0.53034  0.82112  0.14413  1.0000
  C   C63       1.0  0.9399400000000001  0.31756  0.8624199999999999  1.0000
  C   C64       1.0  0.03034  0.32112  0.14413  1.0000
  C   C65       1.0  0.53298  0.71878  0.47248  1.0000
  C   C66       1.0  0.52903  0.7678  0.9655199999999999  1.0000
  C   C67       1.0  0.51284  0.72051  0.54207  1.0000
  C   C68       1.0  0.029440000000000004  0.21925  0.47139  1.0000
  C   C69       1.0  0.00844  0.22174000000000002  0.5407  1.0000
  C   C70       1.0  0.53626  0.9344700000000001  0.54911  1.0000
  C   C71       1.0  0.55469  0.9336800000000001  0.47632  1.0000
  C   C72       1.0  0.03694  0.43347  0.54934  1.0000
  C   C73       1.0  0.05509  0.43285  0.47648999999999997  1.0000
  C   C74       1.0  0.48022999999999993  0.62299  0.45364999999999994  1.0000
  C   C75       1.0  0.45783999999999997  0.62529  0.53051  1.0000
  C   C76       1.0  0.97418  0.12827  0.45153999999999994  1.0000
  C   C77       1.0  0.48647999999999997  0.71233  0.02713  1.0000
  C   C78       1.0  0.9502099999999999  0.13294  0.52786  1.0000
  C   C79       1.0  0.24367  0.56706  0.42893  1.0000
  C   C80       1.0  0.75718  0.58515  0.57502  1.0000
  C   C81       1.0  0.74352  0.06703000000000003  0.42898  1.0000
  C   C82       1.0  0.25589  0.08533  0.57507  1.0000
  C   C83       1.0  0.18987  0.62333  0.46470999999999996  1.0000
  C   C84       1.0  0.81559  0.60959  0.53244  1.0000
  C   C85       1.0  0.69012  0.12515  0.46443  1.0000
  C   C86       1.0  0.31431  0.11222  0.5328399999999999  1.0000
  C   C87       1.0  0.18768  0.62748  0.5367899999999999  1.0000
  C   C88       1.0  0.02902  0.2678  0.9655199999999999  1.0000
  C   C89       1.0  0.80974  0.61333  0.4602  1.0000
  C   C90       1.0  0.6878999999999998  0.13  0.53652  1.0000
  C   C91       1.0  0.30916  0.11465000000000002  0.46051  1.0000
  C   C92       1.0  0.29408  0.50938  0.54416  1.0000
  C   C93       1.0  0.68507  0.57608  0.46906  1.0000
  C   C94       1.0  0.79301  0.00839  0.54443  1.0000
  C   C95       1.0  0.18511  0.07129  0.4680099999999999  1.0000
  C   C96       1.0  0.29532  0.50245  0.46991999999999995  1.0000
  C   C97       1.0  0.69015  0.57499  0.54329  1.0000
  C   C98       1.0  0.79446  0.0012600000000000005  0.47024  1.0000
  C   C99       1.0  0.98648  0.21233  0.02713  1.0000
  C   C100      1.0  0.18924999999999997  0.069  0.54263  1.0000
  C   C101      1.0  0.15633  0.74327  0.45244999999999996  1.0000
  C   C102      1.0  0.8844199999999999  0.54424  0.52914  1.0000
  C   C103      1.0  0.65846  0.24657  0.45189  1.0000
  C   C104      1.0  0.38395  0.04884  0.53017  1.0000
  C   C105      1.0  0.15335  0.75058  0.53289  1.0000
  C   C106      1.0  0.8771600000000002  0.5483  0.44867  1.0000
  C   C107      1.0  0.65531  0.25464  0.53228  1.0000
  C   C108      1.0  0.37712  0.05091  0.4497399999999999  1.0000
  C   C109      1.0  0.25907  0.63264  0.8500899999999998  1.0000
  C   C110      1.0  0.23474  0.55446  0.06674  1.0000
  C   C111      1.0  0.74076  0.634  0.1496  1.0000
  C   C112      1.0  0.75907  0.13264  0.8500899999999998  1.0000
  C   C113      1.0  0.24076  0.134  0.1496  1.0000
  C   C114      1.0  0.24393  0.58185  0.5772  1.0000
  C   C115      1.0  0.74573  0.59289  0.42743  1.0000
  C   C116      1.0  0.74359  0.08254  0.5771499999999999  1.0000
  C   C117      1.0  0.24581000000000003  0.09186  0.4271499999999999  1.0000
  C   C118      1.0  0.2715  0.04648  0.64644  1.0000
  C   C119      1.0  0.72824  0.04253  0.35511  1.0000
  C   C120      1.0  0.77185  0.54617  0.6463399999999999  1.0000
  Cr  Cr1       1.0  0.22963999999999998  0.83588  0.74737  1.0000
  Cr  Cr2       1.0  0.61423  0.67722  0.25066  1.0000
  Cr  Cr3       1.0  0.8857700000000001  0.17722  0.74934  1.0000
  Cr  Cr4       1.0  0.11423  0.17722  0.25066  1.0000
  Cr  Cr5       1.0  0.77036  0.83588  0.25263  1.0000
  Cr  Cr6       1.0  0.72964  0.33588  0.74737  1.0000
  Cr  Cr7       1.0  0.27036  0.33588  0.25263  1.0000
  Cr  Cr8       1.0  0.38739  0.9897200000000002  0.7508499999999999  1.0000
  Cr  Cr9       1.0  0.61261  0.9897200000000002  0.24914999999999998  1.0000
  Cr  Cr10      1.0  0.8873900000000001  0.48972  0.7508499999999999  1.0000
  Cr  Cr11      1.0  0.11261000000000002  0.48972  0.24914999999999998  1.0000
  Cr  Cr12      1.0  0.38577  0.67722  0.74934  1.0000
  H   H1        1.0  0.36435  0.73821  0.9928  1.0000
  H   H2        1.0  0.89776  0.17587  0.53368  1.0000
  H   H3        1.0  0.50521  0.53596  0.43831  1.0000
  H   H4        1.0  0.40408  0.66227  0.53747  1.0000
  H   H5        1.0  0.43895000000000006  0.65719  0.4163  1.0000
  H   H6        1.0  0.46966  0.53964  0.55986  1.0000
  H   H7        1.0  0.9345799999999999  0.16498  0.41314999999999996  1.0000
  H   H8        1.0  0.95794  0.04605000000000001  0.5572899999999998  1.0000
  H   H9        1.0  0.33634  0.4684  0.5750499999999998  1.0000
  H   H10       1.0  0.63406  0.56561  0.44397999999999993  1.0000
  H   H11       1.0  0.83469  0.9661800000000001  0.57555  1.0000
  H   H12       1.0  0.59763  0.9213000000000001  0.01668  1.0000
  H   H13       1.0  0.13449  0.059910000000000005  0.44197  1.0000
  H   H14       1.0  0.10407  0.73535  0.4256  1.0000
  H   H15       1.0  0.8812800000000001  0.45135999999999993  0.5523299999999999  1.0000
  H   H16       1.0  0.60619  0.24073  0.42486999999999997  1.0000
  H   H17       1.0  0.3818  0.95623  0.55385  1.0000
  H   H18       1.0  0.19304  0.8104899999999998  0.42836  1.0000
  H   H19       1.0  0.92798  0.6023  0.54966  1.0000
  H   H20       1.0  0.69619  0.31206  0.42778  1.0000
  H   H21       1.0  0.42693  0.10844  0.5504599999999998  1.0000
  H   H22       1.0  0.18608  0.82491  0.55529  1.0000
  H   H23       1.0  0.8643399999999999  0.2382  0.99281  1.0000
  H   H24       1.0  0.9174599999999999  0.60488  0.4213399999999999  1.0000
  H   H25       1.0  0.68883  0.32805  0.55475  1.0000
  H   H26       1.0  0.41718  0.10765  0.42216999999999993  1.0000
  H   H27       1.0  0.39581  0.92295  0.0814  1.0000
  H   H28       1.0  0.47438  0.03631  0.95881  1.0000
  H   H29       1.0  0.8957999999999999  0.42294000000000004  0.0814  1.0000
  H   H30       1.0  0.97437  0.53631  0.95881  1.0000
  H   H31       1.0  0.56813  0.72508  0.9306199999999999  1.0000
  H   H32       1.0  0.49183  0.61745  0.04622  1.0000
  H   H33       1.0  0.06812000000000001  0.22508  0.93063  1.0000
  H   H34       1.0  0.09763  0.4213100000000001  0.01668  1.0000
  H   H35       1.0  0.99183  0.11745  0.04622  1.0000
  H   H36       1.0  0.13455  0.64645  0.053989999999999996  1.0000
  H   H37       1.0  0.86621  0.64707  0.94456  1.0000
  H   H38       1.0  0.63455  0.14645  0.053989999999999996  1.0000
  H   H39       1.0  0.36621  0.14705999999999997  0.94457  1.0000
  H   H40       1.0  0.88242  0.8998000000000002  0.05888  1.0000
  H   H41       1.0  0.12287  0.8825600000000001  0.94647  1.0000
  H   H42       1.0  0.38242  0.39981  0.05888  1.0000
  H   H43       1.0  0.62287  0.38256  0.94647  1.0000
  H   H44       1.0  0.38082  0.566  0.06517  1.0000
  H   H45       1.0  0.53694  0.01892  0.57825  1.0000
  H   H46       1.0  0.61686  0.54801  0.9278  1.0000
  H   H47       1.0  0.8808199999999999  0.06599  0.06517  1.0000
  H   H48       1.0  0.11685999999999999  0.04801  0.9278  1.0000
  H   H49       1.0  0.39391  0.56785  0.9332799999999999  1.0000
  H   H50       1.0  0.60957  0.58665  0.05512  1.0000
  H   H51       1.0  0.8939099999999999  0.06784  0.93329  1.0000
  H   H52       1.0  0.10957000000000001  0.08665  0.05512  1.0000
  H   H53       1.0  0.38403  0.40019  0.9328799999999999  1.0000
  H   H54       1.0  0.61123  0.41807  0.07172  1.0000
  H   H55       1.0  0.88403  0.9001800000000001  0.9328799999999999  1.0000
  H   H56       1.0  0.56753  0.01822  0.45008  1.0000
  H   H57       1.0  0.11123  0.9180700000000002  0.07172  1.0000
  H   H58       1.0  0.33167  0.35274  0.4212299999999999  1.0000
  H   H59       1.0  0.37223999999999996  0.48374000000000006  0.39593  1.0000
  H   H60       1.0  0.6264  0.48081  0.61123  1.0000
  H   H61       1.0  0.62818  0.63287  0.62305  1.0000
  H   H62       1.0  0.8299099999999999  0.85076  0.42191  1.0000
  H   H63       1.0  0.8716000000000002  0.98074  0.39665  1.0000
  H   H64       1.0  0.08488  0.030730000000000004  0.5500199999999998  1.0000
  H   H65       1.0  0.13029  0.97472  0.6156299999999999  1.0000
  H   H66       1.0  0.08329  0.75091  0.61471  1.0000
  H   H67       1.0  0.03927  0.51715  0.57911  1.0000
  H   H68       1.0  0.05496  0.82359  0.5410399999999999  1.0000
  H   H69       1.0  0.83171  0.37596  0.44632999999999995  1.0000
  H   H70       1.0  0.9142099999999999  0.38453000000000004  0.4153699999999999  1.0000
  H   H71       1.0  0.58471  0.25456  0.6136099999999999  1.0000
  H   H72       1.0  0.55907  0.33454  0.54158  1.0000
  H   H73       1.0  0.33156  0.8786300000000001  0.44776999999999995  1.0000
  H   H74       1.0  0.4151  0.88548  0.41997  1.0000
  H   H75       1.0  0.07768  0.67187  0.9488899999999999  1.0000
  H   H76       1.0  0.09802999999999999  0.57189  0.88545  1.0000
  H   H77       1.0  0.8814999999999998  0.73062  0.10568  1.0000
  H   H78       1.0  0.06898  0.51699  0.45051  1.0000
  H   H79       1.0  0.92729  0.65022  0.04948  1.0000
  H   H80       1.0  0.57768  0.17188  0.9488899999999999  1.0000
  H   H81       1.0  0.59803  0.07189  0.88546  1.0000
  H   H82       1.0  0.3815  0.23063000000000003  0.10567  1.0000
  H   H83       1.0  0.42728999999999995  0.15021  0.04948  1.0000
  H   H84       1.0  0.9972099999999999  0.03925  0.43690999999999997  1.0000
  N   N1        1.0  0.35159  0.43539000000000005  0.43898  1.0000
  N   N2        1.0  0.88481  0.6446  0.08418  1.0000
  N   N3        1.0  0.61747  0.14638  0.9139899999999999  1.0000
  N   N4        1.0  0.38481  0.1446  0.08418  1.0000
  N   N5        1.0  0.62753  0.56418  0.5847599999999998  1.0000
  N   N6        1.0  0.8503799999999999  0.9329600000000001  0.43963  1.0000
  N   N7        1.0  0.12652  0.05239  0.58415  1.0000
  N   N8        1.0  0.08124  0.74596  0.5590999999999999  1.0000
  N   N9        1.0  0.86603  0.42911  0.41575  1.0000
  N   N10       1.0  0.58296  0.25351  0.55792  1.0000
  N   N11       1.0  0.36707  0.93054  0.41787  1.0000
  N   N12       1.0  0.11747  0.64638  0.9139899999999999  1.0000
  O   O1        1.0  0.21429999999999996  0.70908  0.8274999999999998  1.0000
  O   O2        1.0  0.54334  0.71771  0.3301799999999999  1.0000
  O   O3        1.0  0.95666  0.21771  0.66982  1.0000
  O   O4        1.0  0.04334  0.21771  0.3301799999999999  1.0000
  O   O5        1.0  0.32059  0.62577  0.67293  1.0000
  O   O6        1.0  0.67941  0.62577  0.32707  1.0000
  O   O7        1.0  0.82059  0.12577  0.67293  1.0000
  O   O8        1.0  0.17941  0.12577  0.32707  1.0000
  O   O9        1.0  0.33427  0.83428  0.7491899999999999  1.0000
  O   O10       1.0  0.66573  0.83428  0.2508099999999999  1.0000
  O   O11       1.0  0.83427  0.33428  0.7491899999999999  1.0000
  O   O12       1.0  0.7857  0.70908  0.1725  1.0000
  O   O13       1.0  0.16573  0.33428  0.2508099999999999  1.0000
  O   O14       1.0  0.23619  0.95839  0.82315  1.0000
  O   O15       1.0  0.76381  0.95839  0.17684999999999998  1.0000
  O   O16       1.0  0.73619  0.45838999999999996  0.82315  1.0000
  O   O17       1.0  0.26381  0.45838999999999996  0.17684999999999998  1.0000
  O   O18       1.0  0.33209  0.07528  0.83129  1.0000
  O   O19       1.0  0.66791  0.07528  0.16871  1.0000
  O   O20       1.0  0.83209  0.57528  0.83129  1.0000
  O   O21       1.0  0.16791  0.57528  0.16871  1.0000
  O   O22       1.0  0.44628  0.91804  0.82662  1.0000
  O   O23       1.0  0.7143  0.20908  0.8274999999999998  1.0000
  O   O24       1.0  0.55372  0.91804  0.17337999999999998  1.0000
  O   O25       1.0  0.9462800000000001  0.4180400000000001  0.82662  1.0000
  O   O26       1.0  0.05372  0.4180400000000001  0.17337999999999998  1.0000
  O   O27       1.0  0.45708  0.71627  0.8317599999999999  1.0000
  O   O28       1.0  0.54292  0.71627  0.16824  1.0000
  O   O29       1.0  0.9570799999999999  0.21627  0.8317599999999999  1.0000
  O   O30       1.0  0.04292  0.21627  0.16824  1.0000
  O   O31       1.0  0.32098  0.62444  0.8230399999999998  1.0000
  O   O32       1.0  0.67902  0.62444  0.17695999999999998  1.0000
  O   O33       1.0  0.82098  0.12444  0.8230399999999998  1.0000
  O   O34       1.0  0.2857  0.20908  0.1725  1.0000
  O   O35       1.0  0.17902  0.12444  0.17695999999999998  1.0000
  O   O36       1.0  0.21388  0.71051  0.66556  1.0000
  O   O37       1.0  0.78612  0.71051  0.33444  1.0000
  O   O38       1.0  0.71388  0.21051  0.66556  1.0000
  O   O39       1.0  0.28612  0.21051  0.33444  1.0000
  O   O40       1.0  0.2358  0.9597200000000001  0.67304  1.0000
  O   O41       1.0  0.7642  0.9597200000000001  0.32696  1.0000
  O   O42       1.0  0.7358  0.45971999999999996  0.67304  1.0000
  O   O43       1.0  0.2642  0.45971999999999996  0.32696  1.0000
  O   O44       1.0  0.33167  0.07672000000000002  0.6693499999999999  1.0000
  O   O45       1.0  0.4459  0.91937  0.6765  1.0000
  O   O46       1.0  0.66833  0.07672  0.33064999999999994  1.0000
  O   O47       1.0  0.83167  0.57672  0.6693499999999999  1.0000
  O   O48       1.0  0.16833  0.57672  0.33064999999999994  1.0000
  O   O49       1.0  0.5541  0.91937  0.3235  1.0000
  O   O50       1.0  0.9458999999999999  0.4193700000000001  0.6765  1.0000
  O   O51       1.0  0.0541  0.4193700000000001  0.3235  1.0000
  O   O52       1.0  0.45666  0.71771  0.66982  1.0000
