data_image0
_chemical_formula_structural       C42Cr6H16O27CH2CH2CH3I
_chemical_formula_sum              "C45 Cr6 H23 O27 I1"
_cell_length_a       10.57794
_cell_length_b       10.68094
_cell_length_c       16.81725
_cell_angle_alpha    98.36690999999999
_cell_angle_beta     98.38001
_cell_angle_gamma    61.63068

_symmetry_space_group_name_H-M    'P 1'
_symmetry_Int_Tables_number       1

loop_
  _symmetry_equiv_pos_as_xyz
  'x,y,z'

loop_
  _atom_site_type_symbol
  _atom_site_label
  _atom_site_symmetry_multiplicity
  _atom_site_fract_x
  _atom_site_fract_y
  _atom_site_fract_z
  _atom_site_occupancy
  C   C1        1.0  0.3509  0.78343  0.40243  1.0000
  C   C2        1.0  0.6616800000000002  0.36388999999999994  0.23378  1.0000
  C   C3        1.0  0.74758  0.39075  0.30986  1.0000
  C   C4        1.0  0.8869900000000001  0.26255  0.28473  1.0000
  C   C5        1.0  0.9164900000000001  0.36272  0.24205  1.0000
  C   C6        1.0  0.7774699999999998  0.49115  0.26821  1.0000
  C   C7        1.0  0.6926300000000001  0.46497  0.19075999999999996  1.0000
  C   C8        1.0  0.83107  0.33572  0.16578  1.0000
  C   C9        1.0  0.43787000000000004  0.83834  0.22619  1.0000
  C   C10       1.0  0.38567000000000007  0.73939  0.25349  1.0000
  C   C11       1.0  0.3303600000000001  0.8450299999999998  0.32786  1.0000
  C   C12       1.0  0.3668100000000002  0.34374  0.3601  1.0000
  C   C13       1.0  0.3846500000000002  0.94218  0.30271  1.0000
  C   C14       1.0  0.23445  0.02518  0.25684  1.0000
  C   C15       1.0  0.18123999999999996  0.92666  0.28355  1.0000
  C   C16       1.0  0.23777  0.82295  0.20944  1.0000
  C   C17       1.0  0.28807  0.92086  0.18213  1.0000
  C   C18       1.0  0.4326700000000001  0.2404399999999999  0.7679399999999997  1.0000
  C   C19       1.0  0.36309  0.38675000000000004  0.73389  1.0000
  C   C20       1.0  0.32132999999999995  0.31912  0.65443  1.0000
  C   C21       1.0  0.39045  0.17297999999999997  0.68822  1.0000
  C   C22       1.0  0.24344000000000005  0.21166999999999997  0.71782  1.0000
  C   C23       1.0  0.7068  0.41617999999999994  0.39101  1.0000
  C   C24       1.0  0.17436  0.35884  0.68229  1.0000
  C   C25       1.0  0.21642000000000006  0.4257099999999999  0.76318  1.0000
  C   C26       1.0  0.28653  0.2792  0.79685  1.0000
  C   C27       1.0  0.84625  0.32919999999999994  0.7057  1.0000
  C   C28       1.0  0.8924100000000001  0.29568  0.77308  1.0000
  C   C29       1.0  0.35826  0.76395  0.71466  1.0000
  C   C30       1.0  0.32742000000000004  0.8106099999999999  0.78244  1.0000
  C   C31       1.0  0.89114  0.31091  0.09027  1.0000
  C   C32       1.0  0.2916100000000001  0.26247  0.12294  1.0000
  C   C33       1.0  0.25605  0.95999  0.09948  1.0000
  C   C34       1.0  0.37976  0.71494  0.63179  1.0000
  C   C35       1.0  0.9419500000000002  0.27648  0.85598  1.0000
  C   C36       1.0  0.2767300000000001  0.25193  0.87737  1.0000
  C   C37       1.0  0.2831  0.87961  0.86  1.0000
  C   C38       1.0  0.36376  0.3433  0.58253  1.0000
  C   C39       1.0  0.77871  0.37751  0.62861  1.0000
  C   C40       1.0  0.32598000000000005  0.31814  0.27815  1.0000
  C   C41       1.0  0.30621999999999994  0.29385  0.20724999999999993  1.0000
  C   C42       1.0  0.80262  0.23411  0.20726  1.0000
  Cr  Cr1       1.0  0.60834  0.61104  0.52043  1.0000
  Cr  Cr2       1.0  0.28765000000000013  0.60112  0.48935000000000006  1.0000
  Cr  Cr3       1.0  0.6040400000000001  0.28787  0.49027999999999994  1.0000
  Cr  Cr4       1.0  0.054019999999999985  0.05270000000000001  0.9708499999999999  1.0000
  Cr  Cr5       1.0  0.05923  0.37512  0.99339  1.0000
  Cr  Cr6       1.0  0.37495000000000006  0.06120000000000003  0.9923400000000001  1.0000
  H   H1        1.0  0.55658  0.36439  0.23351  1.0000
  H   H2        1.0  0.17792999999999998  0.14192  0.25696999999999987  1.0000
  H   H3        1.0  0.07838999999999997  0.95345  0.30763  1.0000
  H   H4        1.0  0.41281  0.45908999999999994  0.7392599999999998  1.0000
  H   H5        1.0  0.53939  0.19272  0.80329  1.0000
  H   H6        1.0  0.46115  0.06956  0.65593  1.0000
  H   H7        1.0  0.19462000000000002  0.13877999999999996  0.7134299999999999  1.0000
  H   H8        1.0  0.0699  0.4071199999999999  0.6449699999999998  1.0000
  H   H9        1.0  0.14560999999999996  0.529  0.7955  1.0000
  H   H10       1.0  0.81417  0.12838  0.18026  1.0000
  H   H11       1.0  0.9629100000000002  0.18891  0.32926  1.0000
  H   H12       1.0  0.018859999999999977  0.36807  0.24339999999999998  1.0000
  H   H13       1.0  0.6188799999999999  0.54651  0.14957999999999996  1.0000
  H   H14       1.0  0.4439199999999999  0.62309  0.25767  1.0000
  H   H15       1.0  0.5387600000000001  0.8055999999999999  0.19817  1.0000
  H   H16       1.0  0.44524  0.99047  0.34356  1.0000
  O   O1        1.0  0.7512200000000002  0.49922999999999995  0.43517  1.0000
  O   O2        1.0  0.2978800000000001  0.46907999999999994  0.56005  1.0000
  O   O3        1.0  0.4897200000000002  0.25459  0.56481  1.0000
  O   O4        1.0  0.7252200000000001  0.30423  0.58508  1.0000
  O   O5        1.0  0.50001  0.50001  0.50002  1.0000
  O   O6        1.0  0.17182999999999998  0.91388  0.057509999999999985  1.0000
  O   O7        1.0  0.9406900000000001  0.18605  0.05473  1.0000
  O   O8        1.0  0.92047  0.40572  0.07501  1.0000
  O   O9        1.0  0.19669000000000003  0.37046  0.08412  1.0000
  O   O10       1.0  0.41299  0.18075000000000002  0.09161  1.0000
  O   O11       1.0  0.36662000000000006  0.94313  0.06576  1.0000
  O   O12       1.0  0.4772200000000001  0.7276  0.43686999999999987  1.0000
  O   O13       1.0  0.16050999999999993  0.90633  0.87921  1.0000
  O   O14       1.0  0.93019  0.17905  0.88945  1.0000
  O   O15       1.0  0.90914  0.3981700000000001  0.89671  1.0000
  O   O16       1.0  0.18618999999999997  0.36346  0.91883  1.0000
  O   O17       1.0  0.4016700000000001  0.1732  0.91331  1.0000
  O   O18       1.0  0.35612  0.9361299999999999  0.90047  1.0000
  O   O19       1.0  0.16274000000000002  0.16301  0.98553  1.0000
  O   O20       1.0  0.25865000000000005  0.74512  0.41147  1.0000
  O   O21       1.0  0.29707000000000006  0.46724  0.39595999999999987  1.0000
  O   O22       1.0  0.48883000000000004  0.25261  0.38779  1.0000
  O   O23       1.0  0.7244  0.30239  0.42098  1.0000
  O   O24       1.0  0.7521000000000001  0.5012099999999999  0.6121899999999998  1.0000
  O   O25       1.0  0.4780400000000001  0.72944  0.6009699999999998  1.0000
  O   O26       1.0  0.25953  0.74711  0.58849  1.0000
  O   O27       1.0  0.14938000000000004  0.77307  0.15874  1.0000
  C   C43       1.0  0.2288500000000001  0.6315799999999999  0.12519  1.0000
  H   H17       1.0  0.14620000000000008  0.6037899999999999  0.09243  1.0000
  H   H18       1.0  0.2867  0.5577199999999999  0.1733  1.0000
  C   C44       1.0  0.32993  0.61433  0.06208000000000001  1.0000
  H   H19       1.0  0.26470000000000005  0.66307  0.00647  1.0000
  H   H20       1.0  0.39717000000000025  0.66736  0.08541  1.0000
  C   C45       1.0  0.43171000000000004  0.45851  0.038259999999999995  1.0000
  H   H21       1.0  0.48902  0.39988  0.09201  1.0000
  H   H22       1.0  0.5124200000000001  0.45191999999999993  0.00016  1.0000
  H   H23       1.0  0.37073000000000006  0.40643  0.00326  1.0000
  I   I1        1.0  0.7917400000000001  0.68176  0.31661  1.0000
