data_image0
_chemical_formula_structural       O16C8O4V4C51H7C3H7C3H7C3H7C3H7C3H7C3H7C3H7CO2HCO2HCO2HCO2HCO2HCO2HCO2HCO2HC3H7C3H7C3H7C3H7C3H7C3H7C3H7C3H7
_chemical_formula_sum              "O36 C112 V4 H120"
_cell_length_a       7.24864
_cell_length_b       20.79432
_cell_length_c       23.90266
_cell_angle_alpha    89.99947
_cell_angle_beta     90.00161
_cell_angle_gamma    89.99656

_space_group_name_H-M_alt    "P 1"
_space_group_IT_number       1

loop_
  _space_group_symop_operation_xyz
  'x, y, z'

loop_
  _atom_site_type_symbol
  _atom_site_label
  _atom_site_symmetry_multiplicity
  _atom_site_fract_x
  _atom_site_fract_y
  _atom_site_fract_z
  _atom_site_occupancy
  O   O1        1.0  0.61527  0.80654  0.19225999999999993  1.0000
  O   O2        1.0  0.38473  0.19345999999999997  0.8077399999999998  1.0000
  O   O3        1.0  0.38473  0.19345999999999997  0.6922599999999998  1.0000
  O   O4        1.0  0.61527  0.80654  0.30774  1.0000
  O   O5        1.0  0.11527  0.69346  0.30774  1.0000
  O   O6        1.0  0.88473  0.30654  0.6922599999999998  1.0000
  O   O7        1.0  0.88473  0.30654  0.8077399999999998  1.0000
  O   O8        1.0  0.11527  0.69346  0.19225999999999993  1.0000
  O   O9        1.0  0.2855  0.8139699999999999  0.30734  1.0000
  O   O10       1.0  0.7145  0.18603  0.69266  1.0000
  O   O11       1.0  0.7145  0.18603  0.8073399999999997  1.0000
  O   O12       1.0  0.2855  0.8139699999999999  0.19265999999999994  1.0000
  O   O13       1.0  0.7854999999999998  0.68603  0.19265999999999994  1.0000
  O   O14       1.0  0.2145  0.31397  0.8073399999999997  1.0000
  O   O15       1.0  0.2145  0.31397  0.69266  1.0000
  O   O16       1.0  0.7854999999999998  0.68603  0.30734  1.0000
  C   C1        1.0  0.4524799999999999  0.8288999999999999  0.3259699999999999  1.0000
  C   C2        1.0  0.54752  0.1711  0.67403  1.0000
  C   C3        1.0  0.54752  0.1711  0.82596  1.0000
  C   C4        1.0  0.4524799999999999  0.8288999999999999  0.17402999999999993  1.0000
  C   C5        1.0  0.95248  0.6711  0.17402999999999993  1.0000
  C   C6        1.0  0.047519999999999986  0.3289  0.8259699999999998  1.0000
  C   C7        1.0  0.047519999999999986  0.3289  0.67403  1.0000
  C   C8        1.0  0.95248  0.6711  0.3259699999999999  1.0000
  O   O17       1.0  0.44875999999999994  0.71046  0.24999999999999994  1.0000
  O   O18       1.0  0.55124  0.28954  0.7499999999999999  1.0000
  O   O19       1.0  0.9487599999999998  0.7895399999999999  0.24999999999999994  1.0000
  O   O20       1.0  0.05123999999999999  0.21045999999999998  0.7499999999999999  1.0000
  V   V1        1.0  0.17389999999999997  0.75733  0.24999999999999994  1.0000
  V   V2        1.0  0.8260999999999997  0.24267  0.7499999999999999  1.0000
  V   V3        1.0  0.6739  0.74267  0.24999999999999994  1.0000
  V   V4        1.0  0.3260999999999999  0.25733  0.7499999999999999  1.0000
  C   C9        1.0  0.09569999999999997  0.53065  0.53994  1.0000
  C   C10       1.0  0.90433  0.46934000000000003  0.4600399999999999  1.0000
  C   C11       1.0  0.90431  0.46935  0.03995  1.0000
  C   C12       1.0  0.09566999999999999  0.53066  0.9600499999999997  1.0000
  C   C13       1.0  0.59558  0.9693  0.96004  1.0000
  C   C14       1.0  0.4043299999999999  0.03068  0.039939999999999996  1.0000
  C   C15       1.0  0.40435  0.03068  0.4600399999999999  1.0000
  C   C16       1.0  0.5956999999999998  0.9693399999999999  0.53994  1.0000
  C   C17       1.0  0.90567  0.55205  0.5167999999999999  1.0000
  C   C18       1.0  0.09434999999999998  0.44793  0.4831799999999999  1.0000
  C   C19       1.0  0.09433  0.44793999999999995  0.01681  1.0000
  C   C20       1.0  0.90564  0.55206  0.9831799999999998  1.0000
  C   C21       1.0  0.40555999999999987  0.94794  0.9831999999999997  1.0000
  C   C22       1.0  0.5943399999999999  0.052039999999999996  0.016769999999999997  1.0000
  C   C23       1.0  0.5943599999999998  0.05207  0.48319  1.0000
  C   C24       1.0  0.40568  0.94795  0.51679  1.0000
  C   C25       1.0  0.95298  0.62455  0.3711099999999999  1.0000
  C   C26       1.0  0.04704  0.37544  0.62889  1.0000
  C   C27       1.0  0.04702999999999999  0.37544  0.8711099999999998  1.0000
  C   C28       1.0  0.9529599999999998  0.62455  0.12888999999999998  1.0000
  C   C29       1.0  0.45295999999999986  0.87545  0.1289  1.0000
  C   C30       1.0  0.547  0.12453999999999998  0.8711  1.0000
  C   C31       1.0  0.54704  0.12454999999999998  0.62889  1.0000
  C   C32       1.0  0.45299  0.87545  0.37109999999999993  1.0000
  C   C33       1.0  0.16524  0.51846  0.4793499999999999  1.0000
  C   C34       1.0  0.8347799999999997  0.48152  0.52063  1.0000
  C   C35       1.0  0.83476  0.48153  0.9793599999999999  1.0000
  C   C36       1.0  0.16521999999999998  0.51848  0.02064  1.0000
  C   C37       1.0  0.66519  0.98151  0.02062  1.0000
  C   C38       1.0  0.3347299999999999  0.01848  0.9793599999999999  1.0000
  C   C39       1.0  0.33479  0.01849  0.52063  1.0000
  C   C40       1.0  0.6652499999999999  0.9815300000000001  0.4793499999999999  1.0000
  C   C41       1.0  0.9745799999999998  0.53964  0.4563399999999999  1.0000
  C   C42       1.0  0.02545  0.46034  0.5436399999999999  1.0000
  C   C43       1.0  0.02542  0.46035  0.95635  1.0000
  C   C44       1.0  0.9745499999999998  0.53965  0.04365  1.0000
  C   C45       1.0  0.47454  0.96037  0.04366  1.0000
  C   C46       1.0  0.5253599999999999  0.03961  0.9563199999999997  1.0000
  C   C47       1.0  0.52544  0.03965  0.5436499999999999  1.0000
  C   C48       1.0  0.4746  0.96037  0.4563299999999999  1.0000
  C   C49       1.0  0.95383  0.58584  0.4093299999999999  1.0000
  C   C50       1.0  0.04618999999999999  0.41415  0.59066  1.0000
  C   C51       1.0  0.046179999999999985  0.41415  0.9093299999999997  1.0000
  C   C52       1.0  0.95381  0.58585  0.09067  1.0000
  C   C53       1.0  0.45383  0.9141699999999999  0.09068  1.0000
  C   C54       1.0  0.54609  0.08583  0.90931  1.0000
  C   C55       1.0  0.54617  0.08585  0.59067  1.0000
  C   C56       1.0  0.45387  0.9141699999999999  0.40932  1.0000
  C   C57       1.0  0.80947  0.61542  0.53246  1.0000
  C   C58       1.0  0.7471799999999998  0.61856  0.59379  1.0000
  C   C59       1.0  0.6759299999999998  0.68561  0.60828  1.0000
  H   H1        1.0  0.78897  0.72145  0.6047999999999999  1.0000
  H   H2        1.0  0.5621499999999998  0.69959  0.57965  1.0000
  H   H3        1.0  0.6231899999999998  0.68601  0.6519  1.0000
  H   H4        1.0  0.6355299999999998  0.58339  0.60173  1.0000
  H   H5        1.0  0.8630799999999997  0.60704  0.6222699999999999  1.0000
  H   H6        1.0  0.9077999999999998  0.65528  0.5240499999999999  1.0000
  H   H7        1.0  0.68903  0.62259  0.5047  1.0000
  C   C60       1.0  0.19056  0.38457  0.4675199999999999  1.0000
  C   C61       1.0  0.25289  0.38144  0.4061999999999999  1.0000
  C   C62       1.0  0.32401999999999986  0.31437  0.39169  1.0000
  H   H8        1.0  0.43774  0.30035  0.42032999999999987  1.0000
  H   H9        1.0  0.21091  0.27855  0.39515  1.0000
  H   H10       1.0  0.3768099999999999  0.31398  0.34808  1.0000
  H   H11       1.0  0.13705  0.39298999999999995  0.3777099999999999  1.0000
  H   H12       1.0  0.36462  0.41656999999999994  0.3982699999999999  1.0000
  H   H13       1.0  0.31098  0.37739  0.49527999999999994  1.0000
  H   H14       1.0  0.09222  0.3447  0.47591999999999995  1.0000
  C   C63       1.0  0.19053999999999996  0.38458  0.03247  1.0000
  C   C64       1.0  0.25286  0.38144  0.0938  1.0000
  C   C65       1.0  0.32408  0.31438  0.10829999999999997  1.0000
  H   H15       1.0  0.21101999999999996  0.27855  0.10482999999999998  1.0000
  H   H16       1.0  0.43784  0.30039  0.07966  1.0000
  H   H17       1.0  0.37685  0.31399  0.15190999999999996  1.0000
  H   H18       1.0  0.36453  0.4166000000000001  0.10172999999999997  1.0000
  H   H19       1.0  0.13699  0.39297  0.12227999999999999  1.0000
  H   H20       1.0  0.09220999999999999  0.34471  0.02407  1.0000
  H   H21       1.0  0.31096  0.3774  0.004709999999999999  1.0000
  C   C66       1.0  0.8094299999999998  0.61542  0.9675199999999999  1.0000
  C   C67       1.0  0.74708  0.61855  0.9062  1.0000
  C   C68       1.0  0.67598  0.68562  0.8916799999999998  1.0000
  H   H22       1.0  0.56226  0.69965  0.9203199999999998  1.0000
  H   H23       1.0  0.7890999999999998  0.72143  0.89514  1.0000
  H   H24       1.0  0.6231799999999997  0.68601  0.8480699999999999  1.0000
  H   H25       1.0  0.86292  0.60699  0.8777099999999998  1.0000
  H   H26       1.0  0.6353499999999997  0.58342  0.89827  1.0000
  H   H27       1.0  0.6890099999999998  0.6226  0.99528  1.0000
  H   H28       1.0  0.9077699999999999  0.65529  0.9759199999999998  1.0000
  C   C69       1.0  0.30929  0.88457  0.9676  1.0000
  C   C70       1.0  0.24656  0.88144  0.90631  1.0000
  C   C71       1.0  0.17565999999999996  0.81435  0.8917999999999999  1.0000
  H   H29       1.0  0.28901  0.77861  0.8951499999999999  1.0000
  H   H30       1.0  0.06228  0.8002299999999999  0.9205299999999997  1.0000
  H   H31       1.0  0.12247999999999998  0.8139699999999999  0.84824  1.0000
  H   H32       1.0  0.13460999999999998  0.91652  0.8984699999999998  1.0000
  H   H33       1.0  0.36215  0.8930899999999999  0.8777599999999998  1.0000
  H   H34       1.0  0.4077199999999999  0.84471  0.9759399999999998  1.0000
  H   H35       1.0  0.18906  0.8773899999999999  0.9954299999999998  1.0000
  C   C72       1.0  0.6906  0.11541999999999998  0.03236  1.0000
  C   C73       1.0  0.7532699999999998  0.11859  0.09364999999999998  1.0000
  C   C74       1.0  0.8242099999999998  0.18569  0.10811999999999997  1.0000
  H   H36       1.0  0.9377099999999999  0.19975999999999997  0.07942  1.0000
  H   H37       1.0  0.71093  0.22145  0.10471999999999997  1.0000
  H   H38       1.0  0.8772399999999999  0.18611  0.1517  1.0000
  H   H39       1.0  0.63763  0.10698999999999999  0.12219999999999999  1.0000
  H   H40       1.0  0.8651799999999997  0.0835  0.10152999999999997  1.0000
  H   H41       1.0  0.81084  0.12258999999999999  0.00452  1.0000
  H   H42       1.0  0.59217  0.15528  0.02399  1.0000
  C   C75       1.0  0.69059  0.11543  0.4675599999999999  1.0000
  C   C76       1.0  0.7530699999999998  0.11858  0.40625  1.0000
  C   C77       1.0  0.8241499999999998  0.18565  0.39174999999999993  1.0000
  H   H43       1.0  0.7109799999999997  0.22145  0.39519  1.0000
  H   H44       1.0  0.9377899999999998  0.19968  0.42042  1.0000
  H   H45       1.0  0.87703  0.18605  0.34815  1.0000
  H   H46       1.0  0.86485  0.08345  0.3983499999999999  1.0000
  H   H47       1.0  0.63731  0.10701  0.37773  1.0000
  H   H48       1.0  0.59221  0.1553  0.47593999999999986  1.0000
  H   H49       1.0  0.8109299999999998  0.12260999999999998  0.49535  1.0000
  C   C78       1.0  0.30947  0.88458  0.5324199999999999  1.0000
  C   C79       1.0  0.24699999999999994  0.8814300000000002  0.59373  1.0000
  C   C80       1.0  0.17597  0.81434  0.60822  1.0000
  H   H50       1.0  0.06236  0.8003  0.57955  1.0000
  H   H51       1.0  0.28918  0.7785599999999999  0.60479  1.0000
  H   H52       1.0  0.12307999999999997  0.81394  0.6518199999999998  1.0000
  H   H53       1.0  0.36275  0.8929999999999999  0.62224  1.0000
  H   H54       1.0  0.13518  0.9165399999999999  0.6016299999999999  1.0000
  H   H55       1.0  0.18912999999999994  0.87741  0.5046199999999998  1.0000
  H   H56       1.0  0.40786  0.84472  0.52403  1.0000
  C   C81       1.0  0.19189  0.56837  0.5848999999999999  1.0000
  O   O21       1.0  0.26413  0.61977  0.5734  1.0000
  O   O22       1.0  0.18568  0.54733  0.6403399999999999  1.0000
  H   H57       1.0  0.25215  0.57757  0.6668099999999999  1.0000
  C   C82       1.0  0.80817  0.43160999999999994  0.41507999999999995  1.0000
  O   O23       1.0  0.7357999999999998  0.38024  0.42658  1.0000
  O   O24       1.0  0.8146  0.45262  0.35962999999999995  1.0000
  H   H58       1.0  0.7481499999999998  0.4223799999999999  0.33314999999999995  1.0000
  C   C83       1.0  0.80814  0.43160999999999994  0.08490999999999999  1.0000
  O   O25       1.0  0.7358599999999997  0.38023  0.0734  1.0000
  O   O26       1.0  0.81442  0.45264  0.14035  1.0000
  H   H59       1.0  0.7479699999999998  0.4224  0.16682  1.0000
  C   C84       1.0  0.19182999999999995  0.56839  0.91509  1.0000
  O   O27       1.0  0.26414  0.61977  0.92659  1.0000
  O   O28       1.0  0.18547999999999995  0.54738  0.8596399999999997  1.0000
  H   H60       1.0  0.25191  0.57762  0.83317  1.0000
  C   C85       1.0  0.69149  0.9315  0.91507  1.0000
  O   O29       1.0  0.7642699999999998  0.88021  0.9266299999999998  1.0000
  O   O30       1.0  0.68429  0.95232  0.85957  1.0000
  H   H61       1.0  0.7506199999999997  0.92205  0.8330999999999997  1.0000
  C   C86       1.0  0.30836999999999987  0.06846  0.08490999999999999  1.0000
  O   O31       1.0  0.23569  0.11977000000000002  0.07338  1.0000
  O   O32       1.0  0.31542  0.04758  0.14038999999999996  1.0000
  H   H62       1.0  0.24911  0.07784  0.16688  1.0000
  C   C87       1.0  0.3082899999999999  0.06845  0.41507999999999995  1.0000
  O   O33       1.0  0.23572999999999994  0.11978000000000001  0.4266099999999999  1.0000
  O   O34       1.0  0.3150999999999999  0.04753  0.3595999999999999  1.0000
  H   H63       1.0  0.24870999999999993  0.07779  0.3331299999999999  1.0000
  C   C88       1.0  0.69178  0.93159  0.58491  1.0000
  O   O35       1.0  0.7644099999999999  0.8802699999999999  0.5733899999999998  1.0000
  O   O36       1.0  0.68494  0.95253  0.64038  1.0000
  H   H64       1.0  0.7513399999999999  0.92229  0.6668599999999999  1.0000
  C   C89       1.0  0.64426  0.46  0.54287  1.0000
  C   C90       1.0  0.6525899999999998  0.42608000000000007  0.5995299999999999  1.0000
  C   C91       1.0  0.46562  0.41153000000000006  0.6234299999999999  1.0000
  H   H65       1.0  0.3839299999999999  0.45599999999999996  0.62643  1.0000
  H   H66       1.0  0.3970199999999999  0.37547  0.59633  1.0000
  H   H67       1.0  0.48211  0.39113999999999993  0.66604  1.0000
  H   H68       1.0  0.7170399999999998  0.37831  0.5934499999999999  1.0000
  H   H69       1.0  0.7287699999999999  0.45627999999999996  0.6301899999999999  1.0000
  H   H70       1.0  0.55312  0.5022  0.54652  1.0000
  H   H71       1.0  0.58238  0.4262  0.51261  1.0000
  C   C92       1.0  0.35575  0.53998  0.45711  1.0000
  C   C93       1.0  0.3474399999999999  0.57386  0.40042  1.0000
  C   C94       1.0  0.53444  0.58836  0.37651  1.0000
  H   H72       1.0  0.6029099999999997  0.62452  0.40352999999999994  1.0000
  H   H73       1.0  0.61621  0.54389  0.37367  1.0000
  H   H74       1.0  0.51802  0.60858  0.33384  1.0000
  H   H75       1.0  0.27122  0.54364  0.3697799999999999  1.0000
  H   H76       1.0  0.28303999999999996  0.62164  0.40646  1.0000
  H   H77       1.0  0.41762  0.5738  0.48734999999999995  1.0000
  H   H78       1.0  0.4468999999999999  0.49777999999999994  0.4534799999999999  1.0000
  C   C95       1.0  0.35574  0.53999  0.04288  1.0000
  C   C96       1.0  0.3474199999999999  0.57388  0.09955999999999997  1.0000
  C   C97       1.0  0.5344  0.5884  0.12345999999999997  1.0000
  H   H79       1.0  0.61613  0.54394  0.1264  1.0000
  H   H80       1.0  0.60296  0.62451  0.09639999999999997  1.0000
  H   H81       1.0  0.51795  0.60873  0.16609  1.0000
  H   H82       1.0  0.28299  0.62166  0.09350999999999998  1.0000
  H   H83       1.0  0.27122  0.54366  0.13020999999999996  1.0000
  H   H84       1.0  0.4468999999999999  0.4978  0.04651  1.0000
  H   H85       1.0  0.4175899999999999  0.57381  0.01264  1.0000
  C   C98       1.0  0.6442399999999998  0.46001  0.9571099999999999  1.0000
  C   C99       1.0  0.6525599999999998  0.42613  0.90043  1.0000
  C   C100      1.0  0.4655699999999999  0.41161000000000003  0.8765199999999999  1.0000
  H   H86       1.0  0.39708  0.37547  0.9035499999999997  1.0000
  H   H87       1.0  0.38381  0.45607999999999993  0.8736399999999998  1.0000
  H   H88       1.0  0.48202  0.39136  0.8338599999999999  1.0000
  H   H89       1.0  0.7287699999999999  0.45635  0.86979  1.0000
  H   H90       1.0  0.71698  0.37835  0.9064799999999997  1.0000
  H   H91       1.0  0.58237  0.4262  0.9873599999999998  1.0000
  H   H92       1.0  0.55309  0.50221  0.9534799999999998  1.0000
  C   C101      1.0  0.14426  0.03999  0.9570799999999998  1.0000
  C   C102      1.0  0.15245  0.07346  0.90019  1.0000
  C   C103      1.0  0.96532  0.08775  0.87624  1.0000
  H   H93       1.0  0.8833299999999997  0.0433  0.8739599999999998  1.0000
  H   H94       1.0  0.89729  0.12432  0.9029499999999999  1.0000
  H   H95       1.0  0.9813799999999998  0.10736  0.83333  1.0000
  H   H96       1.0  0.21668  0.12131  0.90596  1.0000
  H   H97       1.0  0.22878  0.04306  0.86971  1.0000
  H   H98       1.0  0.05294  0.9978099999999999  0.9536999999999999  1.0000
  H   H99       1.0  0.08268999999999997  0.07404  0.9871799999999998  1.0000
  C   C104      1.0  0.8556799999999998  0.96001  0.0429  1.0000
  C   C105      1.0  0.84744  0.9264199999999999  0.09971999999999998  1.0000
  C   C106      1.0  0.0345  0.9120499999999999  0.12365999999999998  1.0000
  H   H100      1.0  0.10289999999999999  0.87575  0.09675999999999998  1.0000
  H   H101      1.0  0.11626999999999997  0.95653  0.12631  1.0000
  H   H102      1.0  0.01824  0.89204  0.16641999999999998  1.0000
  H   H103      1.0  0.7711299999999998  0.9567599999999999  0.13025999999999996  1.0000
  H   H104      1.0  0.78316  0.87859  0.09386  1.0000
  H   H105      1.0  0.91734  0.92601  0.012769999999999998  1.0000
  H   H106      1.0  0.94695  0.00219  0.04635  1.0000
  C   C107      1.0  0.85575  0.9600300000000002  0.45708999999999994  1.0000
  C   C108      1.0  0.8474899999999997  0.92635  0.40030999999999994  1.0000
  C   C109      1.0  0.03453999999999999  0.91194  0.3763799999999999  1.0000
  H   H107      1.0  0.11638  0.9564  0.3737599999999999  1.0000
  H   H108      1.0  0.10285999999999997  0.87562  0.40327  1.0000
  H   H109      1.0  0.01827  0.89196  0.33360999999999996  1.0000
  H   H110      1.0  0.78318  0.87853  0.40622  1.0000
  H   H111      1.0  0.7712  0.95665  0.3697399999999999  1.0000
  H   H112      1.0  0.94696  0.00222  0.45358  1.0000
  H   H113      1.0  0.9174899999999998  0.92609  0.48725999999999997  1.0000
  C   C110      1.0  0.14429  0.03999  0.5429  1.0000
  C   C111      1.0  0.15256999999999996  0.07372  0.5996499999999999  1.0000
  C   C112      1.0  0.96555  0.08815  0.62358  1.0000
  H   H114      1.0  0.89706  0.12435999999999998  0.5966099999999999  1.0000
  H   H115      1.0  0.88381  0.04368  0.62636  1.0000
  H   H116      1.0  0.9819099999999998  0.10831  0.66627  1.0000
  H   H117      1.0  0.22884999999999994  0.04343  0.6302399999999999  1.0000
  H   H118      1.0  0.21689999999999995  0.12152  0.5936999999999999  1.0000
  H   H119      1.0  0.08251  0.0739  0.51271  1.0000
  H   H120      1.0  0.05308  0.9978  0.5464299999999999  1.0000
