data_image0
_chemical_formula_structural       O3CO2CO2VOCOCVOC8H4C8H2C4HC4H2C8HO3CO2CO2VOCOCVO2CH3OCH4OCH3OCH4OCH3OCH4OCH6OCH3
_chemical_formula_sum              "O28 C48 V4 H40"
_cell_length_a       7.04054
_cell_length_b       14.56927
_cell_length_c       16.04592
_cell_angle_alpha    90.04989
_cell_angle_beta     89.05651000000002
_cell_angle_gamma    90.83564

_space_group_name_H-M_alt    "P 1"
_space_group_IT_number       1

loop_
  _space_group_symop_operation_xyz
  'x, y, z'

loop_
  _atom_site_type_symbol
  _atom_site_label
  _atom_site_symmetry_multiplicity
  _atom_site_fract_x
  _atom_site_fract_y
  _atom_site_fract_z
  _atom_site_occupancy
  O   O1        1.0  0.5057  0.58389  0.41331  1.0000
  O   O2        1.0  0.17596  0.59492  0.58608  1.0000
  O   O3        1.0  0.00566  0.41610999999999987  0.58669  1.0000
  C   C1        1.0  0.34471  0.6183399999999998  0.61326  1.0000
  O   O4        1.0  0.17598  0.59492  0.41393000000000013  1.0000
  O   O5        1.0  0.005679999999999997  0.41610999999999987  0.41331  1.0000
  C   C2        1.0  0.34667  0.61827  0.38669  1.0000
  O   O6        1.0  0.50568  0.58389  0.58669  1.0000
  O   O7        1.0  0.3392  0.44133  0.5  1.0000
  V   V1        1.0  0.06435  0.51088  0.5  1.0000
  O   O8        1.0  0.67596  0.40508  0.41392  1.0000
  C   C3        1.0  0.84476  0.38252999999999987  0.3861500000000001  1.0000
  O   O9        1.0  0.67594  0.40508  0.58607  1.0000
  C   C4        1.0  0.8414700000000002  0.3834699999999999  0.61483  1.0000
  V   V2        1.0  0.5643400000000002  0.48912  0.5  1.0000
  O   O10       1.0  0.83936  0.5586699999999999  0.5  1.0000
  C   C5        1.0  0.99247  0.24974999999999994  0.68075  1.0000
  C   C6        1.0  0.8416200000000003  0.3087999999999999  0.67759  1.0000
  C   C7        1.0  0.6875400000000003  0.28769  0.73244  1.0000
  C   C8        1.0  0.69994  0.21048  0.7872  1.0000
  C   C9        1.0  0.8782500000000001  0.18018  0.81129  1.0000
  C   C10       1.0  0.013130000000000001  0.19104  0.74794  1.0000
  C   C11       1.0  0.21643  0.20386  0.7463800000000003  1.0000
  C   C12       1.0  0.19689  0.26936  0.6738300000000003  1.0000
  H   H1        1.0  0.26798  0.13716  0.72528  1.0000
  H   H2        1.0  0.26533  0.23623  0.8052  1.0000
  H   H3        1.0  0.2603599999999999  0.24384  0.6144500000000003  1.0000
  H   H4        1.0  0.22561  0.34248  0.68881  1.0000
  C   C13       1.0  0.72487  0.23928999999999995  0.19677  1.0000
  C   C14       1.0  0.88186  0.18417  0.18286  1.0000
  C   C15       1.0  0.031  0.19454  0.24048  1.0000
  C   C16       1.0  0.01772  0.25801  0.30754  1.0000
  C   C17       1.0  0.85581  0.31341  0.31882  1.0000
  C   C18       1.0  0.7113  0.29941  0.26161  1.0000
  C   C19       1.0  0.51135  0.32252  0.24255  1.0000
  C   C20       1.0  0.53001  0.25689  0.1668  1.0000
  H   H5        1.0  0.41537  0.29674  0.2933  1.0000
  H   H6        1.0  0.4396  0.19356  0.16947  1.0000
  C   C21       1.0  0.48966000000000004  0.75995  0.68083  1.0000
  C   C22       1.0  0.3512900000000001  0.68932  0.67958  1.0000
  C   C23       1.0  0.214  0.68866  0.74492  1.0000
  C   C24       1.0  0.22811000000000003  0.7503699999999998  0.8128  1.0000
  H   H7        1.0  0.12879  0.74436  0.8646  1.0000
  C   C25       1.0  0.37791  0.8149599999999999  0.81715  1.0000
  C   C26       1.0  0.50591  0.81734  0.74996  1.0000
  C   C27       1.0  0.71812  0.81586  0.74513  1.0000
  C   C28       1.0  0.70053  0.76107  0.66404  1.0000
  H   H8        1.0  0.78053  0.88539  0.7352  1.0000
  H   H9        1.0  0.77107  0.6930099999999998  0.66448  1.0000
  C   C29       1.0  0.52982  0.7111599999999999  0.2789  1.0000
  C   C30       1.0  0.36048  0.6918699999999998  0.32282  1.0000
  C   C31       1.0  0.2046  0.7487999999999998  0.30639  1.0000
  C   C32       1.0  0.21349  0.8158099999999998  0.24211  1.0000
  C   C33       1.0  0.37768  0.82332  0.1897  1.0000
  C   C34       1.0  0.53698  0.7741999999999999  0.2141  1.0000
  C   C35       1.0  0.68222  0.71995  0.16667  1.0000
  C   C36       1.0  0.67425  0.65026  0.23852  1.0000
  H   H10       1.0  0.80779  0.64933  0.2744300000000001  1.0000
  O   O11       1.0  0.229  0.91607  0.91333  1.0000
  O   O12       1.0  0.55877  0.9050699999999999  0.08608  1.0000
  O   O13       1.0  0.7289999999999999  0.0839  0.08669  1.0000
  C   C37       1.0  0.38863  0.8850999999999999  0.11603000000000002  1.0000
  O   O14       1.0  0.55872  0.9050699999999999  0.91393  1.0000
  O   O15       1.0  0.72896  0.0839  0.91331  1.0000
  C   C38       1.0  0.38987  0.8820699999999998  0.88644  1.0000
  O   O16       1.0  0.22905000000000003  0.91607  0.08671  1.0000
  O   O17       1.0  0.39546  0.05865  2e-05  1.0000
  V   V3        1.0  0.67034  0.98912  0.0  1.0000
  O   O18       1.0  0.05866999999999999  0.09495999999999999  0.9139  1.0000
  C   C39       1.0  0.8919200000000003  0.11527999999999998  0.88358  1.0000
  O   O19       1.0  0.058720000000000015  0.09495999999999999  0.08605  1.0000
  C   C40       1.0  0.89003  0.11665  0.11439  1.0000
  V   V4        1.0  0.17033  0.010929999999999999  0.99997  1.0000
  O   O20       1.0  0.89534  0.94135  0.99998  1.0000
  O   O21       1.0  0.53475  0.34512  0.73679  1.0000
  C   C41       1.0  0.5547700000000001  0.40281999999999996  0.80677  1.0000
  H   H11       1.0  0.55005  0.36273  0.86577  1.0000
  H   H12       1.0  0.43407  0.45094  0.8087  1.0000
  H   H13       1.0  0.68806  0.4448  0.80238  1.0000
  O   O22       1.0  0.53864  0.30345  0.08951  1.0000
  C   C42       1.0  0.36022  0.29779  0.0511  1.0000
  H   H14       1.0  0.33757  0.22859999999999994  0.02397  1.0000
  H   H15       1.0  0.35799  0.34831  0.9995000000000002  1.0000
  H   H16       1.0  0.24097  0.3140799999999999  0.09464  1.0000
  H   H17       1.0  0.10139  0.63722  0.7458600000000002  1.0000
  O   O23       1.0  0.8117  0.7701  0.81112  1.0000
  C   C43       1.0  0.7244  0.68743  0.83996  1.0000
  H   H18       1.0  0.66061  0.64477  0.79023  1.0000
  H   H19       1.0  0.6171100000000003  0.7023399999999997  0.88928  1.0000
  H   H20       1.0  0.83436  0.64503  0.86931  1.0000
  O   O24       1.0  0.74764  0.8192599999999998  0.59585  1.0000
  C   C44       1.0  0.7856500000000002  0.76717  0.52391  1.0000
  H   H21       1.0  0.66239  0.7225499999999998  0.50791  1.0000
  H   H22       1.0  0.91702  0.7269299999999997  0.53153  1.0000
  H   H23       1.0  0.8109300000000003  0.81479  0.47085  1.0000
  H   H24       1.0  0.07354  0.7403899999999998  0.34201  1.0000
  O   O25       1.0  0.54911  0.15039  0.79737  1.0000
  C   C45       1.0  0.57811  0.07288  0.7444  1.0000
  H   H25       1.0  0.46216  0.02191  0.7558900000000002  1.0000
  H   H26       1.0  0.7118499999999999  0.036459999999999985  0.75658  1.0000
  H   H27       1.0  0.5758100000000002  0.09330999999999998  0.6776000000000002  1.0000
  O   O26       1.0  0.05593  0.86826  0.22663  1.0000
  C   C46       1.0  0.0422  0.93708  0.2881  1.0000
  H   H28       1.0  0.17344  0.9806499999999999  0.28955  1.0000
  H   H29       1.0  0.011109999999999995  0.9071599999999997  0.35068  1.0000
  H   H30       1.0  0.9224  0.98229  0.27255  1.0000
  H   H31       1.0  0.8205000000000002  0.75718  0.16337  1.0000
  O   O27       1.0  0.62713  0.69099  0.08539  1.0000
  C   C47       1.0  0.4693700000000001  0.62991  0.08334  1.0000
  H   H32       1.0  0.35507  0.64728  0.12881  1.0000
  H   H33       1.0  0.51649  0.55825  0.09211  1.0000
  H   H34       1.0  0.40647  0.63359  0.02053  1.0000
  H   H35       1.0  0.6178400000000002  0.5811299999999998  0.22404  1.0000
  H   H36       1.0  0.15487  0.15177999999999994  0.23549  1.0000
  H   H37       1.0  0.13145000000000007  0.26203  0.35189  1.0000
  O   O28       1.0  0.49463  0.4156199999999999  0.21974  1.0000
  C   C48       1.0  0.31119  0.44579  0.24175  1.0000
  H   H38       1.0  0.19885  0.40347  0.21188000000000007  1.0000
  H   H39       1.0  0.29455  0.51728  0.22016  1.0000
  H   H40       1.0  0.2909200000000001  0.44527  0.31048  1.0000
