data_image0
_chemical_formula_structural       Br11C40Cl5Cr6H16O26
_chemical_formula_sum              "Br11 C40 Cl5 Cr6 H16 O26"
_cell_length_a       11.15181
_cell_length_b       11.05415
_cell_length_c       18.79748
_cell_angle_alpha    89.6425
_cell_angle_beta     89.71376
_cell_angle_gamma    59.27678999999999

_symmetry_space_group_name_H-M    'P 1'
_symmetry_Int_Tables_number       1

loop_
  _symmetry_equiv_pos_as_xyz
  'x,y,z'

loop_
  _atom_site_type_symbol
  _atom_site_label
  _atom_site_symmetry_multiplicity
  _atom_site_fract_x
  _atom_site_fract_y
  _atom_site_fract_z
  _atom_site_occupancy
  Br  Br1       1.0  0.53175  0.9984200000000001  0.79385  1.0000
  Br  Br2       1.0  0.87576  0.78591  0.7940099999999998  1.0000
  Br  Br3       1.0  0.5101200000000001  0.50752  0.7053099999999999  1.0000
  Br  Br4       1.0  0.9872999999999998  0.45608000000000004  0.7912799999999998  1.0000
  Br  Br5       1.0  0.3919099999999999  0.84339  0.8371599999999998  1.0000
  Br  Br6       1.0  0.08809999999999991  0.8528500000000001  0.7119199999999999  1.0000
  Br  Br7       1.0  0.90599  0.38151  0.30041999999999996  1.0000
  Br  Br8       1.0  0.6169299999999999  0.8586700000000002  0.23770999999999998  1.0000
  Br  Br9       1.0  0.35506000000000004  0.26076  0.16882999999999998  1.0000
  Br  Br10      1.0  0.79234  0.22402  0.19389  1.0000
  Br  Br11      1.0  0.35411  0.8996600000000001  0.66872  1.0000
  C   C1        1.0  0.23592000000000005  0.64519  0.60856  1.0000
  C   C2        1.0  0.7811600000000001  0.16179000000000002  0.7091299999999999  1.0000
  C   C3        1.0  0.18141000000000004  0.66165  0.6817399999999999  1.0000
  C   C4        1.0  0.6512900000000003  0.62192  0.60168  1.0000
  C   C5        1.0  0.20792999999999998  0.65568  0.8448499999999998  1.0000
  C   C6        1.0  0.21006  0.55504  0.80538  1.0000
  C   C7        1.0  0.21797  0.54881  0.7263399999999998  1.0000
  C   C8        1.0  0.6103500000000002  0.60403  0.31296999999999997  1.0000
  C   C9        1.0  0.6808  0.69864  0.17579  1.0000
  C   C10       1.0  0.71113  0.57009  0.19713  1.0000
  C   C11       1.0  0.7222799999999999  0.5316500000000001  0.27114  1.0000
  C   C12       1.0  0.6711800000000001  0.55332  0.80288  1.0000
  C   C13       1.0  0.63219  0.19411  0.32102  1.0000
  C   C14       1.0  0.64162  0.19854000000000002  0.1641  1.0000
  C   C15       1.0  0.52554  0.24367  0.20309  1.0000
  C   C16       1.0  0.6289500000000001  0.22781  0.60175  1.0000
  C   C17       1.0  0.52582  0.27822  0.27739  1.0000
  C   C18       1.0  0.14733999999999997  0.6794400000000002  0.33617  1.0000
  C   C19       1.0  0.017780000000000025  0.73617  0.19443999999999997  1.0000
  C   C20       1.0  0.018690000000000005  0.83248  0.23740999999999998  1.0000
  C   C21       1.0  0.051570000000000005  0.80883  0.3135  1.0000
  C   C22       1.0  0.70169  0.10473000000000002  0.8986399999999998  1.0000
  C   C23       1.0  0.6939200000000002  0.67785  0.81278  1.0000
  C   C24       1.0  0.7212  0.68795  0.8891099999999998  1.0000
  C   C25       1.0  0.12416  0.7031  0.91014  1.0000
  C   C26       1.0  0.6737  0.11137  0.10185999999999999  1.0000
  C   C27       1.0  0.72483  0.7131500000000001  0.10547999999999998  1.0000
  C   C28       1.0  0.21973  0.65157  0.40285999999999994  1.0000
  C   C29       1.0  0.019610000000000044  0.75122  0.11755999999999998  1.0000
  C   C30       1.0  0.6134700000000001  0.58445  0.38896  1.0000
  C   C31       1.0  0.6150999999999999  0.2319  0.39483  1.0000
  C   C32       1.0  0.55595  0.81439  0.7834199999999999  1.0000
  C   C33       1.0  0.5470600000000001  0.8020500000000002  0.70215  1.0000
  C   C34       1.0  0.66275  0.65193  0.67648  1.0000
  C   C35       1.0  0.8283700000000002  0.64578  0.76844  1.0000
  C   C36       1.0  0.80526  0.64101  0.6872499999999998  1.0000
  C   C37       1.0  0.6630699999999999  0.53324  0.72302  1.0000
  C   C38       1.0  0.6763200000000001  0.16255  0.6722499999999998  1.0000
  C   C39       1.0  0.68458  0.17575  0.82995  1.0000
  C   C40       1.0  0.7950400000000001  0.13582  0.78687  1.0000
  Cl  Cl1       1.0  0.9146600000000001  0.17917  0.66734  1.0000
  Cl  Cl2       1.0  0.28073  0.37642  0.69426  1.0000
  Cl  Cl3       1.0  0.9866800000000001  0.9581300000000001  0.36872  1.0000
  Cl  Cl4       1.0  0.000479999999999977  0.59573  0.22711  1.0000
  Cl  Cl5       1.0  0.8289100000000001  0.7622700000000001  0.63239  1.0000
  Cr  Cr1       1.0  0.39301  0.39805  0.50148  1.0000
  Cr  Cr2       1.0  0.39881999999999995  0.70798  0.5016299999999999  1.0000
  Cr  Cr3       1.0  0.70814  0.39394000000000007  0.49685  1.0000
  Cr  Cr4       1.0  0.9379500000000001  0.9384500000000001  0.008939999999999997  1.0000
  Cr  Cr5       1.0  0.62618  0.9370300000000001  0.99475  1.0000
  Cr  Cr6       1.0  0.93779  0.62576  0.00141  1.0000
  H   H1        1.0  0.7565  0.43278  0.70904  1.0000
  H   H2        1.0  0.4315099999999999  0.36857000000000006  0.29808  1.0000
  H   H3        1.0  0.72426  0.09898  0.3028899999999999  1.0000
  H   H4        1.0  0.009609999999999917  0.9274000000000001  0.21490999999999996  1.0000
  H   H5        1.0  0.19354000000000002  0.59075  0.30025  1.0000
  H   H6        1.0  0.57495  0.87355  0.67495  1.0000
  H   H7        1.0  0.7555500000000002  0.45446  0.82711  1.0000
  H   H8        1.0  0.5767699999999999  0.56991  0.83142  1.0000
  H   H9        1.0  0.8874  0.53796  0.6657199999999999  1.0000
  H   H10       1.0  0.89972  0.07567000000000002  0.80847  1.0000
  H   H11       1.0  0.5794799999999999  0.23989000000000002  0.8092599999999998  1.0000
  H   H12       1.0  0.60715  0.13606  0.69919  1.0000
  H   H13       1.0  0.20268000000000003  0.47317  0.8331799999999999  1.0000
  H   H14       1.0  0.24053999999999998  0.72315  0.82215  1.0000
  H   H15       1.0  0.7542299999999997  0.48361000000000004  0.15986999999999998  1.0000
  H   H16       1.0  0.5116999999999999  0.68365  0.28986  1.0000
  O   O1        1.0  0.50711  0.25628  0.5802999999999998  1.0000
  O   O2        1.0  0.8370800000000002  0.59386  0.9152999999999999  1.0000
  O   O3        1.0  0.06476999999999995  0.6360800000000001  0.9325499999999999  1.0000
  O   O4        1.0  0.28083  0.52719  0.57794  1.0000
  O   O5        1.0  0.06824999999999998  0.8292  0.09294  1.0000
  O   O6        1.0  0.7996499999999999  0.05704  0.08032999999999997  1.0000
  O   O7        1.0  0.58613  0.07976  0.07707999999999997  1.0000
  O   O8        1.0  0.6277000000000001  0.80963  0.06657999999999999  1.0000
  O   O9        1.0  0.8161399999999999  0.5971800000000002  0.07592  1.0000
  O   O10       1.0  0.045360000000000004  0.63917  0.08144  1.0000
  O   O11       1.0  0.83398  0.83375  0.0016999999999999997  1.0000
  O   O12       1.0  0.5246399999999999  0.6953700000000002  0.4250999999999999  1.0000
  O   O13       1.0  0.26136  0.73899  0.58427  1.0000
  O   O14       1.0  0.53259  0.69478  0.57437  1.0000
  O   O15       1.0  0.7444699999999999  0.50375  0.5769999999999998  1.0000
  O   O16       1.0  0.69852  0.27723  0.57162  1.0000
  O   O17       1.0  0.4985299999999999  0.25692  0.4192799999999999  1.0000
  O   O18       1.0  0.27288  0.52778  0.42868  1.0000
  O   O19       1.0  0.2527800000000001  0.73963  0.42325  1.0000
  O   O20       1.0  0.7358900000000002  0.50439  0.4159799999999999  1.0000
  O   O21       1.0  0.69056  0.27782000000000007  0.42235  1.0000
  O   O22       1.0  0.49999000000000005  0.49999  0.4999799999999999  1.0000
  O   O23       1.0  0.08918999999999998  0.82587  0.93232  1.0000
  O   O24       1.0  0.81907  0.05396  0.9314399999999999  1.0000
  O   O25       1.0  0.60707  0.07644  0.9164599999999999  1.0000
  O   O26       1.0  0.6471099999999999  0.8065500000000001  0.91769  1.0000
