data_image0
_chemical_formula_structural       Br2C48Cr6H16O26
_chemical_formula_sum              "Br2 C48 Cr6 H16 O26"
_cell_length_a       10.65356
_cell_length_b       10.78686
_cell_length_c       17.03908
_cell_angle_alpha    99.77652
_cell_angle_beta     99.6399
_cell_angle_gamma    60.78091

_space_group_name_H-M_alt    "P 1"
_space_group_IT_number       1

loop_
  _space_group_symop_operation_xyz
  'x, y, z'

loop_
  _atom_site_type_symbol
  _atom_site_label
  _atom_site_symmetry_multiplicity
  _atom_site_fract_x
  _atom_site_fract_y
  _atom_site_fract_z
  _atom_site_occupancy
  Br  Br1       1.0  0.11464999999999997  0.6955100000000001  0.26774  1.0000
  Br  Br2       1.0  0.63224  0.68288  0.04191  1.0000
  C   C1        1.0  0.38408000000000003  0.70685  0.3869000000000001  1.0000
  C   C2        1.0  0.85618  0.31642  0.3328  1.0000
  C   C3        1.0  0.35734999999999995  0.7834700000000001  0.14377000000000006  1.0000
  C   C4        1.0  0.36898000000000003  0.3460400000000001  0.35764  1.0000
  C   C5        1.0  0.4892700000000002  0.75048  0.18961  1.0000
  C   C6        1.0  0.4987700000000002  0.73728  0.2727  1.0000
  C   C7        1.0  0.27133999999999997  0.72301  0.24627  1.0000
  C   C8        1.0  0.26088  0.74918  0.16873  1.0000
  C   C9        1.0  0.6117600000000001  0.72852  0.15504  1.0000
  C   C10       1.0  0.7337400000000001  0.71773  0.20401  1.0000
  C   C11       1.0  0.73673  0.72685  0.28634  1.0000
  C   C12       1.0  0.8156100000000001  0.23354000000000003  0.19355  1.0000
  C   C13       1.0  0.6226499999999999  0.73521  0.32045  1.0000
  C   C14       1.0  0.38378999999999996  0.7277800000000001  0.3025000000000001  1.0000
  C   C15       1.0  0.29685000000000006  0.27539  0.79877  1.0000
  C   C16       1.0  0.7812400000000005  0.37256000000000006  0.40533  1.0000
  C   C17       1.0  0.4232900000000001  0.17549  0.7616200000000002  1.0000
  C   C18       1.0  0.47706  0.22451000000000002  0.7117400000000002  1.0000
  C   C19       1.0  0.2465400000000001  0.44449  0.7065300000000002  1.0000
  C   C20       1.0  0.20767999999999992  0.4084200000000001  0.7694500000000002  1.0000
  C   C21       1.0  0.5020100000000001  0.03011000000000005  0.7761700000000002  1.0000
  C   C22       1.0  0.6415500000000001  0.9436400000000001  0.75406  1.0000
  C   C23       1.0  0.8283500000000001  0.2183  0.27538  1.0000
  C   C24       1.0  0.7051400000000002  0.00101999999999999  0.71721  1.0000
  C   C25       1.0  0.6239400000000004  0.14012  0.69625  1.0000
  C   C26       1.0  0.3801499999999999  0.35278000000000004  0.67644  1.0000
  C   C27       1.0  0.8182700000000002  0.34257  0.70903  1.0000
  C   C28       1.0  0.3817000000000001  0.71377  0.6314000000000001  1.0000
  C   C29       1.0  0.84521  0.31373  0.77666  1.0000
  C   C30       1.0  0.35928  0.7628400000000001  0.71379  1.0000
  C   C31       1.0  0.32696  0.80982  0.78092  1.0000
  C   C32       1.0  0.8983600000000006  0.30767  0.09012  1.0000
  C   C33       1.0  0.3195500000000001  0.29983  0.12006000000000001  1.0000
  C   C34       1.0  0.9165700000000001  0.39196  0.31027  1.0000
  C   C35       1.0  0.29973999999999995  0.8798800000000001  0.08021  1.0000
  C   C36       1.0  0.8862000000000001  0.29728  0.85907  1.0000
  C   C37       1.0  0.27799000000000007  0.25217  0.8771  1.0000
  C   C38       1.0  0.28180000000000005  0.87994  0.85797  1.0000
  C   C39       1.0  0.40732999999999997  0.3749400000000001  0.6000800000000002  1.0000
  C   C40       1.0  0.77328  0.38107000000000013  0.62976  1.0000
  C   C41       1.0  0.34296  0.33522  0.27426  1.0000
  C   C42       1.0  0.33177000000000006  0.32571  0.20341  1.0000
  C   C43       1.0  0.8663000000000001  0.32001  0.17129000000000005  1.0000
  C   C44       1.0  0.92578  0.38994  0.23039  1.0000
  C   C45       1.0  0.7564600000000001  0.15898  0.13688  1.0000
  C   C46       1.0  0.72723  0.05904  0.16043  1.0000
  C   C47       1.0  0.7546700000000001  0.03358  0.24021  1.0000
  C   C48       1.0  0.8083800000000001  0.1089  0.2969  1.0000
  Cr  Cr1       1.0  0.6081  0.6108600000000002  0.5222500000000002  1.0000
  Cr  Cr2       1.0  0.28889000000000004  0.59999  0.48842  1.0000
  Cr  Cr3       1.0  0.60304  0.28919  0.48939000000000005  1.0000
  Cr  Cr4       1.0  0.053959999999999966  0.052250000000000005  0.96738  1.0000
  Cr  Cr5       1.0  0.059889999999999985  0.37316000000000005  0.9927100000000001  1.0000
  Cr  Cr6       1.0  0.37337  0.06169  0.99171  1.0000
  H   H1        1.0  0.94851  0.45948000000000006  0.3540000000000001  1.0000
  H   H2        1.0  0.67683  0.17969  0.66715  1.0000
  H   H3        1.0  0.7314499999999999  0.17759  0.07442  1.0000
  H   H4        1.0  0.9780700000000001  0.44584000000000007  0.215  1.0000
  H   H5        1.0  0.6852000000000003  0.99978  0.11665  1.0000
  H   H6        1.0  0.7320800000000001  0.95752  0.25918  1.0000
  H   H7        1.0  0.83596  0.0786  0.35723  1.0000
  H   H8        1.0  0.16669999999999985  0.7562600000000003  0.12962000000000007  1.0000
  H   H9        1.0  0.82732  0.7017700000000001  0.17815000000000006  1.0000
  H   H10       1.0  0.83078  0.72284  0.32419  1.0000
  H   H11       1.0  0.63844  0.74138  0.38422  1.0000
  H   H12       1.0  0.17240999999999998  0.54422  0.68167  1.0000
  H   H13       1.0  0.45692  0.98313  0.8053700000000001  1.0000
  H   H14       1.0  0.10879999999999998  0.48505000000000004  0.79561  1.0000
  H   H15       1.0  0.70145  0.8336700000000001  0.7676  1.0000
  H   H16       1.0  0.8158500000000002  0.9368200000000001  0.7028700000000001  1.0000
  O   O1        1.0  0.7498100000000002  0.49979000000000007  0.4380400000000001  1.0000
  O   O2        1.0  0.41173  0.18102  0.09153  1.0000
  O   O3        1.0  0.3650100000000001  0.94436  0.06332  1.0000
  O   O4        1.0  0.47766000000000003  0.72626  0.43929  1.0000
  O   O5        1.0  0.15937999999999994  0.9066700000000001  0.87621  1.0000
  O   O6        1.0  0.9308200000000001  0.17742  0.88673  1.0000
  O   O7        1.0  0.9103600000000001  0.39542000000000005  0.89572  1.0000
  O   O8        1.0  0.18601000000000004  0.36173000000000005  0.91987  1.0000
  O   O9        1.0  0.4000000000000001  0.17301000000000002  0.91463  1.0000
  O   O10       1.0  0.35414  0.93694  0.89934  1.0000
  O   O11       1.0  0.16241000000000005  0.16237  0.98393  1.0000
  O   O12       1.0  0.2989700000000001  0.46880000000000005  0.55739  1.0000
  O   O13       1.0  0.2601500000000001  0.7430000000000001  0.41227000000000014  1.0000
  O   O14       1.0  0.29774  0.46655  0.39472  1.0000
  O   O15       1.0  0.4880800000000001  0.2535  0.3864300000000001  1.0000
  O   O16       1.0  0.7226699999999999  0.3038  0.42194  1.0000
  O   O17       1.0  0.7511300000000002  0.50222  0.61352  1.0000
  O   O18       1.0  0.4788900000000001  0.72851  0.60196  1.0000
  O   O19       1.0  0.26147000000000004  0.7454299999999999  0.58775  1.0000
  O   O20       1.0  0.48940000000000006  0.25593  0.56191  1.0000
  O   O21       1.0  0.72389  0.30605  0.58461  1.0000
  O   O22       1.0  0.5000100000000001  0.5000100000000001  0.5000200000000002  1.0000
  O   O23       1.0  0.17110000000000014  0.91468  0.0531  1.0000
  O   O24       1.0  0.94168  0.18484000000000003  0.05071  1.0000
  O   O25       1.0  0.9220800000000001  0.40342  0.07261  1.0000
  O   O26       1.0  0.19687999999999994  0.36915000000000003  0.08385  1.0000
