data_image0
_chemical_formula_structural       C100Cr12H48N8O60
_chemical_formula_sum              "C100 Cr12 H48 N8 O60"
_cell_length_a       19.22011
_cell_length_b       10.89974
_cell_length_c       18.98623
_cell_angle_alpha    89.83003000000001
_cell_angle_beta     89.33949
_cell_angle_gamma    90.22813

_symmetry_space_group_name_H-M    'P 1'
_symmetry_Int_Tables_number       1

loop_
  _symmetry_equiv_pos_as_xyz
  'x,y,z'

loop_
  _atom_site_type_symbol
  _atom_site_label
  _atom_site_symmetry_multiplicity
  _atom_site_fract_x
  _atom_site_fract_y
  _atom_site_fract_z
  _atom_site_occupancy
  C   C1        1.0  0.23777  0.47127  0.6456  1.0000
  C   C2        1.0  0.04611  0.65131  0.56059  1.0000
  C   C3        1.0  0.3439400000000001  0.40004000000000006  0.47031999999999996  1.0000
  C   C4        1.0  0.47146000000000005  0.15993000000000002  0.43421999999999994  1.0000
  C   C5        1.0  0.5461  0.15131  0.56059  1.0000
  C   C6        1.0  0.003000000000000002  0.8865100000000001  0.42380999999999996  1.0000
  C   C7        1.0  0.08232000000000003  0.8613800000000001  0.54092  1.0000
  C   C8        1.0  0.5030000000000001  0.3865100000000001  0.42380999999999996  1.0000
  C   C9        1.0  0.5823200000000001  0.36138000000000003  0.54092  1.0000
  C   C10       1.0  0.039880000000000006  0.9868100000000001  0.44846  1.0000
  C   C11       1.0  0.08019  0.97362  0.50706  1.0000
  C   C12       1.0  0.53988  0.4868  0.44846  1.0000
  C   C13       1.0  0.7604000000000002  0.46939  0.35373  1.0000
  C   C14       1.0  0.58019  0.47362000000000004  0.50706  1.0000
  C   C15       1.0  0.04266  0.76142  0.52136  1.0000
  C   C16       1.0  0.00476  0.76908  0.4586  1.0000
  C   C17       1.0  0.5426600000000001  0.26142  0.52136  1.0000
  C   C18       1.0  0.50476  0.26908  0.4586  1.0000
  C   C19       1.0  0.025110000000000004  0.5414200000000001  0.52802  1.0000
  C   C20       1.0  0.9779000000000002  0.54796  0.47289999999999993  1.0000
  C   C21       1.0  0.52511  0.041420000000000005  0.52802  1.0000
  C   C22       1.0  0.47790000000000005  0.04795  0.47289999999999993  1.0000
  C   C23       1.0  0.04853  0.42445  0.5500399999999999  1.0000
  C   C24       1.0  0.73777  0.9712700000000001  0.6456  1.0000
  C   C25       1.0  0.9405600000000001  0.43954  0.45642  1.0000
  C   C26       1.0  0.54853  0.9244500000000001  0.5500399999999999  1.0000
  C   C27       1.0  0.44056  0.9395400000000003  0.45642  1.0000
  C   C28       1.0  0.01629  0.31757  0.5275  1.0000
  C   C29       1.0  0.9601300000000001  0.32552  0.48285999999999996  1.0000
  C   C30       1.0  0.51629  0.81757  0.5275  1.0000
  C   C31       1.0  0.46013  0.8255200000000001  0.48285999999999996  1.0000
  C   C32       1.0  0.24196  0.90804  0.92434  1.0000
  C   C33       1.0  0.75951  0.90578  0.07461  1.0000
  C   C34       1.0  0.74196  0.40804000000000007  0.92434  1.0000
  C   C35       1.0  0.26039  0.9693900000000001  0.35373  1.0000
  C   C36       1.0  0.25951  0.40578  0.07461  1.0000
  C   C37       1.0  0.24827  0.90012  0.08435  1.0000
  C   C38       1.0  0.7512600000000001  0.8965900000000002  0.91505  1.0000
  C   C39       1.0  0.74827  0.40012  0.08435  1.0000
  C   C40       1.0  0.25126  0.39659000000000005  0.91505  1.0000
  C   C41       1.0  0.22918  0.87713  0.64963  1.0000
  C   C42       1.0  0.79221  0.82558  0.35856  1.0000
  C   C43       1.0  0.7291800000000002  0.37713  0.64963  1.0000
  C   C44       1.0  0.29221  0.32558  0.35856  1.0000
  C   C45       1.0  0.19698  0.94263  0.04353  1.0000
  C   C46       1.0  0.254  0.8141800000000001  0.53145  1.0000
  C   C47       1.0  0.8052  0.93187  0.95464  1.0000
  C   C48       1.0  0.69698  0.44263  0.04353  1.0000
  C   C49       1.0  0.3052  0.43187  0.95464  1.0000
  C   C50       1.0  0.18849  0.9120000000000001  0.9701499999999998  1.0000
  C   C51       1.0  0.8127400000000002  0.90061  0.02838  1.0000
  C   C52       1.0  0.6884900000000002  0.41200000000000003  0.9701499999999998  1.0000
  C   C53       1.0  0.31274  0.40061  0.02838  1.0000
  C   C54       1.0  0.0016300000000000008  0.65556  0.9218899999999999  1.0000
  C   C55       1.0  0.011740000000000002  0.6642200000000001  0.08518  1.0000
  C   C56       1.0  0.50163  0.15556000000000003  0.9218899999999999  1.0000
  C   C57       1.0  0.7316  0.79673  0.4730599999999999  1.0000
  C   C58       1.0  0.51174  0.16422000000000003  0.08518  1.0000
  C   C59       1.0  0.011820000000000002  0.56671  0.04184  1.0000
  C   C60       1.0  0.029360000000000004  0.57414  0.9676799999999999  1.0000
  C   C61       1.0  0.51182  0.06671  0.04184  1.0000
  C   C62       1.0  0.52936  0.07414  0.9676799999999999  1.0000
  C   C63       1.0  0.0627  0.64973  0.63741  1.0000
  C   C64       1.0  0.9433  0.65178  0.36294999999999994  1.0000
  C   C65       1.0  0.56271  0.14973  0.63741  1.0000
  C   C66       1.0  0.4433  0.15178  0.36294999999999994  1.0000
  C   C67       1.0  0.23866000000000004  0.46383  0.8500199999999999  1.0000
  C   C68       1.0  0.754  0.31418  0.53145  1.0000
  C   C69       1.0  0.76123  0.46446  0.14998  1.0000
  C   C70       1.0  0.7386600000000001  0.96383  0.8500199999999999  1.0000
  C   C71       1.0  0.26123  0.9644600000000001  0.14998  1.0000
  C   C72       1.0  0.22622000000000003  0.87226  0.85316  1.0000
  C   C73       1.0  0.77401  0.87211  0.14654  1.0000
  C   C74       1.0  0.72622  0.37226  0.85316  1.0000
  C   C75       1.0  0.27401  0.37211  0.14654  1.0000
  C   C76       1.0  0.029390000000000003  0.65177  0.85089  1.0000
  C   C77       1.0  0.97226  0.65302  0.15034  1.0000
  C   C78       1.0  0.52939  0.15177000000000002  0.85089  1.0000
  C   C79       1.0  0.2316  0.29673000000000005  0.4730599999999999  1.0000
  C   C80       1.0  0.47226  0.15302  0.15034  1.0000
  C   C81       1.0  0.25405  0.9070500000000001  0.57906  1.0000
  C   C82       1.0  0.7866600000000001  0.8391600000000001  0.43520999999999993  1.0000
  C   C83       1.0  0.7540500000000001  0.40705  0.57906  1.0000
  C   C84       1.0  0.28666  0.33916  0.43520999999999993  1.0000
  C   C85       1.0  0.24554  0.9287300000000002  0.42476  1.0000
  C   C86       1.0  0.74212  0.93553  0.57316  1.0000
  C   C87       1.0  0.7455400000000001  0.42873  0.42476  1.0000
  C   C88       1.0  0.24212000000000003  0.4355300000000001  0.57316  1.0000
  C   C89       1.0  0.27177  0.8307400000000001  0.45621  1.0000
  C   C90       1.0  0.9714600000000001  0.65993  0.43421999999999994  1.0000
  C   C91       1.0  0.72289  0.8249  0.54953  1.0000
  C   C92       1.0  0.77177  0.33074  0.45621  1.0000
  C   C93       1.0  0.22289  0.3249  0.54953  1.0000
  C   C94       1.0  0.29385000000000006  0.80095  0.06293  1.0000
  C   C95       1.0  0.70225  0.8024400000000002  0.93764  1.0000
  C   C96       1.0  0.79385  0.30095  0.06293  1.0000
  C   C97       1.0  0.20225000000000004  0.30244  0.93764  1.0000
  C   C98       1.0  0.29642  0.01568  0.5688  1.0000
  C   C99       1.0  0.84394  0.90004  0.47031999999999996  1.0000
  C   C100      1.0  0.79642  0.51568  0.5688  1.0000
  Cr  Cr1       1.0  0.11397  0.50863  0.74792  1.0000
  Cr  Cr2       1.0  0.8877000000000002  0.82007  0.2502  1.0000
  Cr  Cr3       1.0  0.6123  0.32007  0.7498  1.0000
  Cr  Cr4       1.0  0.3877  0.32007  0.2502  1.0000
  Cr  Cr5       1.0  0.8860300000000001  0.50863  0.25208  1.0000
  Cr  Cr6       1.0  0.6139700000000001  0.00863  0.74792  1.0000
  Cr  Cr7       1.0  0.38603000000000004  0.00863  0.25208  1.0000
  Cr  Cr8       1.0  0.26920000000000005  0.66674  0.7498499999999999  1.0000
  Cr  Cr9       1.0  0.7308  0.66674  0.25015  1.0000
  Cr  Cr10      1.0  0.7692  0.16674  0.7498499999999999  1.0000
  Cr  Cr11      1.0  0.2308  0.16674  0.25015  1.0000
  Cr  Cr12      1.0  0.1123  0.82007  0.7498  1.0000
  H   H1        1.0  0.13516  0.9025000000000001  0.9525  1.0000
  H   H2        1.0  0.06621  0.50526  0.94959  1.0000
  H   H3        1.0  0.4939700000000001  0.9771  0.059789999999999996  1.0000
  H   H4        1.0  0.56621  0.00526  0.94959  1.0000
  H   H5        1.0  0.23379  0.72457  0.54666  1.0000
  H   H6        1.0  0.6919  0.74131  0.44799  1.0000
  H   H7        1.0  0.7337900000000002  0.22457  0.54666  1.0000
  H   H8        1.0  0.1919  0.24131  0.44799  1.0000
  H   H9        1.0  0.21125000000000002  0.9887  0.45456  1.0000
  H   H10       1.0  0.75601  0.0091  0.53712  1.0000
  H   H11       1.0  0.71125  0.4887  0.45456  1.0000
  H   H12       1.0  0.8654500000000002  0.8834000000000001  0.04597  1.0000
  H   H13       1.0  0.25601  0.5091  0.53712  1.0000
  H   H14       1.0  0.03681  0.0749  0.42212999999999995  1.0000
  H   H15       1.0  0.11103000000000003  0.04907  0.52497  1.0000
  H   H16       1.0  0.53681  0.5749  0.42212999999999995  1.0000
  H   H17       1.0  0.61103  0.54907  0.52497  1.0000
  H   H18       1.0  0.96872  0.91259  0.38242  1.0000
  H   H19       1.0  0.12040000000000001  0.8447100000000001  0.57732  1.0000
  H   H20       1.0  0.46872  0.41259  0.38242  1.0000
  H   H21       1.0  0.6204000000000001  0.34471000000000007  0.57732  1.0000
  H   H22       1.0  0.8967300000000001  0.4420600000000001  0.42239999999999994  1.0000
  H   H23       1.0  0.63516  0.40250000000000014  0.9525  1.0000
  H   H24       1.0  0.09152  0.41473000000000004  0.58516  1.0000
  H   H25       1.0  0.39673  0.94206  0.42239999999999994  1.0000
  H   H26       1.0  0.5915200000000002  0.91473  0.58516  1.0000
  H   H27       1.0  0.03354  0.22923  0.54644  1.0000
  H   H28       1.0  0.9331500000000001  0.24299  0.46726999999999996  1.0000
  H   H29       1.0  0.53354  0.72923  0.54644  1.0000
  H   H30       1.0  0.43315000000000003  0.74299  0.46726999999999996  1.0000
  H   H31       1.0  0.15975000000000003  0.00931  0.06326  1.0000
  H   H32       1.0  0.84483  0.9939300000000001  0.9339199999999999  1.0000
  H   H33       1.0  0.65975  0.50931  0.06326  1.0000
  H   H34       1.0  0.36545  0.3834  0.04597  1.0000
  H   H35       1.0  0.34483  0.49393  0.9339199999999999  1.0000
  H   H36       1.0  0.316  0.67287  0.44980999999999993  1.0000
  H   H37       1.0  0.68724  0.66407  0.57017  1.0000
  H   H38       1.0  0.816  0.17287000000000002  0.44980999999999993  1.0000
  H   H39       1.0  0.18724  0.16407  0.57017  1.0000
  H   H40       1.0  0.07324  0.7673100000000003  0.02839  1.0000
  H   H41       1.0  0.92696  0.71614  0.9821299999999998  1.0000
  H   H42       1.0  0.57324  0.26731  0.02839  1.0000
  H   H43       1.0  0.42696  0.21614000000000003  0.9821299999999998  1.0000
  H   H44       1.0  0.2956  0.91973  0.94039  1.0000
  H   H45       1.0  0.70653  0.9247100000000001  0.05872  1.0000
  H   H46       1.0  0.7956  0.41973  0.94039  1.0000
  H   H47       1.0  0.20653  0.42472000000000004  0.05872  1.0000
  H   H48       1.0  0.9939700000000001  0.47709000000000007  0.059789999999999996  1.0000
  N   N1        1.0  0.33024  0.72176  0.04593  1.0000
  N   N2        1.0  0.66308  0.72738  0.95556  1.0000
  N   N3        1.0  0.8302400000000001  0.22176000000000004  0.04593  1.0000
  N   N4        1.0  0.16308000000000003  0.22738  0.95556  1.0000
  N   N5        1.0  0.33108  0.10178  0.56085  1.0000
  N   N6        1.0  0.8864300000000002  0.95163  0.50129  1.0000
  N   N7        1.0  0.8310800000000003  0.60178  0.56085  1.0000
  N   N8        1.0  0.38643  0.45164  0.50129  1.0000
  O   O1        1.0  0.04323  0.5493  0.66799  1.0000
  O   O2        1.0  0.83247  0.9051100000000001  0.16966  1.0000
  O   O3        1.0  0.6675300000000001  0.4051100000000001  0.83034  1.0000
  O   O4        1.0  0.33247  0.4051100000000001  0.16966  1.0000
  O   O5        1.0  0.05401  0.7484400000000001  0.82286  1.0000
  O   O6        1.0  0.94599  0.7484400000000001  0.17714  1.0000
  O   O7        1.0  0.55401  0.24844  0.82286  1.0000
  O   O8        1.0  0.44599000000000005  0.24844  0.17714  1.0000
  O   O9        1.0  0.16516000000000003  0.66515  0.7491899999999999  1.0000
  O   O10       1.0  0.83484  0.66515  0.25081  1.0000
  O   O11       1.0  0.66516  0.16515  0.7491899999999999  1.0000
  O   O12       1.0  0.95677  0.5493  0.33201  1.0000
  O   O13       1.0  0.33484  0.16515  0.25081  1.0000
  O   O14       1.0  0.17862000000000006  0.4576  0.6741  1.0000
  O   O15       1.0  0.82138  0.4576  0.3259  1.0000
  O   O16       1.0  0.67862  0.9576  0.6741  1.0000
  O   O17       1.0  0.32138  0.9576  0.3259  1.0000
  O   O18       1.0  0.28468000000000004  0.5421  0.66946  1.0000
  O   O19       1.0  0.71532  0.5421  0.33053999999999994  1.0000
  O   O20       1.0  0.78468  0.0421  0.66946  1.0000
  O   O21       1.0  0.21532  0.0421  0.33053999999999994  1.0000
  O   O22       1.0  0.26286  0.7903900000000001  0.67665  1.0000
  O   O23       1.0  0.54323  0.0493  0.66799  1.0000
  O   O24       1.0  0.73714  0.7903900000000001  0.32335  1.0000
  O   O25       1.0  0.76286  0.29039  0.67665  1.0000
  O   O26       1.0  0.23714000000000002  0.29039  0.32335  1.0000
  O   O27       1.0  0.16746  0.9070300000000001  0.67094  1.0000
  O   O28       1.0  0.8325400000000001  0.9070300000000001  0.32905999999999996  1.0000
  O   O29       1.0  0.66746  0.40703  0.67094  1.0000
  O   O30       1.0  0.33254  0.40703  0.32905999999999996  1.0000
  O   O31       1.0  0.05395  0.75022  0.6751  1.0000
  O   O32       1.0  0.9460500000000001  0.75022  0.3249  1.0000
  O   O33       1.0  0.5539500000000002  0.25022  0.6751  1.0000
  O   O34       1.0  0.45677000000000006  0.0493  0.33201  1.0000
  O   O35       1.0  0.44605  0.25022  0.3249  1.0000
  O   O36       1.0  0.043300000000000005  0.54737  0.8273899999999998  1.0000
  O   O37       1.0  0.9567000000000001  0.54737  0.17261  1.0000
  O   O38       1.0  0.5433  0.047370000000000016  0.8273899999999998  1.0000
  O   O39       1.0  0.4567  0.04737000000000001  0.17261  1.0000
  O   O40       1.0  0.17869000000000002  0.45582  0.82186  1.0000
  O   O41       1.0  0.82131  0.4558200000000001  0.17814  1.0000
  O   O42       1.0  0.67869  0.9558200000000001  0.82186  1.0000
  O   O43       1.0  0.32131  0.9558200000000001  0.17814  1.0000
  O   O44       1.0  0.28475  0.5401700000000002  0.82886  1.0000
  O   O45       1.0  0.26292  0.7886  0.82442  1.0000
  O   O46       1.0  0.71525  0.5401700000000002  0.17114  1.0000
  O   O47       1.0  0.7847500000000002  0.04017  0.82886  1.0000
  O   O48       1.0  0.21525000000000002  0.04017  0.17114  1.0000
  O   O49       1.0  0.30563000000000007  0.74177  0.41746  1.0000
  O   O50       1.0  0.6952  0.74051  0.59636  1.0000
  O   O51       1.0  0.8056300000000001  0.24177  0.41746  1.0000
  O   O52       1.0  0.1952  0.24051  0.59636  1.0000
  O   O53       1.0  0.03864  0.77801  0.06684  1.0000
  O   O54       1.0  0.9523400000000002  0.74289  0.9390999999999999  1.0000
  O   O55       1.0  0.53864  0.27801  0.06684  1.0000
  O   O56       1.0  0.73708  0.7886  0.17558  1.0000
  O   O57       1.0  0.45234  0.24289000000000002  0.9390999999999999  1.0000
  O   O58       1.0  0.7629200000000002  0.2886  0.82442  1.0000
  O   O59       1.0  0.23708000000000004  0.2886  0.17558  1.0000
  O   O60       1.0  0.16753  0.9051100000000001  0.83034  1.0000
