data_image0
_chemical_formula_structural       C100Cr12H40O52H12
_chemical_formula_sum              "C100 Cr12 H52 O52"
_cell_length_a       18.85014
_cell_length_b       10.89173
_cell_length_c       18.76276
_cell_angle_alpha    89.98153000000002
_cell_angle_beta     91.14991
_cell_angle_gamma    90.05474

_space_group_name_H-M_alt    "P 1"
_space_group_IT_number       1

loop_
  _space_group_symop_operation_xyz
  'x, y, z'

loop_
  _atom_site_type_symbol
  _atom_site_label
  _atom_site_symmetry_multiplicity
  _atom_site_fract_x
  _atom_site_fract_y
  _atom_site_fract_z
  _atom_site_occupancy
  C   C1        1.0  0.27185  0.04293  0.8533200000000001  1.0000
  C   C2        1.0  0.71119  0.00064  0.13877000000000003  1.0000
  C   C3        1.0  0.7889000000000002  0.50034  0.8612500000000001  1.0000
  C   C4        1.0  0.22579  0.53812  0.14448  1.0000
  C   C5        1.0  0.54609  0.72605  0.96218  1.0000
  C   C6        1.0  0.49439  0.72309  0.02485  1.0000
  C   C7        1.0  0.006660000000000003  0.2244  0.97477  1.0000
  C   C8        1.0  0.95503  0.22456999999999996  0.03751  1.0000
  C   C9        1.0  0.31026  0.55271  0.9652400000000001  1.0000
  C   C10       1.0  0.70371  0.51094  0.04147  1.0000
  C   C11       1.0  0.79641  0.0115  0.95862  1.0000
  C   C12       1.0  0.19933  0.02819  0.036860000000000004  1.0000
  C   C13       1.0  0.30335  0.53973  0.03861  1.0000
  C   C14       1.0  0.71483  0.48155  0.97012  1.0000
  C   C15       1.0  0.78538  0.98235  0.03002  1.0000
  C   C16       1.0  0.20359000000000002  0.01169  0.9635000000000001  1.0000
  C   C17       1.0  0.23763999999999996  0.56212  0.06948  1.0000
  C   C18       1.0  0.77496  0.52738  0.93561  1.0000
  C   C19       1.0  0.72522  0.02792  0.06446  1.0000
  C   C20       1.0  0.25177  0.082  0.92409  1.0000
  C   C21       1.0  0.17824  0.59004  0.02608  1.0000
  C   C22       1.0  0.82489  0.59738  0.97356  1.0000
  C   C23       1.0  0.67517  0.09742  0.026430000000000002  1.0000
  C   C24       1.0  0.29195  0.17365  0.9576200000000001  1.0000
  C   C25       1.0  0.18474  0.60033  0.95341  1.0000
  C   C26       1.0  0.81428  0.62533  0.04375  1.0000
  C   C27       1.0  0.68563  0.12494  0.95615  1.0000
  C   C28       1.0  0.28884  0.18813999999999997  0.03032  1.0000
  C   C29       1.0  0.25112  0.58659  0.92271  1.0000
  C   C30       1.0  0.75337  0.58428  0.07833  1.0000
  C   C31       1.0  0.7466  0.08425  0.9216400000000001  1.0000
  C   C32       1.0  0.24389000000000002  0.11366  0.07084000000000001  1.0000
  C   C33       1.0  0.46574000000000004  0.72718  0.52791  1.0000
  C   C34       1.0  0.47286999999999996  0.73158  0.45521000000000006  1.0000
  C   C35       1.0  0.9689300000000001  0.22381  0.52823  1.0000
  C   C36       1.0  0.9754200000000001  0.22747  0.45547  1.0000
  C   C37       1.0  0.50191  0.83562  0.42389000000000004  1.0000
  C   C38       1.0  0.48521999999999993  0.82825  0.57061  1.0000
  C   C39       1.0  0.9992499999999999  0.33457  0.42284  1.0000
  C   C40       1.0  0.9831800000000002  0.32871  0.56974  1.0000
  C   C41       1.0  0.519  0.9393  0.46572  1.0000
  C   C42       1.0  0.5105  0.9355799999999999  0.53918  1.0000
  C   C43       1.0  0.00969  0.4421399999999999  0.46323000000000003  1.0000
  C   C44       1.0  0.0012299999999999989  0.43934000000000006  0.53673  1.0000
  C   C45       1.0  0.47244  0.8215799999999999  0.8543700000000001  1.0000
  C   C46       1.0  0.56092  0.8171199999999998  0.13744  1.0000
  C   C47       1.0  0.9389799999999999  0.31703  0.8625400000000001  1.0000
  C   C48       1.0  0.02761  0.32153  0.14559  1.0000
  C   C49       1.0  0.18577  0.62198  0.5386700000000001  1.0000
  C   C50       1.0  0.793  0.68506  0.47395  1.0000
  C   C51       1.0  0.70829  0.18732999999999997  0.52575  1.0000
  C   C52       1.0  0.32652  0.08111  0.45136  1.0000
  C   C53       1.0  0.18476  0.62418  0.46619  1.0000
  C   C54       1.0  0.79244  0.67943  0.5466  1.0000
  C   C55       1.0  0.70879  0.18072  0.45309000000000005  1.0000
  C   C56       1.0  0.33771  0.052849999999999994  0.5223900000000001  1.0000
  C   C57       1.0  0.24126000000000003  0.57361  0.42867  1.0000
  C   C58       1.0  0.74755  0.59591  0.57936  1.0000
  C   C59       1.0  0.75256  0.09516  0.42077  1.0000
  C   C60       1.0  0.28213  0.00559  0.56211  1.0000
  C   C61       1.0  0.30022  0.5243  0.4651100000000001  1.0000
  C   C62       1.0  0.69505  0.533  0.53977  1.0000
  C   C63       1.0  0.80385  0.030160000000000003  0.4607800000000001  1.0000
  C   C64       1.0  0.21765999999999996  0.97304  0.52811  1.0000
  C   C65       1.0  0.30314  0.52936  0.53877  1.0000
  C   C66       1.0  0.69379  0.54221  0.46628  1.0000
  C   C67       1.0  0.80478  0.03943  0.53423  1.0000
  C   C68       1.0  0.20577  0.00423  0.4571700000000001  1.0000
  C   C69       1.0  0.24696  0.58323  0.57523  1.0000
  C   C70       1.0  0.74469  0.61482  0.43317000000000005  1.0000
  C   C71       1.0  0.75519  0.11495  0.5669  1.0000
  C   C72       1.0  0.25883  0.06563  0.42004000000000014  1.0000
  C   C73       1.0  0.26081  0.63526  0.8514700000000002  1.0000
  C   C74       1.0  0.73952  0.63584  0.14831  1.0000
  C   C75       1.0  0.76045  0.13582  0.85166  1.0000
  C   C76       1.0  0.23778  0.14191  0.14614  1.0000
  C   C77       1.0  0.29163  0.99405  0.63884  1.0000
  C   C78       1.0  0.73013  0.04896999999999999  0.35241000000000006  1.0000
  C   C79       1.0  0.76986  0.5492  0.6476600000000001  1.0000
  C   C80       1.0  0.22793000000000002  0.54441  0.3550900000000001  1.0000
  C   C81       1.0  0.4677  0.82306  0.64545  1.0000
  C   C82       1.0  0.52964  0.8243000000000001  0.3527700000000001  1.0000
  C   C83       1.0  0.96672  0.32305  0.6449100000000001  1.0000
  C   C84       1.0  0.02898  0.32418  0.35239  1.0000
  C   C85       1.0  0.25895  0.63333  0.6450500000000001  1.0000
  C   C86       1.0  0.73901  0.64112  0.35834  1.0000
  C   C87       1.0  0.76095  0.1412  0.64169  1.0000
  C   C88       1.0  0.24144  0.13259  0.355  1.0000
  C   C89       1.0  0.49299999999999994  0.92497  0.02698  1.0000
  C   C90       1.0  0.54445  0.92797  0.9636600000000001  1.0000
  C   C91       1.0  0.95424  0.42647000000000007  0.03673  1.0000
  C   C92       1.0  0.005580000000000001  0.4262699999999999  0.97332  1.0000
  C   C93       1.0  0.44869000000000003  0.82406  0.9892300000000002  1.0000
  C   C94       1.0  0.59066  0.82684  0.99994  1.0000
  C   C95       1.0  0.9091800000000001  0.32404  0.00017  1.0000
  C   C96       1.0  0.0512  0.32673  0.01063  1.0000
  C   C97       1.0  0.50072  0.8271099999999999  0.9273000000000001  1.0000
  C   C98       1.0  0.53861  0.82389  0.06192  1.0000
  C   C99       1.0  0.96116  0.32383  0.9381  1.0000
  C   C100      1.0  0.9992600000000001  0.32699  0.07266  1.0000
  Cr  Cr1       1.0  0.22963000000000003  0.8358999999999999  0.7473500000000001  1.0000
  Cr  Cr2       1.0  0.77037  0.8358999999999999  0.25265  1.0000
  Cr  Cr3       1.0  0.72963  0.3359  0.7473500000000001  1.0000
  Cr  Cr4       1.0  0.27037  0.3359  0.25265  1.0000
  Cr  Cr5       1.0  0.38741  0.98985  0.75085  1.0000
  Cr  Cr6       1.0  0.61259  0.98985  0.24915000000000004  1.0000
  Cr  Cr7       1.0  0.88741  0.48985  0.75085  1.0000
  Cr  Cr8       1.0  0.11259  0.48985  0.24915000000000004  1.0000
  Cr  Cr9       1.0  0.3858  0.67712  0.74934  1.0000
  Cr  Cr10      1.0  0.6142  0.67712  0.25066  1.0000
  Cr  Cr11      1.0  0.8858000000000001  0.17712  0.74934  1.0000
  Cr  Cr12      1.0  0.1142  0.17712  0.25066  1.0000
  H   H1        1.0  0.38993  0.8229299999999999  0.9833500000000001  1.0000
  H   H2        1.0  0.64936  0.8257000000000001  0.00541  1.0000
  H   H3        1.0  0.85048  0.32111  0.9947000000000001  1.0000
  H   H4        1.0  0.10997  0.32767  0.01639  1.0000
  H   H5        1.0  0.14089  0.66152  0.56567  1.0000
  H   H6        1.0  0.83118  0.74605  0.45008  1.0000
  H   H7        1.0  0.67125  0.25057  0.54935  1.0000
  H   H8        1.0  0.3692  0.12468  0.4229  1.0000
  H   H9        1.0  0.13768  0.66093  0.43992  1.0000
  H   H10       1.0  0.83198  0.73152  0.57654  1.0000
  H   H11       1.0  0.67018  0.23415  0.4228  1.0000
  H   H12       1.0  0.38842  0.07479  0.54728  1.0000
  H   H13       1.0  0.3503  0.49699  0.56677  1.0000
  H   H14       1.0  0.65402  0.4920900000000001  0.4355800000000001  1.0000
  H   H15       1.0  0.84336  0.9873199999999999  0.56526  1.0000
  H   H16       1.0  0.15371000000000004  0.98876  0.43333  1.0000
  H   H17       1.0  0.36231  0.54268  0.94254  1.0000
  H   H18       1.0  0.6559  0.47971  0.06692  1.0000
  H   H19       1.0  0.84427  0.98055  0.93322  1.0000
  H   H20       1.0  0.16259  0.97313  0.06698  1.0000
  H   H21       1.0  0.34913  0.51422  0.07112  1.0000
  H   H22       1.0  0.67612  0.42533000000000004  0.9418500000000001  1.0000
  H   H23       1.0  0.82417  0.9265  0.05835  1.0000
  H   H24       1.0  0.17210000000000003  0.9398599999999999  0.93846  1.0000
  H   H25       1.0  0.12598  0.60244  0.04798000000000001  1.0000
  H   H26       1.0  0.87274  0.63118  0.9491700000000001  1.0000
  H   H27       1.0  0.62729  0.13098  0.05079  1.0000
  H   H28       1.0  0.32877  0.22991  0.9282800000000001  1.0000
  H   H29       1.0  0.13839  0.62578  0.92169  1.0000
  H   H30       1.0  0.8536900000000001  0.68285  0.07011  1.0000
  H   H31       1.0  0.64612  0.182  0.92968  1.0000
  H   H32       1.0  0.32159  0.2591  0.05456  1.0000
  H   H33       1.0  0.44412000000000007  0.64415  0.55048  1.0000
  H   H34       1.0  0.45926000000000006  0.6509  0.424  1.0000
  H   H35       1.0  0.95191  0.13814  0.55171  1.0000
  H   H36       1.0  0.96605  0.14389  0.42536  1.0000
  H   H37       1.0  0.54237  0.02044  0.44240000000000007  1.0000
  H   H38       1.0  0.52403  0.01525  0.5712300000000001  1.0000
  H   H39       1.0  0.02795  0.52614  0.43876000000000004  1.0000
  H   H40       1.0  0.00984  0.52217  0.56766  1.0000
  O   O1        1.0  0.21427000000000002  0.709  0.8274700000000001  1.0000
  O   O2        1.0  0.78573  0.709  0.17253  1.0000
  O   O3        1.0  0.71427  0.209  0.8274700000000001  1.0000
  O   O4        1.0  0.28573  0.209  0.17253  1.0000
  O   O5        1.0  0.44595000000000007  0.91944  0.67652  1.0000
  O   O6        1.0  0.55405  0.91944  0.32348  1.0000
  O   O7        1.0  0.9459499999999998  0.41944  0.67652  1.0000
  O   O8        1.0  0.05405  0.41944  0.32348  1.0000
  O   O9        1.0  0.45673  0.71763  0.66984  1.0000
  O   O10       1.0  0.54327  0.71763  0.33016  1.0000
  O   O11       1.0  0.95673  0.21763  0.66984  1.0000
  O   O12       1.0  0.04327  0.21763  0.33016  1.0000
  O   O13       1.0  0.32062  0.62564  0.67292  1.0000
  O   O14       1.0  0.67938  0.62564  0.32708  1.0000
  O   O15       1.0  0.82062  0.12564  0.67292  1.0000
  O   O16       1.0  0.17938  0.12564  0.32708  1.0000
  O   O17       1.0  0.33428  0.83429  0.74918  1.0000
  O   O18       1.0  0.66572  0.83429  0.25082  1.0000
  O   O19       1.0  0.83428  0.33429  0.74918  1.0000
  O   O20       1.0  0.16572  0.33429  0.25082  1.0000
  O   O21       1.0  0.23616000000000004  0.9584900000000001  0.82313  1.0000
  O   O22       1.0  0.76384  0.9584900000000001  0.17687  1.0000
  O   O23       1.0  0.73616  0.45849  0.82313  1.0000
  O   O24       1.0  0.26384  0.45849  0.17687  1.0000
  O   O25       1.0  0.33208  0.07547  0.8312800000000002  1.0000
  O   O26       1.0  0.66792  0.07547  0.16872000000000004  1.0000
  O   O27       1.0  0.83208  0.57547  0.8312800000000002  1.0000
  O   O28       1.0  0.16791999999999999  0.57547  0.16872000000000004  1.0000
  O   O29       1.0  0.4463  0.91811  0.82662  1.0000
  O   O30       1.0  0.5537  0.91811  0.17338  1.0000
  O   O31       1.0  0.9463  0.4181099999999999  0.82662  1.0000
  O   O32       1.0  0.0537  0.4181099999999999  0.17338  1.0000
  O   O33       1.0  0.45711000000000007  0.7162  0.8317600000000002  1.0000
  O   O34       1.0  0.54289  0.7162  0.16824000000000003  1.0000
  O   O35       1.0  0.95711  0.2162  0.8317600000000002  1.0000
  O   O36       1.0  0.04289  0.2162  0.16824000000000003  1.0000
  O   O37       1.0  0.32098  0.62431  0.82303  1.0000
  O   O38       1.0  0.67902  0.62431  0.17697  1.0000
  O   O39       1.0  0.82098  0.12431  0.82303  1.0000
  O   O40       1.0  0.17902  0.12431  0.17697  1.0000
  O   O41       1.0  0.21389  0.71043  0.66554  1.0000
  O   O42       1.0  0.78611  0.71043  0.33446000000000004  1.0000
  O   O43       1.0  0.71389  0.21042999999999998  0.66554  1.0000
  O   O44       1.0  0.28611  0.21042999999999998  0.33446000000000004  1.0000
  O   O45       1.0  0.23581000000000002  0.95982  0.67302  1.0000
  O   O46       1.0  0.76419  0.95982  0.3269800000000001  1.0000
  O   O47       1.0  0.73581  0.45982  0.67302  1.0000
  O   O48       1.0  0.26419  0.45982  0.3269800000000001  1.0000
  O   O49       1.0  0.3317  0.0769  0.66935  1.0000
  O   O50       1.0  0.6683  0.0769  0.33065  1.0000
  O   O51       1.0  0.8317  0.5769  0.66935  1.0000
  O   O52       1.0  0.1683  0.5769  0.33065  1.0000
  H   H41       1.0  0.34316  0.48113  0.43694000000000005  1.0000
  H   H42       1.0  0.65858  0.47045  0.56495  1.0000
  H   H43       1.0  0.83951  0.96596  0.43595  1.0000
  H   H44       1.0  0.17485  0.93134  0.55723  1.0000
  H   H45       1.0  0.47126  0.00636  0.05464000000000001  1.0000
  H   H46       1.0  0.56173  0.01092  0.93475  1.0000
  H   H47       1.0  0.9361299999999999  0.50821  0.06617  1.0000
  H   H48       1.0  0.02576  0.50895  0.9457300000000001  1.0000
  H   H49       1.0  0.56792  0.64487  0.93437  1.0000
  H   H50       1.0  0.4734  0.63882  0.05024  1.0000
  H   H51       1.0  0.028710000000000006  0.14131  0.9490800000000001  1.0000
  H   H52       1.0  0.9342099999999999  0.14223  0.06507  1.0000
