data_image0
_chemical_formula_structural       O3CO2CO2VOCOCVOCHC13H3C3HCHC4H3C3HCHC4H2CH3C13H3O3CO2CO2VOCOCVOF3H2FHF2
_chemical_formula_sum              "O20 C52 V4 H22 F6"
_cell_length_a       6.97205
_cell_length_b       13.55414
_cell_length_c       20.26542
_cell_angle_alpha    103.06842
_cell_angle_beta     90.44813999999998
_cell_angle_gamma    90.155

_space_group_name_H-M_alt    "P 1"
_space_group_IT_number       1

loop_
  _space_group_symop_operation_xyz
  'x, y, z'

loop_
  _atom_site_type_symbol
  _atom_site_label
  _atom_site_symmetry_multiplicity
  _atom_site_fract_x
  _atom_site_fract_y
  _atom_site_fract_z
  _atom_site_occupancy
  O   O1        1.0  0.50677  0.5997  0.44955  1.0000
  O   O2        1.0  0.17997999999999995  0.59574  0.58796  1.0000
  O   O3        1.0  0.004580000000000001  0.4003  0.55045  1.0000
  C   C1        1.0  0.3483699999999999  0.61647  0.61546  1.0000
  O   O4        1.0  0.17737999999999995  0.6116999999999998  0.45238  1.0000
  O   O5        1.0  0.0019699999999999956  0.41637  0.41389999999999993  1.0000
  C   C2        1.0  0.34536999999999995  0.6382899999999998  0.43566  1.0000
  O   O6        1.0  0.50939  0.5836299999999998  0.5861  1.0000
  O   O7        1.0  0.3375299999999999  0.43588999999999994  0.48753  1.0000
  V   V1        1.0  0.06466  0.5118899999999997  0.50231  1.0000
  O   O8        1.0  0.67195  0.4042599999999999  0.41204  1.0000
  C   C3        1.0  0.84016  0.3828699999999999  0.3848  1.0000
  O   O9        1.0  0.6745399999999998  0.3883  0.54762  1.0000
  C   C4        1.0  0.84394  0.36163  0.5642  1.0000
  V   V2        1.0  0.56403  0.48810999999999993  0.49769  1.0000
  O   O10       1.0  0.8410299999999998  0.56411  0.51247  1.0000
  C   C5        1.0  0.9413299999999998  0.11514999999999997  0.61258  1.0000
  H   H1        1.0  0.9817899999999998  0.03864000000000001  0.58785  1.0000
  C   C6        1.0  0.8572599999999998  0.28422  0.60385  1.0000
  C   C7        1.0  0.8239499999999997  0.31601999999999997  0.9312399999999998  1.0000
  C   C8        1.0  0.81722  0.3934199999999999  0.8967099999999999  1.0000
  C   C9        1.0  0.83823  0.3727299999999999  0.82648  1.0000
  C   C10       1.0  0.86018  0.2712399999999999  0.78837  1.0000
  C   C11       1.0  0.8791699999999998  0.1933399999999999  0.8251499999999999  1.0000
  C   C12       1.0  0.8698099999999998  0.24386  0.71579  1.0000
  C   C13       1.0  0.91844  0.14271  0.68312  1.0000
  C   C14       1.0  0.9433499999999998  0.06935999999999999  0.72079  1.0000
  C   C15       1.0  0.9204399999999998  0.09366  0.79039  1.0000
  C   C16       1.0  0.8296799999999998  0.31198  0.6739  1.0000
  C   C17       1.0  0.9154099999999998  0.18613999999999994  0.57334  1.0000
  C   C18       1.0  0.85843  0.21667999999999993  0.89645  1.0000
  H   H2        1.0  0.7748699999999997  0.38681999999999994  0.69339  1.0000
  H   H3        1.0  0.8071699999999998  0.334  0.98578  1.0000
  H   H4        1.0  0.9391099999999998  0.03352999999999993  0.8169999999999998  1.0000
  C   C19       1.0  0.7119499999999997  0.25292  0.20289  1.0000
  C   C20       1.0  0.8676799999999998  0.18837999999999994  0.18272  1.0000
  C   C21       1.0  0.02106999999999999  0.19406  0.22898  1.0000
  H   H5        1.0  0.14185999999999999  0.14433999999999994  0.21604999999999996  1.0000
  C   C22       1.0  0.01314  0.25795999999999997  0.29424  1.0000
  H   H6        1.0  0.12989999999999993  0.25659  0.32945  1.0000
  C   C23       1.0  0.8501799999999998  0.3175499999999999  0.3155  1.0000
  C   C24       1.0  0.7034599999999998  0.31622999999999996  0.26766  1.0000
  C   C25       1.0  0.4951599999999999  0.29587999999999987  0.27388  1.0000
  C   C26       1.0  0.5051799999999999  0.22612  0.204  1.0000
  H   H7        1.0  0.40684999999999993  0.3644499999999999  0.27516  1.0000
  H   H8        1.0  0.46605  0.2557299999999999  0.31493  1.0000
  H   H9        1.0  0.4179299999999999  0.25073999999999996  0.16454  1.0000
  C   C27       1.0  0.5067599999999999  0.7512199999999998  0.70562  1.0000
  C   C28       1.0  0.35221  0.6861799999999998  0.68335  1.0000
  C   C29       1.0  0.19442999999999994  0.69174  0.72705  1.0000
  H   H10       1.0  0.07465  0.6409399999999997  0.71234  1.0000
  C   C30       1.0  0.19588  0.7571  0.79187  1.0000
  H   H11       1.0  0.07691  0.7552099999999998  0.82539  1.0000
  C   C31       1.0  0.35635  0.81832  0.81518  1.0000
  C   C32       1.0  0.50895  0.8157999999999999  0.77005  1.0000
  C   C33       1.0  0.71522  0.7950399999999997  0.78074  1.0000
  C   C34       1.0  0.71177  0.7241199999999998  0.71121  1.0000
  H   H12       1.0  0.73724  0.75585  0.82284  1.0000
  H   H13       1.0  0.8064299999999998  0.8630599999999998  0.78319  1.0000
  C   C35       1.0  0.28984  0.8881  0.38793  1.0000
  H   H14       1.0  0.28785  0.83866  0.48122  1.0000
  H   H15       1.0  0.25128  0.010710000000000008  0.30384  1.0000
  H   H16       1.0  0.25796  0.9657199999999999  0.413  1.0000
  C   C36       1.0  0.3491299999999999  0.7157899999999998  0.39596  1.0000
  C   C37       1.0  0.40142  0.68331  0.06981  1.0000
  C   C38       1.0  0.4167299999999998  0.6074399999999998  0.10557999999999998  1.0000
  C   C39       1.0  0.39842  0.6303199999999998  0.17583  1.0000
  C   C40       1.0  0.362  0.7306399999999997  0.21229999999999996  1.0000
  C   C41       1.0  0.33976  0.8073399999999997  0.17487  1.0000
  C   C42       1.0  0.34794  0.7575799999999998  0.28452  1.0000
  C   C43       1.0  0.30781  0.8597799999999998  0.31723  1.0000
  C   C44       1.0  0.28318  0.9328699999999998  0.27926  1.0000
  C   C45       1.0  0.29861999999999983  0.90714  0.20929  1.0000
  C   C46       1.0  0.3707099999999999  0.68669  0.32566  1.0000
  C   C47       1.0  0.3081499999999999  0.8162499999999999  0.4269299999999999  1.0000
  C   C48       1.0  0.36264  0.7829499999999999  0.10361999999999999  1.0000
  H   H17       1.0  0.39945  0.60777  0.30478  1.0000
  H   H18       1.0  0.42151  0.6644999999999998  0.01543  1.0000
  H   H19       1.0  0.4140399999999999  0.5676799999999999  0.19996  1.0000
  O   O11       1.0  0.20345  0.9163199999999998  0.91391  1.0000
  O   O12       1.0  0.5355199999999999  0.8882999999999998  0.04762  1.0000
  O   O13       1.0  0.7108599999999998  0.08364999999999997  0.0861  1.0000
  C   C49       1.0  0.36742999999999987  0.8615799999999998  0.06432  1.0000
  O   O14       1.0  0.53286  0.9042499999999998  0.9120400000000001  1.0000
  O   O15       1.0  0.7081899999999998  0.09971000000000005  0.94955  1.0000
  C   C50       1.0  0.36421  0.8831199999999998  0.8846899999999999  1.0000
  O   O16       1.0  0.20611999999999994  0.9002599999999997  0.05046  1.0000
  O   O17       1.0  0.3752799999999999  0.06407999999999998  0.01247  1.0000
  V   V3        1.0  0.6481799999999998  0.98811  0.9976900000000001  1.0000
  O   O18       1.0  0.03821999999999998  0.11173999999999992  0.95237  1.0000
  C   C51       1.0  0.8689899999999998  0.13830999999999988  0.9357399999999999  1.0000
  O   O19       1.0  0.04088  0.09579  0.08794  1.0000
  C   C52       1.0  0.8729699999999998  0.11729  0.11521000000000002  1.0000
  V   V4        1.0  0.1488  0.01195  0.0023  1.0000
  O   O20       1.0  0.8718199999999998  0.93592  0.98753  1.0000
  F   F1        1.0  0.9451999999999998  0.15903  0.50553  1.0000
  F   F2        1.0  0.48212999999999995  0.12542  0.20589  1.0000
  F   F3        1.0  0.7313699999999997  0.62356  0.71439  1.0000
  H   H20       1.0  0.97861  0.9920199999999998  0.69611  1.0000
  H   H21       1.0  0.80471  0.74807  0.67329  1.0000
  F   F4        1.0  0.45342  0.51097  0.07202  1.0000
  H   H22       1.0  0.27664999999999995  0.9663299999999998  0.1822  1.0000
  F   F5        1.0  0.85084  0.45429  0.79855  1.0000
  F   F6        1.0  0.7938699999999997  0.49032  0.9319500000000001  1.0000
