data_image0
_chemical_formula_structural       C42Cu2H24N2O10
_chemical_formula_sum              "C42 Cu2 H24 N2 O10"
_cell_length_a       10.852
_cell_length_b       10.8614
_cell_length_c       10.42359
_cell_angle_alpha    90.39828999999999
_cell_angle_beta     90.26433
_cell_angle_gamma    90.05311000000002

_space_group_name_H-M_alt    "P 1"
_space_group_IT_number       1

loop_
  _space_group_symop_operation_xyz
  'x, y, z'

loop_
  _atom_site_type_symbol
  _atom_site_label
  _atom_site_symmetry_multiplicity
  _atom_site_fract_x
  _atom_site_fract_y
  _atom_site_fract_z
  _atom_site_occupancy
  C   C1        1.0  0.49555  0.26151  0.49921000000000004  1.0000
  C   C2        1.0  0.69198  0.82966  0.7441  1.0000
  C   C3        1.0  0.42512  0.11577  0.26319000000000004  1.0000
  C   C4        1.0  0.57504  0.88422  0.73672  1.0000
  C   C5        1.0  0.49931  0.11035  0.15338  1.0000
  C   C6        1.0  0.50093  0.8894100000000001  0.84659  1.0000
  C   C7        1.0  0.45757  0.16013  0.03771  1.0000
  C   C8        1.0  0.5428300000000001  0.8395700000000001  0.96216  1.0000
  C   C9        1.0  0.34102  0.21468  0.029670000000000002  1.0000
  C   C10       1.0  0.65947  0.78518  0.9700400000000001  1.0000
  C   C11       1.0  0.47676  0.9325400000000001  0.38825  1.0000
  C   C12       1.0  0.50444  0.73848  0.50079  1.0000
  C   C13       1.0  0.52319  0.06746  0.61176  1.0000
  C   C14       1.0  0.50686  0.8721  0.50222  1.0000
  C   C15       1.0  0.4931  0.1279  0.49777  1.0000
  C   C16       1.0  0.26155  0.5039700000000001  0.49945000000000006  1.0000
  C   C17       1.0  0.7384500000000002  0.49603  0.50055  1.0000
  C   C18       1.0  0.53239  0.94036  0.61526  1.0000
  C   C19       1.0  0.46759  0.05964  0.38473  1.0000
  C   C20       1.0  0.5  0.49999000000000005  0.07193000000000001  1.0000
  C   C21       1.0  0.5  0.5000100000000001  0.92807  1.0000
  C   C22       1.0  0.23074000000000006  0.7623200000000002  0.16957  1.0000
  C   C23       1.0  0.87201  0.49391000000000007  0.5016  1.0000
  C   C24       1.0  0.76933  0.23753  0.8303  1.0000
  C   C25       1.0  0.17898  0.7120100000000001  0.2802  1.0000
  C   C26       1.0  0.8210600000000001  0.28792  0.7197  1.0000
  C   C27       1.0  0.11781000000000003  0.59803  0.27396000000000004  1.0000
  C   C28       1.0  0.8822  0.40193  0.72601  1.0000
  C   C29       1.0  0.10863  0.5357400000000001  0.15576  1.0000
  C   C30       1.0  0.8913600000000003  0.46414  0.84425  1.0000
  C   C31       1.0  0.16235  0.58535  0.04593  1.0000
  C   C32       1.0  0.83769  0.4144400000000001  0.9540500000000001  1.0000
  C   C33       1.0  0.22319  0.69866  0.05278  1.0000
  C   C34       1.0  0.12799  0.50611  0.49841  1.0000
  C   C35       1.0  0.77689  0.30111  0.94713  1.0000
  C   C36       1.0  0.9327400000000001  0.5374  0.39274  1.0000
  C   C37       1.0  0.06726  0.46263  0.60727  1.0000
  C   C38       1.0  0.93981  0.4548000000000001  0.61003  1.0000
  C   C39       1.0  0.06019  0.5452200000000001  0.38998  1.0000
  C   C40       1.0  0.26631000000000005  0.21949000000000002  0.13975  1.0000
  C   C41       1.0  0.7341  0.7806100000000002  0.85989  1.0000
  C   C42       1.0  0.30827  0.17049000000000003  0.25564  1.0000
  Cu  Cu1       1.0  0.5  0.5  0.6253  1.0000
  Cu  Cu2       1.0  0.5  0.5  0.3747  1.0000
  H   H1        1.0  0.26395  0.73738  0.96748  1.0000
  H   H2        1.0  0.72402  0.14886  0.8257700000000001  1.0000
  H   H3        1.0  0.18573  0.7619900000000001  0.37025  1.0000
  H   H4        1.0  0.8143  0.238  0.62962  1.0000
  H   H5        1.0  0.06039  0.4486800000000001  0.14907  1.0000
  H   H6        1.0  0.93957  0.55122  0.851  1.0000
  H   H7        1.0  0.15638  0.53626  0.9554000000000001  1.0000
  H   H8        1.0  0.8436700000000001  0.46347  0.04462  1.0000
  H   H9        1.0  0.88058  0.56922  0.31034  1.0000
  H   H10       1.0  0.11942000000000001  0.4308100000000001  0.68966  1.0000
  H   H11       1.0  0.17545  0.26007  0.13564  1.0000
  H   H12       1.0  0.73618  0.26232000000000005  0.03242  1.0000
  H   H13       1.0  0.8250200000000001  0.74016  0.86387  1.0000
  H   H14       1.0  0.24946  0.17433  0.33928  1.0000
  H   H15       1.0  0.75071  0.8260000000000001  0.66041  1.0000
  H   H16       1.0  0.21932  0.29750000000000004  0.9241400000000001  1.0000
  H   H17       1.0  0.78137  0.70242  0.07535  1.0000
  H   H18       1.0  0.5894  0.06765000000000002  0.15743000000000001  1.0000
  H   H19       1.0  0.41078  0.93198  0.8426600000000001  1.0000
  H   H20       1.0  0.51573  0.1557  0.95374  1.0000
  H   H21       1.0  0.48473  0.84381  0.04618  1.0000
  H   H22       1.0  0.45677  0.8804100000000001  0.30164  1.0000
  H   H23       1.0  0.54319  0.11958000000000002  0.69836  1.0000
  H   H24       1.0  0.27609  0.85097  0.17405  1.0000
  N   N1        1.0  0.50001  0.49999000000000005  0.18641  1.0000
  N   N2        1.0  0.49999  0.5000100000000001  0.81359  1.0000
  O   O1        1.0  0.49999  0.31965  0.60581  1.0000
  O   O2        1.0  0.69785  0.7379700000000001  0.086  1.0000
  O   O3        1.0  0.50001  0.68035  0.39419  1.0000
  O   O4        1.0  0.49999  0.31964  0.39419  1.0000
  O   O5        1.0  0.50001  0.68036  0.60581  1.0000
  O   O6        1.0  0.31964  0.5000100000000001  0.60581  1.0000
  O   O7        1.0  0.68036  0.49999000000000005  0.39419  1.0000
  O   O8        1.0  0.31965  0.5000100000000001  0.39419  1.0000
  O   O9        1.0  0.68035  0.49999000000000005  0.60581  1.0000
  O   O10       1.0  0.30279  0.26180000000000003  0.9136  1.0000
