data_image0
_chemical_formula_structural       O8H4C4O8C4O4V4C4H4C32NO2NO2NO2NO2H4
_chemical_formula_sum              "O28 H12 C44 V4 N4"
_cell_length_a       16.54485
_cell_length_b       7.25434
_cell_length_c       15.231390000000001
_cell_angle_alpha    90.00585
_cell_angle_beta     94.76536999999999
_cell_angle_gamma    89.99938

_space_group_name_H-M_alt    "P 1"
_space_group_IT_number       1

loop_
  _space_group_symop_operation_xyz
  'x, y, z'

loop_
  _atom_site_type_symbol
  _atom_site_label
  _atom_site_symmetry_multiplicity
  _atom_site_fract_x
  _atom_site_fract_y
  _atom_site_fract_z
  _atom_site_occupancy
  O   O1        1.0  0.66346  0.36176000000000014  0.16597  1.0000
  O   O2        1.0  0.33654  0.6382400000000001  0.83403  1.0000
  O   O3        1.0  0.83654  0.8617600000000002  0.33403  1.0000
  O   O4        1.0  0.16346  0.13824  0.66597  1.0000
  O   O5        1.0  0.8271  0.6898700000000002  0.16373  1.0000
  O   O6        1.0  0.1729  0.31013000000000013  0.83627  1.0000
  O   O7        1.0  0.6729  0.18987000000000004  0.3362700000000001  1.0000
  O   O8        1.0  0.32709999999999995  0.8101300000000002  0.66373  1.0000
  H   H1        1.0  0.21125000000000002  0.06627  0.50071  1.0000
  H   H2        1.0  0.78874  0.9337300000000002  0.49929  1.0000
  H   H3        1.0  0.28845  0.56022  0.9999700000000002  1.0000
  H   H4        1.0  0.71155  0.43978  3e-05  1.0000
  C   C1        1.0  0.85326  0.5229300000000001  0.14356  1.0000
  C   C2        1.0  0.14674  0.47707  0.85644  1.0000
  C   C3        1.0  0.64674  0.022940000000000006  0.35644  1.0000
  C   C4        1.0  0.35326  0.9770600000000003  0.64356  1.0000
  O   O9        1.0  0.66349  0.6913700000000003  0.1555  1.0000
  O   O10       1.0  0.33651  0.30863  0.8445  1.0000
  O   O11       1.0  0.83651  0.19137000000000007  0.3445  1.0000
  O   O12       1.0  0.16349  0.8086300000000001  0.6555  1.0000
  O   O13       1.0  0.67177  0.86332  0.32574  1.0000
  O   O14       1.0  0.32823  0.13668  0.67426  1.0000
  O   O15       1.0  0.8282299999999998  0.3633200000000001  0.17426  1.0000
  O   O16       1.0  0.17177000000000003  0.63668  0.8257400000000001  1.0000
  C   C5        1.0  0.63609  0.52287  0.13387  1.0000
  C   C6        1.0  0.36391  0.4771300000000001  0.8661300000000001  1.0000
  C   C7        1.0  0.86393  0.022880000000000008  0.36611  1.0000
  C   C8        1.0  0.13607000000000002  0.9771200000000002  0.6338900000000001  1.0000
  O   O17       1.0  0.75291  0.5288000000000002  0.30586  1.0000
  O   O18       1.0  0.24709  0.4712000000000001  0.69414  1.0000
  O   O19       1.0  0.74709  0.028800000000000006  0.19414000000000006  1.0000
  O   O20       1.0  0.25291  0.9712000000000002  0.80586  1.0000
  V   V1        1.0  0.74946  0.8030100000000002  0.23964000000000005  1.0000
  V   V2        1.0  0.25054  0.19699000000000003  0.76036  1.0000
  V   V3        1.0  0.75054  0.3030100000000001  0.26036  1.0000
  V   V4        1.0  0.24946  0.6969900000000002  0.7396400000000002  1.0000
  C   C9        1.0  0.46878  0.9947000000000003  0.5300600000000002  1.0000
  C   C10       1.0  0.5312199999999999  0.005300000000000001  0.46994000000000014  1.0000
  C   C11       1.0  0.031230000000000018  0.4947  0.9699500000000002  1.0000
  C   C12       1.0  0.96877  0.5053000000000002  0.030050000000000004  1.0000
  H   H5        1.0  0.76626  0.8499300000000002  0.64832  1.0000
  H   H6        1.0  0.23374  0.15007000000000006  0.35168  1.0000
  H   H7        1.0  0.73427  0.3607  0.85046  1.0000
  H   H8        1.0  0.26573  0.6393  0.14954  1.0000
  C   C13       1.0  0.02863  0.09952000000000003  0.32534  1.0000
  C   C14       1.0  0.97137  0.9004800000000002  0.67466  1.0000
  C   C15       1.0  0.47112  0.59415  0.17527  1.0000
  C   C16       1.0  0.52888  0.4058500000000001  0.82473  1.0000
  C   C17       1.0  0.10756  0.13572  0.30245  1.0000
  C   C18       1.0  0.8924399999999998  0.86428  0.69755  1.0000
  C   C19       1.0  0.39205  0.6274300000000003  0.1985  1.0000
  C   C20       1.0  0.60795  0.3725700000000001  0.8015000000000002  1.0000
  C   C21       1.0  0.17221  0.12347000000000002  0.36747  1.0000
  C   C22       1.0  0.82779  0.8765300000000003  0.63253  1.0000
  C   C23       1.0  0.32737  0.6148500000000002  0.13351000000000005  1.0000
  C   C24       1.0  0.67263  0.3851500000000001  0.86649  1.0000
  C   C25       1.0  0.15877  0.07524000000000003  0.45354  1.0000
  C   C26       1.0  0.84123  0.92476  0.54646  1.0000
  C   C27       1.0  0.34093  0.56935  0.04713  1.0000
  C   C28       1.0  0.65907  0.4306500000000001  0.95287  1.0000
  C   C29       1.0  0.07980000000000001  0.038230000000000014  0.4777800000000001  1.0000
  C   C30       1.0  0.9202  0.9617800000000002  0.52222  1.0000
  C   C31       1.0  0.42005  0.5352900000000003  0.02257  1.0000
  C   C32       1.0  0.5799500000000001  0.4647100000000001  0.9774300000000002  1.0000
  C   C33       1.0  0.013330000000000002  0.05100000000000001  0.41246  1.0000
  C   C34       1.0  0.98667  0.9490000000000002  0.58754  1.0000
  C   C35       1.0  0.48651999999999995  0.5481800000000002  0.08787000000000003  1.0000
  C   C36       1.0  0.51348  0.4518200000000001  0.91213  1.0000
  C   C37       1.0  0.06663  0.9870200000000002  0.56531  1.0000
  C   C38       1.0  0.93337  0.012980000000000004  0.43469  1.0000
  C   C39       1.0  0.4333699999999999  0.48699  0.93469  1.0000
  C   C40       1.0  0.56663  0.5130100000000001  0.06531  1.0000
  C   C41       1.0  0.41594000000000003  0.98615  0.5814000000000002  1.0000
  C   C42       1.0  0.58406  0.01385  0.41860000000000014  1.0000
  C   C43       1.0  0.08407000000000003  0.48616  0.9186100000000003  1.0000
  C   C44       1.0  0.91593  0.5138400000000001  0.08139  1.0000
  N   N1        1.0  0.12198999999999999  0.18378000000000005  0.21332000000000007  1.0000
  O   O21       1.0  0.19448999999999994  0.22743000000000005  0.19315  1.0000
  O   O22       1.0  0.06298  0.18245000000000006  0.15124000000000007  1.0000
  N   N2        1.0  0.87801  0.8162200000000002  0.78668  1.0000
  O   O23       1.0  0.80551  0.77257  0.80685  1.0000
  O   O24       1.0  0.9370199999999997  0.8175400000000003  0.84876  1.0000
  N   N3        1.0  0.37751  0.6729800000000002  0.28792  1.0000
  O   O25       1.0  0.30451  0.70994  0.30883  1.0000
  O   O26       1.0  0.4369599999999999  0.6761600000000002  0.34949000000000013  1.0000
  N   N4        1.0  0.62249  0.3270200000000001  0.71208  1.0000
  O   O27       1.0  0.69549  0.29006  0.69117  1.0000
  O   O28       1.0  0.56303  0.32384000000000013  0.6505100000000003  1.0000
  H   H9        1.0  0.9793  0.10922  0.2743300000000001  1.0000
  H   H10       1.0  0.0207  0.8907800000000002  0.72567  1.0000
  H   H11       1.0  0.5204799999999999  0.6040100000000003  0.22624  1.0000
  H   H12       1.0  0.47952  0.39599  0.7737600000000002  1.0000
