data_image0
_chemical_formula_structural       C42ClCr6H17O26
_chemical_formula_sum              "C42 Cl1 Cr6 H17 O26"
_cell_length_a       10.64149
_cell_length_b       10.68543
_cell_length_c       16.9376
_cell_angle_alpha    80.82309
_cell_angle_beta     99.50130999999999
_cell_angle_gamma    118.85255

_space_group_name_H-M_alt    "P 1"
_space_group_IT_number       1

loop_
  _space_group_symop_operation_xyz
  'x, y, z'

loop_
  _atom_site_type_symbol
  _atom_site_label
  _atom_site_symmetry_multiplicity
  _atom_site_fract_x
  _atom_site_fract_y
  _atom_site_fract_z
  _atom_site_occupancy
  C   C1        1.0  0.3852  0.28551  0.63209  1.0000
  C   C2        1.0  0.3343299999999999  0.18843999999999994  0.78196  1.0000
  C   C3        1.0  0.31761  0.68232  0.28042  1.0000
  C   C4        1.0  0.41508  0.62095  0.6020499999999999  1.0000
  C   C5        1.0  0.29686  0.70659  0.20971  1.0000
  C   C6        1.0  0.80426  0.65519  0.15022  1.0000
  C   C7        1.0  0.77411  0.52672  0.19869  1.0000
  C   C8        1.0  0.76534  0.51971  0.27875  1.0000
  C   C9        1.0  0.78618  0.7566099999999999  0.26293  1.0000
  C   C10       1.0  0.7922299999999999  0.76333  0.18052  1.0000
  C   C11       1.0  0.8442299999999999  0.43045999999999995  0.214  1.0000
  C   C12       1.0  0.5179599999999999  0.7227199999999999  0.73608  1.0000
  C   C13       1.0  0.832  0.4227600000000001  0.30245  1.0000
  C   C14       1.0  0.78736  0.63906  0.31369  1.0000
  C   C15       1.0  0.26144999999999996  0.05325  0.17998  1.0000
  C   C16       1.0  0.7825499999999999  0.62171  0.62586  1.0000
  C   C17       1.0  0.15424999999999994  0.06328  0.21189  1.0000
  C   C18       1.0  0.17622  0.10107  0.28858  1.0000
  C   C19       1.0  0.40462  0.09749000000000001  0.3098799999999999  1.0000
  C   C20       1.0  0.38095  0.056620000000000004  0.23195999999999994  1.0000
  C   C21       1.0  0.07800999999999998  0.15085  0.18041999999999997  1.0000
  C   C22       1.0  0.09907  0.18979999999999997  0.26496  1.0000
  C   C23       1.0  0.49465  0.73202  0.8130699999999997  1.0000
  C   C24       1.0  0.30775  0.13305  0.33551  1.0000
  C   C25       1.0  0.94961  0.72559  0.85194  1.0000
  C   C26       1.0  0.3167599999999999  0.70477  0.8993699999999998  1.0000
  C   C27       1.0  0.28694  0.11925000000000001  0.85863  1.0000
  C   C28       1.0  0.34884000000000004  0.22212  0.40102999999999994  1.0000
  C   C29       1.0  0.88194  0.68871  0.08145  1.0000
  C   C30       1.0  0.28466  0.7389  0.12558  1.0000
  C   C31       1.0  0.24595  0.038000000000000006  0.09486  1.0000
  C   C32       1.0  0.36177999999999993  0.6570699999999999  0.36188  1.0000
  C   C33       1.0  0.7656299999999999  0.6190499999999999  0.3972  1.0000
  C   C34       1.0  0.09910999999999999  0.47396999999999995  0.77591  1.0000
  C   C35       1.0  0.35703  0.6492300000000001  0.84  1.0000
  C   C36       1.0  0.25746  0.5316299999999999  0.7985  1.0000
  C   C37       1.0  0.2817099999999999  0.5170600000000001  0.7235699999999999  1.0000
  C   C38       1.0  0.12513999999999997  0.4573399999999999  0.69366  1.0000
  C   C39       1.0  0.40458000000000005  0.62117  0.68713  1.0000
  C   C40       1.0  0.8537899999999999  0.67036  0.70227  1.0000
  C   C41       1.0  0.9012299999999999  0.70475  0.7692399999999998  1.0000
  C   C42       1.0  0.36582  0.23558  0.7147  1.0000
  Cl  Cl1       1.0  0.6821799999999999  0.8571499999999999  0.7015199999999999  1.0000
  Cr  Cr1       1.0  0.60844  0.38908  0.51968  1.0000
  Cr  Cr2       1.0  0.2886399999999999  0.4000899999999999  0.4907599999999999  1.0000
  Cr  Cr3       1.0  0.6029399999999999  0.7107999999999999  0.48951  1.0000
  Cr  Cr4       1.0  0.05252999999999996  0.94756  0.9642100000000001  1.0000
  Cr  Cr5       1.0  0.05997000000000001  0.6268  0.9929199999999999  1.0000
  Cr  Cr6       1.0  0.3733199999999998  0.9384399999999999  0.99537  1.0000
  H   H1        1.0  0.77516  0.32597  0.18813999999999995  1.0000
  H   H2        1.0  0.03558  0.36974999999999997  0.81044  1.0000
  H   H3        1.0  0.07682999999999997  0.34344  0.68085  1.0000
  H   H4        1.0  0.10236000000000003  0.52891  0.64489  1.0000
  H   H5        1.0  0.8020599999999999  0.8582  0.14245  1.0000
  H   H6        1.0  0.95878  0.4845  0.20104999999999995  1.0000
  H   H7        1.0  0.75455  0.31453  0.32738  1.0000
  H   H8        1.0  0.57865  0.81796  0.84678  1.0000
  H   H9        1.0  0.78602  0.8446599999999999  0.28687  1.0000
  H   H10       1.0  0.9381499999999998  0.4742  0.33887  1.0000
  H   H11       1.0  0.50422  0.11453  0.34637  1.0000
  H   H12       1.0  0.46191999999999994  0.04031  0.21054  1.0000
  H   H13       1.0  0.96312  0.08585999999999999  0.15885  1.0000
  H   H14       1.0  0.13975  0.24516  0.13852  1.0000
  H   H15       1.0  0.16995  0.30659  0.27003  1.0000
  H   H16       1.0  0.99646  0.14299  0.293  1.0000
  H   H17       1.0  0.0623799999999999  0.55553  0.7743599999999998  1.0000
  O   O1        1.0  0.75402  0.4975899999999999  0.60993  1.0000
  O   O2        1.0  0.40618  0.8269299999999999  0.92066  1.0000
  O   O3        1.0  0.35862000000000005  0.06287000000000001  0.90195  1.0000
  O   O4        1.0  0.48142  0.27139  0.60063  1.0000
  O   O5        1.0  0.16390999999999997  0.08546  0.050209999999999984  1.0000
  O   O6        1.0  0.9352  0.81517  0.04577  1.0000
  O   O7        1.0  0.9161199999999999  0.59669  0.06943  1.0000
  O   O8        1.0  0.19231  0.6312  0.08617  1.0000
  O   O9        1.0  0.40676999999999996  0.81948  0.09642  1.0000
  O   O10       1.0  0.35917  0.05596  0.06488  1.0000
  O   O11       1.0  0.16194000000000003  0.8376  0.98416  1.0000
  O   O12       1.0  0.29508  0.53362  0.39789  1.0000
  O   O13       1.0  0.26380999999999993  0.25455  0.58959  1.0000
  O   O14       1.0  0.3008199999999999  0.5312  0.5608899999999998  1.0000
  O   O15       1.0  0.4914799999999999  0.74402  0.56427  1.0000
  O   O16       1.0  0.72629  0.6938  0.58301  1.0000
  O   O17       1.0  0.7478299999999998  0.5001899999999999  0.43408999999999986  1.0000
  O   O18       1.0  0.47567999999999994  0.2738  0.43763  1.0000
  O   O19       1.0  0.25762  0.25716  0.41375  1.0000
  O   O20       1.0  0.48528  0.74662  0.38844  1.0000
  O   O21       1.0  0.72055  0.69622  0.42001  1.0000
  O   O22       1.0  0.50001  0.49999  0.49998  1.0000
  O   O23       1.0  0.16332000000000005  0.0929  0.87445  1.0000
  O   O24       1.0  0.93465  0.82208  0.88284  1.0000
  O   O25       1.0  0.91552  0.60414  0.89367  1.0000
  O   O26       1.0  0.1917599999999999  0.6381099999999998  0.92323  1.0000
