data_image0
_chemical_formula_structural       O4C2O4C2O2V2C32H10C2H4C2H8C6H4C6H6O4C2O4C2O2V2C2H5C2H5C2H5C2H5C2H5C2H5C2H5C2H5
_chemical_formula_sum              "O20 C72 V4 H72"
_cell_length_a       19.15119
_cell_length_b       7.13683
_cell_length_c       17.71284
_cell_angle_alpha    89.91408000000001
_cell_angle_beta     109.14108
_cell_angle_gamma    90.03396000000001

_symmetry_space_group_name_H-M    'P 1'
_symmetry_Int_Tables_number       1

loop_
  _symmetry_equiv_pos_as_xyz
  'x,y,z'

loop_
  _atom_site_type_symbol
  _atom_site_label
  _atom_site_symmetry_multiplicity
  _atom_site_fract_x
  _atom_site_fract_y
  _atom_site_fract_z
  _atom_site_occupancy
  O   O1        1.0  0.56231  0.50577  0.43967  1.0000
  O   O2        1.0  0.4376900000000001  0.00577  0.56033  1.0000
  O   O3        1.0  0.41165  0.16915  0.40533  1.0000
  O   O4        1.0  0.5883500000000002  0.66915  0.59467  1.0000
  C   C1        1.0  0.3849  0.3454  0.38279  1.0000
  C   C2        1.0  0.61532  0.84532  0.61701  1.0000
  O   O5        1.0  0.56014  0.17561000000000002  0.43001  1.0000
  O   O6        1.0  0.43986  0.67561  0.56999  1.0000
  O   O7        1.0  0.58724  0.012099999999999998  0.5852000000000003  1.0000
  O   O8        1.0  0.41276000000000007  0.5121  0.4148  1.0000
  C   C3        1.0  0.58051  0.34486  0.41473  1.0000
  C   C4        1.0  0.41933  0.84472  0.58512  1.0000
  O   O9        1.0  0.50872  0.34142  0.55089  1.0000
  O   O10       1.0  0.49128  0.84142  0.44911  1.0000
  V   V1        1.0  0.49838  0.06393  0.49056  1.0000
  V   V2        1.0  0.50162  0.56393  0.50944  1.0000
  C   C5        1.0  0.19978  0.016980000000000006  0.89046  1.0000
  C   C6        1.0  0.80018  0.51711  0.10926000000000002  1.0000
  C   C7        1.0  0.13154000000000005  0.91658  0.8663  1.0000
  C   C8        1.0  0.86819  0.41578  0.13338  1.0000
  C   C9        1.0  0.11217000000000009  0.8018900000000001  0.7964800000000001  1.0000
  C   C10       1.0  0.88706  0.29938  0.20282000000000006  1.0000
  C   C11       1.0  0.16158  0.78739  0.75163  1.0000
  C   C12       1.0  0.83748  0.28458000000000006  0.24747000000000002  1.0000
  C   C13       1.0  0.22688000000000005  0.89752  0.7728000000000003  1.0000
  C   C14       1.0  0.77258  0.39611  0.22656000000000007  1.0000
  C   C15       1.0  0.2445600000000001  0.01697  0.8400300000000003  1.0000
  C   C16       1.0  0.75529  0.51676  0.15958  1.0000
  C   C17       1.0  0.14703000000000002  0.66646  0.68498  1.0000
  C   C18       1.0  0.8514700000000001  0.16194000000000003  0.31366  1.0000
  C   C19       1.0  0.19587000000000004  0.6507  0.64206  1.0000
  C   C20       1.0  0.8025100000000002  0.14604000000000006  0.35644  1.0000
  C   C21       1.0  0.25974  0.75951  0.66199  1.0000
  C   C22       1.0  0.73916  0.25665  0.33694  1.0000
  C   C23       1.0  0.27516  0.88679  0.7265  1.0000
  C   C24       1.0  0.72429  0.38555  0.27288  1.0000
  C   C25       1.0  0.33888  0.00209  0.74446  1.0000
  C   C26       1.0  0.66104  0.50235  0.25528  1.0000
  C   C27       1.0  0.3541400000000001  0.12891  0.80922  1.0000
  C   C28       1.0  0.64594  0.62951  0.19049  1.0000
  C   C29       1.0  0.30739  0.13346  0.85577  1.0000
  C   C30       1.0  0.6927  0.6339800000000001  0.14394000000000007  1.0000
  C   C31       1.0  0.30813  0.74264  0.61779  1.0000
  C   C32       1.0  0.69069  0.23984  0.38109  1.0000
  C   C33       1.0  0.37074  0.85626  0.6347  1.0000
  C   C34       1.0  0.62896  0.35625000000000007  0.36501  1.0000
  C   C35       1.0  0.38532  0.9868800000000002  0.69696  1.0000
  C   C36       1.0  0.61486  0.48817  0.30312  1.0000
  H   H1        1.0  0.09823  0.58022  0.66473  1.0000
  H   H2        1.0  0.89994  0.07443  0.33365  1.0000
  H   H3        1.0  0.18306000000000006  0.55383  0.59226  1.0000
  H   H4        1.0  0.81488  0.04784  0.4058600000000001  1.0000
  H   H5        1.0  0.29611  0.64426  0.56877  1.0000
  H   H6        1.0  0.70183  0.139  0.42935000000000006  1.0000
  H   H7        1.0  0.43389  0.07368000000000001  0.70807  1.0000
  H   H8        1.0  0.5668  0.57659  0.29249000000000014  1.0000
  H   H9        1.0  0.32086  0.23268000000000003  0.90432  1.0000
  H   H10       1.0  0.67942  0.73371  0.09547  1.0000
  C   C37       1.0  0.74663  0.00719  0.82694  1.0000
  C   C38       1.0  0.25264000000000003  0.51568  0.17438000000000003  1.0000
  H   H11       1.0  0.73907  0.94601  0.8815700000000001  1.0000
  H   H12       1.0  0.25992000000000004  0.46443  0.11811  1.0000
  H   H13       1.0  0.75826  0.15921000000000002  0.83845  1.0000
  H   H14       1.0  0.23993  0.66805  0.16657  1.0000
  C   C39       1.0  0.6742800000000001  0.9819900000000003  0.75482  1.0000
  C   C40       1.0  0.32589000000000007  0.4862500000000001  0.24517  1.0000
  H   H15       1.0  0.65221  0.12279  0.73205  1.0000
  H   H16       1.0  0.34883  0.62565  0.26882  1.0000
  H   H17       1.0  0.63169  0.91273  0.77553  1.0000
  H   H18       1.0  0.3675700000000001  0.41799  0.22284000000000007  1.0000
  H   H19       1.0  0.7878500000000002  0.62834  0.84695  1.0000
  H   H20       1.0  0.21569000000000002  0.13581  0.14938  1.0000
  H   H21       1.0  0.67745  0.60606  0.74862  1.0000
  H   H22       1.0  0.32505  0.11036000000000001  0.24912000000000004  1.0000
  C   C41       1.0  0.7922100000000001  0.69869  0.79261  1.0000
  C   C42       1.0  0.20999  0.19901000000000002  0.20436  1.0000
  C   C43       1.0  0.82141  0.99773  0.734  1.0000
  C   C44       1.0  0.17763  0.4854700000000001  0.2672  1.0000
  C   C45       1.0  0.81273  0.91081  0.81058  1.0000
  C   C46       1.0  0.18740000000000004  0.4103  0.18928000000000006  1.0000
  H   H23       1.0  0.8704500000000001  0.93522  0.72382  1.0000
  H   H24       1.0  0.13234  0.40745  0.27959  1.0000
  H   H25       1.0  0.83362  0.15008  0.7436200000000002  1.0000
  H   H26       1.0  0.1599  0.63478  0.25893  1.0000
  C   C47       1.0  0.6879000000000001  0.8641  0.6866300000000002  1.0000
  C   C48       1.0  0.31283  0.36443  0.31273  1.0000
  C   C49       1.0  0.7181000000000001  0.6726400000000001  0.72414  1.0000
  C   C50       1.0  0.28359  0.17328  0.27333  1.0000
  C   C51       1.0  0.74896  0.9709700000000001  0.66098  1.0000
  C   C52       1.0  0.2517  0.46937  0.33851  1.0000
  H   H27       1.0  0.7265200000000003  0.11502  0.64454  1.0000
  H   H28       1.0  0.27176000000000006  0.61638  0.35172  1.0000
  H   H29       1.0  0.83686  0.62606  0.7767200000000002  1.0000
  H   H30       1.0  0.16585  0.11951  0.21865  1.0000
  H   H31       1.0  0.7244200000000001  0.57393  0.67859  1.0000
  H   H32       1.0  0.27647  0.06974  0.31667000000000006  1.0000
  O   O11       1.0  0.08722  0.27182  0.08523000000000001  1.0000
  O   O12       1.0  0.91278  0.77182  0.91477  1.0000
  O   O13       1.0  0.9398600000000001  0.59554  0.06999  1.0000
  O   O14       1.0  0.06014  0.09554  0.93001  1.0000
  C   C53       1.0  0.91849  0.42639  0.08448  1.0000
  C   C54       1.0  0.08145999999999996  0.9266  0.91545  1.0000
  O   O15       1.0  0.08834000000000002  0.60193  0.09468  1.0000
  O   O16       1.0  0.9116600000000001  0.10193  0.90532  1.0000
  O   O17       1.0  0.06230999999999998  0.7654100000000001  0.93966  1.0000
  O   O18       1.0  0.9376900000000001  0.26541  0.06033999999999999  1.0000
  C   C55       1.0  0.11598000000000003  0.43135  0.11803  1.0000
  C   C56       1.0  0.8839900000000002  0.93148  0.88202  1.0000
  O   O19       1.0  0.99127  0.42963  0.94913  1.0000
  O   O20       1.0  0.008729999999999996  0.9296300000000001  0.05087  1.0000
  V   V3        1.0  0.00162  0.70715  0.00944  1.0000
  V   V4        1.0  0.99838  0.20715  0.9905599999999999  1.0000
  C   C57       1.0  0.22781000000000007  0.11206  0.9726000000000001  1.0000
  C   C58       1.0  0.29365  0.00668  0.02979  1.0000
  H   H33       1.0  0.27643  0.8632500000000001  0.04068  1.0000
  H   H34       1.0  0.34016  0.99566  0.00579  1.0000
  H   H35       1.0  0.31382  0.08188000000000001  0.08776  1.0000
  H   H36       1.0  0.24193  0.26093  0.96678  1.0000
  H   H37       1.0  0.18625  0.1186  0.00325  1.0000
  C   C59       1.0  0.7725  0.61364  0.027270000000000003  1.0000
  C   C60       1.0  0.70657  0.50962  0.9696900000000002  1.0000
  H   H38       1.0  0.72332  0.36543  0.9593800000000001  1.0000
  H   H39       1.0  0.6595800000000002  0.50067  0.9930299999999999  1.0000
  H   H40       1.0  0.68739  0.58454  0.91151  1.0000
  H   H41       1.0  0.75866  0.76253  0.03333  1.0000
  H   H42       1.0  0.8141200000000002  0.62032  0.99667  1.0000
  C   C61       1.0  0.76198  0.8985  0.58344  1.0000
  C   C62       1.0  0.8190100000000001  0.74176  0.5925300000000002  1.0000
  H   H43       1.0  0.8759100000000001  0.7998600000000001  0.61227  1.0000
  H   H44       1.0  0.8154900000000003  0.63163  0.63481  1.0000
  H   H45       1.0  0.80987  0.67505  0.53345  1.0000
  H   H46       1.0  0.70887  0.85275  0.53929  1.0000
  H   H47       1.0  0.78095  0.018970000000000008  0.55534  1.0000
  C   C63       1.0  0.24061  0.40511  0.4177  1.0000
  C   C64       1.0  0.21670000000000003  0.20175  0.42141  1.0000
  H   H48       1.0  0.17409  0.15759  0.36504  1.0000
  H   H49       1.0  0.2653  0.10725  0.4359200000000001  1.0000
  H   H50       1.0  0.19297  0.18695  0.47053  1.0000
  H   H51       1.0  0.29263  0.42802  0.46807  1.0000
  H   H52       1.0  0.19835  0.49769000000000013  0.42893  1.0000
  C   C65       1.0  0.038290000000000074  0.69754  0.7692500000000002  1.0000
  C   C66       1.0  0.04740000000000002  0.49152  0.7951700000000002  1.0000
  H   H53       1.0  0.07879  0.41168  0.76333  1.0000
  H   H54       1.0  0.07752000000000009  0.47924  0.8601400000000002  1.0000
  H   H55       1.0  0.9921100000000003  0.42573  0.78186  1.0000
  H   H56       1.0  0.9970600000000001  0.76352  0.7925  1.0000
  H   H57       1.0  0.011790000000000005  0.70827  0.70353  1.0000
  C   C67       1.0  0.96057  0.19337  0.22987  1.0000
  C   C68       1.0  0.9507600000000002  0.98803  0.20322000000000007  1.0000
  H   H58       1.0  0.91892  0.90799  0.23459  1.0000
  H   H59       1.0  0.9207800000000002  0.97759  0.13816  1.0000
  H   H60       1.0  0.005820000000000001  0.92105  0.21649000000000002  1.0000
  H   H61       1.0  0.002120000000000002  0.25925  0.207  1.0000
  H   H62       1.0  0.98702  0.20235  0.29566  1.0000
  C   C69       1.0  0.4198000000000001  0.26153  0.8313200000000002  1.0000
  C   C70       1.0  0.4043200000000001  0.4321  0.7761400000000003  1.0000
  H   H63       1.0  0.39165999999999995  0.38985  0.71278  1.0000
  H   H64       1.0  0.35671  0.51173  0.78234  1.0000
  H   H65       1.0  0.45344  0.52538  0.79285  1.0000
  H   H66       1.0  0.43234  0.31287  0.8936200000000002  1.0000
  H   H67       1.0  0.47068000000000004  0.18825  0.83063  1.0000
  C   C71       1.0  0.58028  0.76205  0.16815  1.0000
  C   C72       1.0  0.59594  0.9334500000000001  0.22263  1.0000
  H   H68       1.0  0.6090300000000002  0.89214  0.2862  1.0000
  H   H69       1.0  0.64333  0.01294  0.21569000000000005  1.0000
  H   H70       1.0  0.5467500000000001  0.02647  0.20589000000000002  1.0000
  H   H71       1.0  0.56749  0.8122900000000001  0.10561  1.0000
  H   H72       1.0  0.52948  0.68905  0.16939  1.0000
