data_image0
_chemical_formula_structural       C37Cu2H26N2O8
_chemical_formula_sum              "C37 Cu2 H26 N2 O8"
_cell_length_a       10.88014
_cell_length_b       10.75602
_cell_length_c       9.56347
_cell_angle_alpha    90.26775
_cell_angle_beta     91.51953
_cell_angle_gamma    89.76351

_space_group_name_H-M_alt    "P 1"
_space_group_IT_number       1

loop_
  _space_group_symop_operation_xyz
  'x, y, z'

loop_
  _atom_site_type_symbol
  _atom_site_label
  _atom_site_symmetry_multiplicity
  _atom_site_fract_x
  _atom_site_fract_y
  _atom_site_fract_z
  _atom_site_occupancy
  C   C1        1.0  0.49988  0.26277  0.4994799999999999  1.0000
  C   C2        1.0  0.82106  0.51524  0.98878  1.0000
  C   C3        1.0  0.82164  0.39303999999999994  0.03793  1.0000
  C   C4        1.0  0.26221  0.4994799999999999  0.49770000000000003  1.0000
  C   C5        1.0  0.8569999999999999  0.29558  0.95049  1.0000
  C   C6        1.0  0.89319  0.32036  0.81432  1.0000
  C   C7        1.0  0.8922699999999993  0.44279999999999997  0.76426  1.0000
  C   C8        1.0  0.60626  0.06361  0.52508  1.0000
  C   C9        1.0  0.49888  0.12981  0.49596  1.0000
  C   C10       1.0  0.39409  0.06662999999999998  0.4460200000000001  1.0000
  C   C11       1.0  0.392  0.9360499999999998  0.4466  1.0000
  C   C12       1.0  0.17386000000000001  0.60205  0.95848  1.0000
  C   C13       1.0  0.49708  0.87087  0.49762999999999996  1.0000
  C   C14       1.0  0.60538  0.93594  0.52618  1.0000
  C   C15       1.0  0.69432  0.93037  0.64766  1.0000
  C   C16       1.0  0.49996999999999997  0.7373599999999999  0.50005  1.0000
  C   C17       1.0  0.69557  0.07172999999999999  0.64554  1.0000
  C   C18       1.0  0.47005  0.60479  0.07332  1.0000
  C   C19       1.0  0.521  0.39365999999999995  0.07422  1.0000
  C   C20       1.0  0.52132  0.39369  0.92591  1.0000
  C   C21       1.0  0.47075999999999996  0.60486  0.92614  1.0000
  C   C22       1.0  0.53601  0.72626  0.9240600000000001  1.0000
  C   C23       1.0  0.9297099999999999  0.53079  0.3817  1.0000
  C   C24       1.0  0.53363  0.7271199999999999  0.08232  1.0000
  C   C25       1.0  0.73776  0.5001199999999999  0.50221  1.0000
  C   C26       1.0  0.13134  0.6989299999999999  0.04226  1.0000
  C   C27       1.0  0.09683  0.6752899999999997  0.17926  1.0000
  C   C28       1.0  0.1068  0.55472  0.23413000000000003  1.0000
  C   C29       1.0  0.14875  0.45751  0.149  1.0000
  C   C30       1.0  0.18293  0.4814499999999999  0.0119  1.0000
  C   C31       1.0  0.27708  0.8686  0.39947  1.0000
  C   C32       1.0  0.87173  0.50135  0.50585  1.0000
  C   C33       1.0  0.9432499999999999  0.4705  0.62637  1.0000
  C   C34       1.0  0.07014  0.46718  0.61765  1.0000
  C   C35       1.0  0.12821  0.4971699999999999  0.4936  1.0000
  C   C36       1.0  0.05657  0.52743  0.37274  1.0000
  C   C37       1.0  0.8567799999999999  0.5403499999999999  0.8526  1.0000
  Cu  Cu1       1.0  0.49999  0.49997999999999987  0.64067  1.0000
  Cu  Cu2       1.0  0.50001  0.50002  0.35933  1.0000
  H   H1        1.0  0.2002  0.62071  0.8523600000000001  1.0000
  H   H2        1.0  0.54101  0.30796  0.12874  1.0000
  H   H3        1.0  0.12387  0.7920899999999997  0.00055  1.0000
  H   H4        1.0  0.54168  0.30799999999999994  0.8719  1.0000
  H   H5        1.0  0.6303  0.71706  0.88322  1.0000
  H   H6        1.0  0.47834  0.80088  0.8756799999999999  1.0000
  H   H7        1.0  0.62638  0.72102  0.13343  1.0000
  H   H8        1.0  0.47335999999999995  0.8013099999999997  0.12445000000000002  1.0000
  H   H9        1.0  0.06069  0.75038  0.24204  1.0000
  H   H10       1.0  0.15336  0.36327999999999994  0.18832  1.0000
  H   H11       1.0  0.21598  0.40641999999999995  0.94698  1.0000
  H   H12       1.0  0.79453  0.37373  0.14365  1.0000
  H   H13       1.0  0.87575  0.55652  0.28957  1.0000
  H   H14       1.0  0.12394999999999999  0.44098  0.70979  1.0000
  H   H15       1.0  0.8587  0.63565  0.81661  1.0000
  H   H16       1.0  0.79406  0.59072  0.056440000000000004  1.0000
  H   H17       1.0  0.24369  0.8098299999999999  0.48564  1.0000
  H   H18       1.0  0.20239  0.93422  0.36798  1.0000
  H   H19       1.0  0.29729  0.8087299999999998  0.3081  1.0000
  H   H20       1.0  0.85782  0.20105  0.9887900000000001  1.0000
  H   H21       1.0  0.9242199999999998  0.24476999999999993  0.74882  1.0000
  H   H22       1.0  0.31319  0.11884999999999998  0.41248  1.0000
  H   H23       1.0  0.65304  0.89272  0.74313  1.0000
  H   H24       1.0  0.78356  0.88779  0.61919  1.0000
  H   H25       1.0  0.65549  0.11519999999999998  0.73983  1.0000
  H   H26       1.0  0.7850899999999997  0.11048  0.61397  1.0000
  N   N1        1.0  0.50079  0.50093  0.14793  1.0000
  N   N2        1.0  0.50079  0.50089  0.85202  1.0000
  O   O1        1.0  0.5  0.31964  0.61881  1.0000
  O   O2        1.0  0.50001  0.31968  0.38123  1.0000
  O   O3        1.0  0.31964  0.49999  0.61879  1.0000
  O   O4        1.0  0.31965  0.50003  0.38121  1.0000
  O   O5        1.0  0.49999  0.6803199999999999  0.61877  1.0000
  O   O6        1.0  0.5  0.68036  0.38119  1.0000
  O   O7        1.0  0.68035  0.49996999999999997  0.61879  1.0000
  O   O8        1.0  0.68036  0.50001  0.38121  1.0000
