data_image0
_chemical_formula_structural       C36Cr6H7O26Cl5
_chemical_formula_sum              "C36 Cr6 H7 O26 Cl5"
_cell_length_a       10.47771
_cell_length_b       10.64826
_cell_length_c       17.01922
_cell_angle_alpha    80.37754
_cell_angle_beta     89.70009
_cell_angle_gamma    118.97624999999998

_symmetry_space_group_name_H-M    'P 1'
_symmetry_Int_Tables_number       1

loop_
  _symmetry_equiv_pos_as_xyz
  'x,y,z'

loop_
  _atom_site_type_symbol
  _atom_site_label
  _atom_site_symmetry_multiplicity
  _atom_site_fract_x
  _atom_site_fract_y
  _atom_site_fract_z
  _atom_site_occupancy
  C   C1        1.0  0.27970999999999996  0.88913  0.13271000000000005  1.0000
  C   C2        1.0  0.71236  0.24017999999999995  0.30932  1.0000
  C   C3        1.0  0.70034  0.20757999999999996  0.23357  1.0000
  C   C4        1.0  0.60633  0.23352  0.18402000000000004  1.0000
  C   C5        1.0  0.6855899999999999  0.8314799999999999  0.20159000000000005  1.0000
  C   C6        1.0  0.70402  0.80705  0.27038  1.0000
  C   C7        1.0  0.2290699999999998  0.8547099999999996  0.21558  1.0000
  C   C8        1.0  0.18024999999999997  0.83487  0.2833200000000001  1.0000
  C   C9        1.0  0.6629099999999999  0.3581599999999999  0.78039  1.0000
  C   C10       1.0  0.6855199999999999  0.40282999999999997  0.70985  1.0000
  C   C11       1.0  0.6321499999999998  0.7128999999999999  0.80465  1.0000
  C   C12       1.0  0.6090499999999999  0.20907999999999996  0.10239000000000002  1.0000
  C   C13       1.0  0.6157599999999999  0.69917  0.726  1.0000
  C   C14       1.0  0.66864  0.82378  0.66508  1.0000
  C   C15       1.0  0.7438599999999997  0.9641599999999998  0.6830300000000002  1.0000
  C   C16       1.0  0.7552699999999999  0.97806  0.7624  1.0000
  C   C17       1.0  0.6928399999999999  0.85253  0.82335  1.0000
  C   C18       1.0  0.27517999999999987  0.9970999999999999  0.74685  1.0000
  C   C19       1.0  0.24558  0.97596  0.67002  1.0000
  C   C20       1.0  0.19121000000000005  0.83692  0.65153  1.0000
  C   C21       1.0  0.1935499999999998  0.7252999999999997  0.70569  1.0000
  C   C22       1.0  0.2329199999999999  0.7463199999999999  0.7821200000000003  1.0000
  C   C23       1.0  0.6437  0.85567  0.12414999999999998  1.0000
  C   C24       1.0  0.26424999999999993  0.88074  0.80554  1.0000
  C   C25       1.0  0.7116999999999999  0.7723099999999999  0.3535600000000001  1.0000
  C   C26       1.0  0.68095  0.38169999999999993  0.4006  1.0000
  C   C27       1.0  0.10899000000000016  0.81263  0.36012  1.0000
  C   C28       1.0  0.6767399999999999  0.8009899999999999  0.58499  1.0000
  C   C29       1.0  0.7177999999999998  0.44708999999999993  0.62594  1.0000
  C   C30       1.0  0.10637000000000003  0.8055999999999999  0.58336  1.0000
  C   C31       1.0  0.28892  0.90289  0.88813  1.0000
  C   C32       1.0  0.64027  0.2901999999999999  0.8617200000000003  1.0000
  C   C33       1.0  0.64858  0.86636  0.90006  1.0000
  C   C34       1.0  0.5103499999999999  0.27684999999999993  0.21523000000000006  1.0000
  C   C35       1.0  0.5249  0.31066  0.291  1.0000
  C   C36       1.0  0.6320099999999998  0.30159999999999987  0.3358100000000001  1.0000
  Cr  Cr1       1.0  0.40224  0.78389  0.019450000000000005  1.0000
  Cr  Cr2       1.0  0.38236  0.09790000000000003  0.9918  1.0000
  Cr  Cr3       1.0  0.71538  0.11817  0.9887  1.0000
  Cr  Cr4       1.0  0.9366499999999999  0.88242  0.46551  1.0000
  Cr  Cr5       1.0  0.60577  0.56562  0.4933600000000001  1.0000
  Cr  Cr6       1.0  0.9213400000000002  0.5504900000000001  0.49637999999999993  1.0000
  H   H1        1.0  0.25045999999999996  0.06583000000000001  0.62684  1.0000
  H   H2        1.0  0.15596999999999991  0.6188199999999999  0.69043  1.0000
  H   H3        1.0  0.45992999999999995  0.35461999999999994  0.3121700000000001  1.0000
  H   H4        1.0  0.79274  0.22774  0.3446  1.0000
  H   H5        1.0  0.7687999999999999  0.16721999999999995  0.2125  1.0000
  H   H6        1.0  0.56544  0.59033  0.71245  1.0000
  H   H7        1.0  0.80267  0.08665999999999999  0.77621  1.0000
  O   O1        1.0  0.5217799999999998  0.7571099999999998  0.1089  1.0000
  O   O2        1.0  0.51333  0.22833000000000003  0.89866  1.0000
  O   O3        1.0  0.7392299999999999  0.26612999999999987  0.8880500000000002  1.0000
  O   O4        1.0  0.71258  0.99185  0.91877  1.0000
  O   O5        1.0  0.49999  0.99998  0.9999800000000001  1.0000
  O   O6        1.0  0.08377000000000004  0.9111699999999999  0.3760300000000001  1.0000
  O   O7        1.0  0.80877  0.88034  0.38389  1.0000
  O   O8        1.0  0.5843399999999997  0.6894599999999997  0.39416  1.0000
  O   O9        1.0  0.61432  0.44394  0.42359  1.0000
  O   O10       1.0  0.8050199999999997  0.4100399999999999  0.42134  1.0000
  O   O11       1.0  0.049239999999999895  0.6854499999999998  0.4032900000000001  1.0000
  O   O12       1.0  0.27516000000000007  0.78381  0.10112000000000003  1.0000
  O   O13       1.0  0.07751999999999988  0.9030099999999999  0.5518  1.0000
  O   O14       1.0  0.8029799999999998  0.8727799999999999  0.54683  1.0000
  O   O15       1.0  0.5780899999999999  0.6813  0.56992  1.0000
  O   O16       1.0  0.6085299999999999  0.4363699999999999  0.5865300000000002  1.0000
  O   O17       1.0  0.79877  0.40188  0.5971  1.0000
  O   O18       1.0  0.04344999999999999  0.67789  0.56623  1.0000
  O   O19       1.0  0.8212499999999998  0.66618  0.4850900000000001  1.0000
  O   O20       1.0  0.23789999999999997  0.9725999999999999  0.09098  1.0000
  O   O21       1.0  0.5111899999999999  0.22053999999999999  0.06162  1.0000
  O   O22       1.0  0.7369199999999998  0.25772  0.06384  1.0000
  O   O23       1.0  0.7104499999999998  0.9840499999999999  0.08172  1.0000
  O   O24       1.0  0.5240899999999998  0.76552  0.93311  1.0000
  O   O25       1.0  0.27730000000000005  0.7916000000000001  0.93816  1.0000
  O   O26       1.0  0.2402100000000001  0.9810100000000003  0.91519  1.0000
  Cl  Cl1       1.0  0.3772699999999998  0.30282  0.16268  1.0000
  Cl  Cl2       1.0  0.22817999999999997  0.59367  0.8448300000000002  1.0000
  Cl  Cl3       1.0  0.5667399999999999  0.5524099999999998  0.87855  1.0000
  Cl  Cl4       1.0  0.81976  0.12364  0.60813  1.0000
  Cl  Cl5       1.0  0.3114999999999999  0.1687999999999999  0.7656300000000003  1.0000
