data_image0
_chemical_formula_structural       C42Cu2H20N2O8F4
_chemical_formula_sum              "C42 Cu2 H20 N2 O8 F4"
_cell_length_a       10.86375
_cell_length_b       10.87109
_cell_length_c       10.43268
_cell_angle_alpha    90.68588
_cell_angle_beta     90.39825
_cell_angle_gamma    90.30709

_space_group_name_H-M_alt    "P 1"
_space_group_IT_number       1

loop_
  _space_group_symop_operation_xyz
  'x, y, z'

loop_
  _atom_site_type_symbol
  _atom_site_label
  _atom_site_symmetry_multiplicity
  _atom_site_fract_x
  _atom_site_fract_y
  _atom_site_fract_z
  _atom_site_occupancy
  C   C1        1.0  0.49618  0.26149  0.49893  1.0000
  C   C2        1.0  0.50386  0.7385  0.50107  1.0000
  C   C3        1.0  0.87197  0.49463  0.50167  1.0000
  C   C4        1.0  0.12802  0.50526  0.49832  1.0000
  C   C5        1.0  0.9398  0.45255000000000006  0.60836  1.0000
  C   C6        1.0  0.06017999999999999  0.54731  0.39161  1.0000
  C   C7        1.0  0.27527  0.20544000000000004  0.1264  1.0000
  C   C8        1.0  0.72561  0.79624  0.8739  1.0000
  C   C9        1.0  0.31345  0.1614  0.24558  1.0000
  C   C10       1.0  0.68729  0.84003  0.75466  1.0000
  C   C11       1.0  0.43258  0.11353000000000003  0.26065  1.0000
  C   C12       1.0  0.56763  0.88648  0.73922  1.0000
  C   C13       1.0  0.51233  0.11039  0.15526  1.0000
  C   C14       1.0  0.48743  0.88834  0.84426  1.0000
  C   C15       1.0  0.47378  0.15553000000000003  0.03671  1.0000
  C   C16       1.0  0.5261  0.84339  0.9628499999999999  1.0000
  C   C17       1.0  0.35537  0.20292000000000002  0.02224  1.0000
  C   C18       1.0  0.64507  0.7974800000000001  0.9777  1.0000
  C   C19       1.0  0.4788  0.9318  0.38803  1.0000
  C   C20       1.0  0.52133  0.06819000000000001  0.61192  1.0000
  C   C21       1.0  0.50583  0.8721  0.50282  1.0000
  C   C22       1.0  0.49424  0.1279  0.49715  1.0000
  C   C23       1.0  0.26157  0.50352  0.49939  1.0000
  C   C24       1.0  0.73843  0.49645  0.50061  1.0000
  C   C25       1.0  0.52906  0.94119  0.61614  1.0000
  C   C26       1.0  0.47105  0.05881000000000001  0.3838  1.0000
  C   C27       1.0  0.50001  0.5000100000000001  0.07196  1.0000
  C   C28       1.0  0.49998000000000004  0.5  0.92804  1.0000
  C   C29       1.0  0.22675  0.7696  0.17553  1.0000
  C   C30       1.0  0.77321  0.23044  0.8246700000000001  1.0000
  C   C31       1.0  0.1754  0.71737  0.28491  1.0000
  C   C32       1.0  0.8250000000000001  0.28235  0.71532  1.0000
  C   C33       1.0  0.11801  0.60141  0.27702  1.0000
  C   C34       1.0  0.88189  0.39858000000000005  0.72297  1.0000
  C   C35       1.0  0.11302  0.53841  0.15866  1.0000
  C   C36       1.0  0.88593  0.46216  0.84102  1.0000
  C   C37       1.0  0.16691  0.58986  0.05028  1.0000
  C   C38       1.0  0.8316600000000001  0.41101  0.9493499999999999  1.0000
  C   C39       1.0  0.22296  0.70564  0.05848999999999999  1.0000
  C   C40       1.0  0.77608  0.29496  0.9414  1.0000
  C   C41       1.0  0.93271  0.5405200000000001  0.3943900000000001  1.0000
  C   C42       1.0  0.06727  0.45935  0.6056  1.0000
  Cu  Cu1       1.0  0.5  0.5  0.6253  1.0000
  Cu  Cu2       1.0  0.5  0.5  0.3747  1.0000
  H   H1        1.0  0.26282  0.7459300000000001  0.9739  1.0000
  H   H2        1.0  0.73583  0.25495  0.025939999999999998  1.0000
  H   H3        1.0  0.60376  0.07214  0.16475  1.0000
  H   H4        1.0  0.3955699999999999  0.92552  0.8344699999999999  1.0000
  H   H5        1.0  0.53498  0.15225000000000002  0.95549  1.0000
  H   H6        1.0  0.46458  0.84574  0.04383  1.0000
  H   H7        1.0  0.4605  0.8792400000000001  0.30099  1.0000
  H   H8        1.0  0.53971  0.12074000000000001  0.69896  1.0000
  H   H9        1.0  0.26884  0.8599300000000002  0.18125  1.0000
  H   H10       1.0  0.73143  0.13995  0.81913  1.0000
  H   H11       1.0  0.17917  0.7675600000000001  0.3752  1.0000
  H   H12       1.0  0.82189  0.23175  0.62525  1.0000
  H   H13       1.0  0.16455  0.54038  0.95962  1.0000
  H   H14       1.0  0.83328  0.46094  0.03976  1.0000
  H   H15       1.0  0.88064  0.57448  0.31317  1.0000
  H   H16       1.0  0.11933  0.42541  0.68684  1.0000
  H   H17       1.0  0.32542  0.23691000000000004  0.9301  1.0000
  H   H18       1.0  0.67512  0.7636900000000001  0.06989  1.0000
  H   H19       1.0  0.18296  0.23993  0.11412000000000001  1.0000
  H   H20       1.0  0.8183599999999999  0.763  0.8865  1.0000
  N   N1        1.0  0.50001  0.49999000000000005  0.18641  1.0000
  N   N2        1.0  0.49998999999999993  0.5000100000000001  0.81359  1.0000
  O   O1        1.0  0.49998999999999993  0.31965  0.60581  1.0000
  O   O2        1.0  0.5000099999999998  0.68035  0.39419  1.0000
  O   O3        1.0  0.49998999999999993  0.31964000000000004  0.39419  1.0000
  O   O4        1.0  0.50001  0.68036  0.60581  1.0000
  O   O5        1.0  0.31964  0.5000100000000001  0.60581  1.0000
  O   O6        1.0  0.68036  0.49999000000000005  0.39419  1.0000
  O   O7        1.0  0.31965  0.5000100000000001  0.39419  1.0000
  O   O8        1.0  0.68035  0.49999000000000005  0.60581  1.0000
  F   F1        1.0  0.05620000000000001  0.42735  0.14869  1.0000
  F   F2        1.0  0.94211  0.57358  0.8507  1.0000
  F   F3        1.0  0.23385  0.16307  0.34529  1.0000
  F   F4        1.0  0.7673  0.8396400000000002  0.65529  1.0000
