data_image0
_chemical_formula_structural       Zn24H156C288O78
_chemical_formula_sum              "Zn24 H156 C288 O78"
_cell_length_a       30.64335
_cell_length_b       30.644079999999995
_cell_length_c       30.642480000000003
_cell_angle_alpha    89.99525000000001
_cell_angle_beta     90.27518999999998
_cell_angle_gamma    90.22764000000001

_space_group_name_H-M_alt    "P 1"
_space_group_IT_number       1

loop_
  _space_group_symop_operation_xyz
  'x, y, z'

loop_
  _atom_site_type_symbol
  _atom_site_label
  _atom_site_symmetry_multiplicity
  _atom_site_fract_x
  _atom_site_fract_y
  _atom_site_fract_z
  _atom_site_occupancy
  Zn  Zn1       1.0  0.49896  0.05341999999999999  0.2154  1.0000
  Zn  Zn2       1.0  0.21069  0.4990999999999999  0.05109  1.0000
  Zn  Zn3       1.0  0.05111  0.21067999999999998  0.49904  1.0000
  Zn  Zn4       1.0  0.49921  0.9489599999999998  0.21056  1.0000
  Zn  Zn5       1.0  0.50079  0.05104  0.78944  1.0000
  Zn  Zn6       1.0  0.21528  0.49916  0.94667  1.0000
  Zn  Zn7       1.0  0.7847100000000002  0.5008399999999998  0.05333  1.0000
  Zn  Zn8       1.0  0.94678  0.21531999999999996  0.50048  1.0000
  Zn  Zn9       1.0  0.05322000000000002  0.7846899999999998  0.49954  1.0000
  Zn  Zn10      1.0  0.4489100000000001  0.99934  0.28928  1.0000
  Zn  Zn11      1.0  0.5533  0.9991499999999999  0.2847  1.0000
  Zn  Zn12      1.0  0.4466900000000001  0.0008499999999999997  0.71529  1.0000
  Zn  Zn13      1.0  0.5510900000000002  0.0006599999999999998  0.71071  1.0000
  Zn  Zn14      1.0  0.99897  0.7106299999999998  0.55107  1.0000
  Zn  Zn15      1.0  0.9994700000000001  0.7153799999999998  0.44669  1.0000
  Zn  Zn16      1.0  0.00054  0.28463  0.55332  1.0000
  Zn  Zn17      1.0  0.001029999999999999  0.2893699999999999  0.4489299999999999  1.0000
  Zn  Zn18      1.0  0.7153  0.44667  0.9991499999999999  1.0000
  Zn  Zn19      1.0  0.7106700000000002  0.55109  0.99908  1.0000
  Zn  Zn20      1.0  0.2893300000000001  0.4489199999999999  0.00092  1.0000
  Zn  Zn21      1.0  0.2847  0.5533299999999998  0.00085  1.0000
  Zn  Zn22      1.0  0.5010400000000003  0.94658  0.7846  1.0000
  Zn  Zn23      1.0  0.7893100000000002  0.5009  0.9489199999999998  1.0000
  Zn  Zn24      1.0  0.94889  0.7893299999999998  0.50096  1.0000
  H   H1        1.0  0.50002  0.94025  0.06891  1.0000
  H   H2        1.0  0.49998  0.059749999999999984  0.93108  1.0000
  H   H3        1.0  0.06920000000000003  0.5000199999999998  0.05975  1.0000
  H   H4        1.0  0.9308  0.49998  0.94026  1.0000
  H   H5        1.0  0.05973000000000001  0.06916999999999997  0.5  1.0000
  H   H6        1.0  0.9402700000000003  0.93084  0.5  1.0000
  H   H7        1.0  0.4402600000000001  2e-05  0.43079  1.0000
  H   H8        1.0  0.55975  0.9999799999999999  0.5691999999999998  1.0000
  H   H9        1.0  9.999999999998464e-06  0.5689099999999998  0.55977  1.0000
  H   H10       1.0  0.9999900000000002  0.43109999999999987  0.44024  1.0000
  H   H11       1.0  0.56917  0.55973  2e-05  1.0000
  H   H12       1.0  0.43083  0.4402699999999999  0.9999799999999999  1.0000
  H   H13       1.0  0.50003  0.07926999999999997  0.08688  1.0000
  H   H14       1.0  0.49997  0.9207299999999998  0.91312  1.0000
  H   H15       1.0  0.08651  0.5000299999999998  0.92073  1.0000
  H   H16       1.0  0.9134900000000002  0.4999699999999999  0.07927999999999998  1.0000
  H   H17       1.0  0.92071  0.08654999999999997  0.50003  1.0000
  H   H18       1.0  0.07929000000000003  0.91346  0.4999699999999999  1.0000
  H   H19       1.0  0.57927  2.000000000000001e-05  0.4134899999999999  1.0000
  H   H20       1.0  0.42072  0.9999799999999999  0.58651  1.0000
  H   H21       1.0  2.999999999999947e-05  0.5868799999999997  0.42073  1.0000
  H   H22       1.0  0.99996  0.4131299999999999  0.57927  1.0000
  H   H23       1.0  0.5865500000000002  0.42071  3e-05  1.0000
  H   H24       1.0  0.4134500000000001  0.5792999999999998  0.99997  1.0000
  H   H25       1.0  0.5  0.09067999999999997  0.00647  1.0000
  H   H26       1.0  0.5  0.90933  0.99353  1.0000
  H   H27       1.0  0.00604  0.4999999999999999  0.90932  1.0000
  H   H28       1.0  0.9939500000000002  0.4999999999999999  0.09069  1.0000
  H   H29       1.0  0.90932  0.006089999999999998  0.5  1.0000
  H   H30       1.0  0.09068000000000002  0.99391  0.5  1.0000
  H   H31       1.0  0.59068  7.076151281104377e-21  0.4939599999999999  1.0000
  H   H32       1.0  0.40932  0.0  0.50604  1.0000
  H   H33       1.0  0.0  0.50647  0.40933  1.0000
  H   H34       1.0  0.0  0.49353999999999987  0.59067  1.0000
  H   H35       1.0  0.50609  0.4093199999999999  0.0  1.0000
  H   H36       1.0  0.4939000000000001  0.59068  0.0  1.0000
  H   H37       1.0  0.7495600000000002  0.80729  0.30722  1.0000
  H   H38       1.0  0.24962000000000006  0.19278999999999993  0.30744  1.0000
  H   H39       1.0  0.24954  0.80703  0.69265  1.0000
  H   H40       1.0  0.7496000000000002  0.19253999999999993  0.69302  1.0000
  H   H41       1.0  0.3072  0.7500199999999998  0.80719  1.0000
  H   H42       1.0  0.3068400000000001  0.24991999999999995  0.19301999999999997  1.0000
  H   H43       1.0  0.6927100000000003  0.2500799999999999  0.80714  1.0000
  H   H44       1.0  0.69235  0.74998  0.19234  1.0000
  H   H45       1.0  0.8071600000000002  0.30739  0.74998  1.0000
  H   H46       1.0  0.19274  0.30728  0.24996  1.0000
  H   H47       1.0  0.8068700000000002  0.6931599999999998  0.25005  1.0000
  H   H48       1.0  0.19229  0.69253  0.75003  1.0000
  H   H49       1.0  0.25043  0.19271999999999995  0.69279  1.0000
  H   H50       1.0  0.75038  0.8072099999999998  0.69256  1.0000
  H   H51       1.0  0.7504600000000002  0.19297  0.30735  1.0000
  H   H52       1.0  0.2504  0.80746  0.30698  1.0000
  H   H53       1.0  0.6928000000000002  0.24997999999999995  0.19281  1.0000
  H   H54       1.0  0.69316  0.7500799999999997  0.80698  1.0000
  H   H55       1.0  0.3072900000000001  0.74992  0.19285999999999998  1.0000
  H   H56       1.0  0.30765  0.25002999999999986  0.80767  1.0000
  H   H57       1.0  0.19284  0.6926199999999998  0.25002  1.0000
  H   H58       1.0  0.80726  0.69272  0.75004  1.0000
  H   H59       1.0  0.19313  0.30684  0.7499599999999997  1.0000
  H   H60       1.0  0.8077100000000003  0.3074699999999999  0.24998  1.0000
  H   H61       1.0  0.57673  0.8336899999999998  0.21758  1.0000
  H   H62       1.0  0.42198000000000013  0.16543  0.21937  1.0000
  H   H63       1.0  0.4226600000000001  0.8341699999999997  0.78121  1.0000
  H   H64       1.0  0.57729  0.16526999999999994  0.78166  1.0000
  H   H65       1.0  0.21866000000000002  0.5771599999999998  0.8340299999999999  1.0000
  H   H66       1.0  0.21832000000000004  0.42255  0.16548  1.0000
  H   H67       1.0  0.78228  0.4230599999999999  0.83383  1.0000
  H   H68       1.0  0.78065  0.5778099999999998  0.16527  1.0000
  H   H69       1.0  0.83366  0.2186  0.57757  1.0000
  H   H70       1.0  0.16558  0.21822999999999995  0.42264  1.0000
  H   H71       1.0  0.83397  0.7821699999999998  0.423  1.0000
  H   H72       1.0  0.16495000000000007  0.78064  0.57732  1.0000
  H   H73       1.0  0.33346000000000003  0.07714999999999997  0.28237  1.0000
  H   H74       1.0  0.6653000000000002  0.9224199999999998  0.28071999999999997  1.0000
  H   H75       1.0  0.33403  0.9226299999999997  0.71874  1.0000
  H   H76       1.0  0.66517  0.07725  0.7184  1.0000
  H   H77       1.0  0.07660000000000003  0.71785  0.6657  1.0000
  H   H78       1.0  0.9221900000000001  0.7194999999999998  0.33493  1.0000
  H   H79       1.0  0.9225000000000002  0.2813999999999999  0.66632  1.0000
  H   H80       1.0  0.07739  0.2818499999999999  0.3343  1.0000
  H   H81       1.0  0.7193800000000002  0.33479999999999993  0.92232  1.0000
  H   H82       1.0  0.71771  0.6661499999999998  0.0768  1.0000
  H   H83       1.0  0.2816900000000001  0.3344699999999999  0.0776  1.0000
  H   H84       1.0  0.2813500000000001  0.6659999999999998  0.92274  1.0000
  H   H85       1.0  0.42327  0.16630999999999996  0.78243  1.0000
  H   H86       1.0  0.5780200000000002  0.8345799999999998  0.78064  1.0000
  H   H87       1.0  0.57733  0.16584  0.21879  1.0000
  H   H88       1.0  0.42271  0.83473  0.21834  1.0000
  H   H89       1.0  0.78134  0.4228399999999999  0.16597  1.0000
  H   H90       1.0  0.78167  0.5774599999999998  0.8345199999999999  1.0000
  H   H91       1.0  0.21772  0.57694  0.16617  1.0000
  H   H92       1.0  0.21935  0.4221999999999999  0.83473  1.0000
  H   H93       1.0  0.16635  0.7814  0.42243999999999987  1.0000
  H   H94       1.0  0.83443  0.78177  0.57737  1.0000
  H   H95       1.0  0.16604  0.21783  0.57701  1.0000
  H   H96       1.0  0.8350500000000002  0.21936999999999998  0.42268  1.0000
  H   H97       1.0  0.66654  0.9228499999999997  0.7176299999999999  1.0000
  H   H98       1.0  0.3347  0.07757999999999997  0.71928  1.0000
  H   H99       1.0  0.66595  0.07737  0.28127  1.0000
  H   H100      1.0  0.33483  0.9227499999999997  0.28161  1.0000
  H   H101      1.0  0.9234000000000002  0.2821599999999999  0.3343  1.0000
  H   H102      1.0  0.07781  0.2805  0.66507  1.0000
  H   H103      1.0  0.07751000000000002  0.7185999999999998  0.33369  1.0000
  H   H104      1.0  0.9226100000000003  0.7181499999999998  0.66571  1.0000
  H   H105      1.0  0.28062  0.6652  0.07768  1.0000
  H   H106      1.0  0.28228999999999993  0.33384999999999987  0.92321  1.0000
  H   H107      1.0  0.71831  0.6655299999999998  0.9224  1.0000
  H   H108      1.0  0.7186500000000002  0.3339899999999999  0.07727  1.0000
  H   H109      1.0  0.6330900000000003  0.77572  0.21983999999999995  1.0000
  H   H110      1.0  0.36589  0.22344  0.22057  1.0000
  H   H111      1.0  0.36605000000000004  0.7759899999999997  0.7795399999999998  1.0000
  H   H112      1.0  0.63365  0.22366999999999995  0.77972  1.0000
  H   H113      1.0  0.22020000000000006  0.6336199999999997  0.77591  1.0000
  H   H114      1.0  0.22021000000000004  0.3663299999999999  0.22368  1.0000
  H   H115      1.0  0.77989  0.36654  0.7757699999999997  1.0000
  H   H116      1.0  0.7793900000000002  0.6340699999999998  0.22343  1.0000
  H   H117      1.0  0.7757000000000002  0.22014999999999996  0.63383  1.0000
  H   H118      1.0  0.22356  0.22022999999999995  0.36651  1.0000
  H   H119      1.0  0.7757000000000002  0.7799199999999997  0.36643  1.0000
  H   H120      1.0  0.22321  0.7793299999999997  0.63386  1.0000
  H   H121      1.0  0.27553  0.13349999999999995  0.2801  1.0000
  H   H122      1.0  0.7233100000000002  0.8662699999999998  0.27951  1.0000
  H   H123      1.0  0.27579  0.8660599999999998  0.72032  1.0000
  H   H124      1.0  0.7235  0.13366  0.72042  1.0000
  H   H125      1.0  0.13317  0.72005  0.72402  1.0000
  H   H126      1.0  0.86578  0.72073  0.27666  1.0000
  H   H127      1.0  0.8661400000000002  0.27972999999999987  0.7242  1.0000
  H   H128      1.0  0.13348000000000002  0.27991  0.27627  1.0000
  H   H129      1.0  0.7204800000000002  0.27659  0.86611  1.0000
  H   H130      1.0  0.7199500000000002  0.7242699999999997  0.13326  1.0000
  H   H131      1.0  0.27963  0.27632  0.13384999999999994  1.0000
  H   H132      1.0  0.27965  0.7240499999999997  0.86622  1.0000
  H   H133      1.0  0.3669000000000001  0.22427999999999998  0.78016  1.0000
  H   H134      1.0  0.6341000000000002  0.77657  0.77944  1.0000
  H   H135      1.0  0.6339500000000002  0.22402  0.22046  1.0000
  H   H136      1.0  0.3663500000000001  0.7763299999999997  0.22029  1.0000
  H   H137      1.0  0.7798  0.36637999999999993  0.22409  1.0000
  H   H138      1.0  0.7797900000000002  0.6336699999999997  0.77632  1.0000
  H   H139      1.0  0.22011  0.63346  0.22422999999999996  1.0000
  H   H140      1.0  0.22061  0.3659399999999999  0.77658  1.0000
  H   H141      1.0  0.22430000000000005  0.7798599999999998  0.36617  1.0000
  H   H142      1.0  0.77644  0.7797699999999997  0.63349  1.0000
  H   H143      1.0  0.22431000000000004  0.22008999999999995  0.63358  1.0000
  H   H144      1.0  0.7768000000000003  0.22067  0.36615  1.0000
  H   H145      1.0  0.72447  0.8665099999999998  0.7199  1.0000
  H   H146      1.0  0.2766800000000001  0.13373999999999994  0.7205  1.0000
  H   H147      1.0  0.7242  0.13393  0.27967  1.0000
  H   H148      1.0  0.2765  0.8663399999999998  0.27958  1.0000
  H   H149      1.0  0.86683  0.27995  0.27598  1.0000
  H   H150      1.0  0.13421  0.27927999999999986  0.72335  1.0000
  H   H151      1.0  0.13386000000000006  0.72028  0.2758  1.0000
  H   H152      1.0  0.86652  0.7200899999999998  0.72373  1.0000
  H   H153      1.0  0.27953  0.72341  0.13389  1.0000
  H   H154      1.0  0.28005  0.27573  0.86674  1.0000
  H   H155      1.0  0.72037  0.7236899999999999  0.86615  1.0000
  H   H156      1.0  0.72035  0.27595  0.13379  1.0000
  C   C1        1.0  0.50001  0.003759999999999999  0.13128  1.0000
  C   C2        1.0  0.49999  0.9962399999999998  0.86872  1.0000
  C   C3        1.0  0.13124  0.50001  0.99623  1.0000
  C   C4        1.0  0.8687500000000002  0.4999899999999999  0.003769999999999999  1.0000
  C   C5        1.0  0.9962200000000002  0.13125  0.50003  1.0000
  C   C6        1.0  0.003779999999999999  0.8687599999999998  0.4999699999999999  1.0000
  C   C7        1.0  0.50377  2.9999999999999987e-05  0.36875  1.0000
  C   C8        1.0  0.4962300000000001  0.99996  0.63125  1.0000
  C   C9        1.0  0.0  0.63129  0.49625  1.0000
  C   C10       1.0  0.9999900000000002  0.3687199999999999  0.50375  1.0000
  C   C11       1.0  0.63125  0.49621999999999994  1e-05  1.0000
  C   C12       1.0  0.36875  0.50378  0.99999  1.0000
  C   C13       1.0  0.5000500000000001  0.00887  0.0826  1.0000
  C   C14       1.0  0.49995  0.9911299999999997  0.91739  1.0000
  C   C15       1.0  0.08255  0.50005  0.99112  1.0000
  C   C16       1.0  0.91744  0.4999499999999999  0.00888  1.0000
  C   C17       1.0  0.9911  0.08256  0.50003  1.0000
  C   C18       1.0  0.008900000000000002  0.9174499999999998  0.49998  1.0000
  C   C19       1.0  0.50888  5e-05  0.41744  1.0000
  C   C20       1.0  0.49112  0.9999499999999999  0.58255  1.0000
  C   C21       1.0  3.999999999999884e-05  0.5826099999999997  0.49114  1.0000
  C   C22       1.0  0.99996  0.4173999999999999  0.50886  1.0000
  C   C23       1.0  0.58256  0.4911099999999999  5e-05  1.0000
  C   C24       1.0  0.4174400000000001  0.5089  0.99995  1.0000
  C   C25       1.0  0.5  0.9783499999999998  0.00903  1.0000
  C   C26       1.0  0.5  0.021649999999999992  0.9909699999999998  1.0000
  C   C27       1.0  0.00913  0.50001  0.02166  1.0000
  C   C28       1.0  0.99086  0.4999999999999999  0.9783499999999998  1.0000
  C   C29       1.0  0.021650000000000006  0.009119999999999996  0.5  1.0000
  C   C30       1.0  0.97835  0.9908799999999998  0.5  1.0000
  C   C31       1.0  0.47835  0.0  0.49086  1.0000
  C   C32       1.0  0.52165  0.99999  0.50913  1.0000
  C   C33       1.0  0.0  0.50904  0.52165  1.0000
  C   C34       1.0  0.0  0.4909699999999999  0.47835  1.0000
  C   C35       1.0  0.50912  0.5216499999999997  0.0  1.0000
  C   C36       1.0  0.49088  0.4783499999999999  0.99999  1.0000
  C   C37       1.0  0.50003  0.9729499999999998  0.05505  1.0000
  C   C38       1.0  0.49997  0.027059999999999994  0.94495  1.0000
  C   C39       1.0  0.05517  0.5000299999999998  0.02706  1.0000
  C   C40       1.0  0.9448200000000002  0.4999699999999999  0.97295  1.0000
  C   C41       1.0  0.02704000000000001  0.05515999999999999  0.50001  1.0000
  C   C42       1.0  0.9729600000000003  0.9448499999999999  0.49998999999999993  1.0000
  C   C43       1.0  0.47295  3e-05  0.44482  1.0000
  C   C44       1.0  0.52705  0.9999699999999999  0.55517  1.0000
  C   C45       1.0  2.00000000000001e-05  0.55505  0.52707  1.0000
  C   C46       1.0  0.99998  0.44496  0.47293  1.0000
  C   C47       1.0  0.55515  0.52704  3e-05  1.0000
  C   C48       1.0  0.4448400000000001  0.4729599999999999  0.99997  1.0000
  C   C49       1.0  0.50004  0.051709999999999985  0.06457  1.0000
  C   C50       1.0  0.49996  0.9482899999999997  0.9354299999999998  1.0000
  C   C51       1.0  0.06432  0.50004  0.9482799999999998  1.0000
  C   C52       1.0  0.9356700000000002  0.4999599999999999  0.05173  1.0000
  C   C53       1.0  0.9482700000000002  0.06434999999999998  0.50003  1.0000
  C   C54       1.0  0.05173  0.9356499999999998  0.4999699999999999  1.0000
  C   C55       1.0  0.55172  2.999999999999999e-05  0.43567  1.0000
  C   C56       1.0  0.4482800000000001  0.9999699999999999  0.56432  1.0000
  C   C57       1.0  3.999999999999884e-05  0.56457  0.4482899999999999  1.0000
  C   C58       1.0  0.99996  0.4354399999999999  0.55171  1.0000
  C   C59       1.0  0.5643500000000002  0.4482699999999999  4e-05  1.0000
  C   C60       1.0  0.43564000000000014  0.55174  0.99996  1.0000
  C   C61       1.0  0.50001  0.057849999999999985  0.02005  1.0000
  C   C62       1.0  0.49999  0.9421499999999998  0.97995  1.0000
  C   C63       1.0  0.01977  0.50001  0.94214  1.0000
  C   C64       1.0  0.98022  0.4999899999999999  0.05786  1.0000
  C   C65       1.0  0.9421400000000002  0.01981  0.50001  1.0000
  C   C66       1.0  0.057860000000000016  0.9801999999999997  0.49998999999999993  1.0000
  C   C67       1.0  0.55786  1.0000000000000004e-05  0.48022  1.0000
  C   C68       1.0  0.44214  0.99999  0.51978  1.0000
  C   C69       1.0  1.0000000000000277e-05  0.52006  0.44215  1.0000
  C   C70       1.0  0.9999900000000002  0.4799499999999999  0.55785  1.0000
  C   C71       1.0  0.51981  0.44213999999999987  1e-05  1.0000
  C   C72       1.0  0.4801900000000001  0.5578599999999998  0.99999  1.0000
  C   C73       1.0  0.58339  0.9162299999999998  0.24924999999999994  1.0000
  C   C74       1.0  0.41597  0.08352  0.25071  1.0000
  C   C75       1.0  0.4162200000000001  0.9162199999999998  0.74998  1.0000
  C   C76       1.0  0.58333  0.08334  0.75003  1.0000
  C   C77       1.0  0.25  0.58379  0.91622  1.0000
  C   C78       1.0  0.25  0.41653  0.08348  1.0000
  C   C79       1.0  0.75073  0.4166  0.9162099999999997  1.0000
  C   C80       1.0  0.74928  0.5837999999999998  0.0834  1.0000
  C   C81       1.0  0.9159500000000003  0.24997999999999995  0.58413  1.0000
  C   C82       1.0  0.08348  0.25002999999999986  0.41651  1.0000
  C   C83       1.0  0.91645  0.7512299999999997  0.41653  1.0000
  C   C84       1.0  0.08332  0.7486999999999999  0.5831  1.0000
  C   C85       1.0  0.41661  0.08378999999999998  0.75074  1.0000
  C   C86       1.0  0.58402  0.91648  0.74929  1.0000
  C   C87       1.0  0.58377  0.0838  0.25001  1.0000
  C   C88       1.0  0.4166700000000001  0.9166599999999998  0.24998  1.0000
  C   C89       1.0  0.7500000000000002  0.4162099999999999  0.08378  1.0000
  C   C90       1.0  0.7500000000000002  0.58347  0.91653  1.0000
  C   C91       1.0  0.24927  0.58341  0.08379  1.0000
  C   C92       1.0  0.25072  0.4161999999999999  0.9166  1.0000
  C   C93       1.0  0.08405000000000003  0.75003  0.41588  1.0000
  C   C94       1.0  0.9165200000000002  0.7499699999999998  0.58349  1.0000
  C   C95       1.0  0.08357  0.24881  0.58347  1.0000
  C   C96       1.0  0.91667  0.2513299999999999  0.4169199999999999  1.0000
  C   C97       1.0  0.61747  0.88164  0.24901  1.0000
  C   C98       1.0  0.38137  0.11766999999999997  0.25099  1.0000
  C   C99       1.0  0.38182  0.88186  0.7499599999999997  1.0000
  C   C100      1.0  0.61776  0.11777999999999997  0.75007  1.0000
  C   C101      1.0  0.24999  0.6180999999999998  0.88188  1.0000
  C   C102      1.0  0.25  0.38211  0.11793  1.0000
  C   C103      1.0  0.75095  0.3824399999999999  0.8816199999999997  1.0000
  C   C104      1.0  0.74904  0.61843  0.11753  1.0000
  C   C105      1.0  0.8816600000000002  0.24997999999999995  0.6184  1.0000
  C   C106      1.0  0.11784  0.25005999999999995  0.3821199999999999  1.0000
  C   C107      1.0  0.8816400000000002  0.75102  0.38245  1.0000
  C   C108      1.0  0.11732  0.7490899999999998  0.61797  1.0000
  C   C109      1.0  0.3825300000000001  0.11835999999999998  0.75099  1.0000
  C   C110      1.0  0.6186300000000002  0.8823299999999997  0.749  1.0000
  C   C111      1.0  0.61817  0.11814999999999998  0.25005  1.0000
  C   C112      1.0  0.38224  0.88223  0.24994  1.0000
  C   C113      1.0  0.75001  0.3819  0.11812999999999999  1.0000
  C   C114      1.0  0.7500000000000002  0.61789  0.88208  1.0000
  C   C115      1.0  0.24905  0.6175599999999998  0.11838  1.0000
  C   C116      1.0  0.25096  0.38157999999999986  0.88247  1.0000
  C   C117      1.0  0.11835000000000002  0.7500199999999998  0.38161  1.0000
  C   C118      1.0  0.8821600000000003  0.7499399999999998  0.61788  1.0000
  C   C119      1.0  0.11837  0.24898999999999993  0.61756  1.0000
  C   C120      1.0  0.88268  0.25091999999999987  0.38203  1.0000
  C   C121      1.0  0.68263  0.8165899999999998  0.24964  1.0000
  C   C122      1.0  0.31623  0.18298  0.25038  1.0000
  C   C123      1.0  0.3165800000000001  0.8166799999999997  0.7499  1.0000
  C   C124      1.0  0.6829900000000001  0.18307999999999994  0.7501  1.0000
  C   C125      1.0  0.24989000000000006  0.68317  0.81674  1.0000
  C   C126      1.0  0.24990000000000007  0.31683  0.18325  1.0000
  C   C127      1.0  0.75016  0.31714  0.81652  1.0000
  C   C128      1.0  0.7496300000000002  0.6835799999999997  0.1828  1.0000
  C   C129      1.0  0.81653  0.24992999999999996  0.68341  1.0000
  C   C130      1.0  0.18301000000000006  0.2500799999999999  0.3169  1.0000
  C   C131      1.0  0.8163000000000002  0.7503299999999998  0.31708  1.0000
  C   C132      1.0  0.18255  0.7496999999999998  0.68329  1.0000
  C   C133      1.0  0.3173600000000001  0.18341999999999994  0.75036  1.0000
  C   C134      1.0  0.68377  0.8170299999999998  0.74963  1.0000
  C   C135      1.0  0.68342  0.18332  0.2501  1.0000
  C   C136      1.0  0.31701  0.81692  0.24990999999999994  1.0000
  C   C137      1.0  0.75012  0.31683  0.18325999999999995  1.0000
  C   C138      1.0  0.7501  0.6831799999999998  0.81675  1.0000
  C   C139      1.0  0.24984000000000006  0.68286  0.18348  1.0000
  C   C140      1.0  0.25037  0.31642  0.81721  1.0000
  C   C141      1.0  0.18348  0.7500699999999998  0.31659  1.0000
  C   C142      1.0  0.81699  0.74992  0.6831  1.0000
  C   C143      1.0  0.1837  0.24966999999999995  0.68292  1.0000
  C   C144      1.0  0.81745  0.25029999999999997  0.31671  1.0000
  C   C145      1.0  0.71686  0.7825999999999997  0.2498  1.0000
  C   C146      1.0  0.2822  0.21724999999999994  0.25021  1.0000
  C   C147      1.0  0.2823600000000001  0.7825099999999998  0.74992  1.0000
  C   C148      1.0  0.7171800000000003  0.21732999999999994  0.75008  1.0000
  C   C149      1.0  0.24977  0.71728  0.7826  1.0000
  C   C150      1.0  0.24981  0.28262  0.21747  1.0000
  C   C151      1.0  0.7499300000000002  0.2828299999999999  0.78251  1.0000
  C   C152      1.0  0.7496500000000003  0.71762  0.21711  1.0000
  C   C153      1.0  0.7824200000000001  0.24995999999999993  0.71747  1.0000
  C   C154      1.0  0.21713  0.25004  0.28275  1.0000
  C   C155      1.0  0.7821600000000002  0.7502  0.28271  1.0000
  C   C156      1.0  0.21686000000000005  0.7497999999999998  0.7174  1.0000
  C   C157      1.0  0.28314000000000006  0.21740999999999994  0.75021  1.0000
  C   C158      1.0  0.7178  0.78276  0.74979  1.0000
  C   C159      1.0  0.7176400000000002  0.21747999999999995  0.25008  1.0000
  C   C160      1.0  0.28282  0.7826799999999998  0.24992  1.0000
  C   C161      1.0  0.75023  0.28272  0.21739999999999995  1.0000
  C   C162      1.0  0.75019  0.7173799999999998  0.78253  1.0000
  C   C163      1.0  0.25007  0.7171799999999998  0.21749  1.0000
  C   C164      1.0  0.25035  0.28238  0.7829  1.0000
  C   C165      1.0  0.21758000000000005  0.7500399999999998  0.28253  1.0000
  C   C166      1.0  0.78287  0.7499599999999997  0.71725  1.0000
  C   C167      1.0  0.21784  0.24979999999999994  0.7173  1.0000
  C   C168      1.0  0.78314  0.25019999999999987  0.28261  1.0000
  C   C169      1.0  0.7495199999999999  0.7822299999999998  0.28209  1.0000
  C   C170      1.0  0.24964  0.21784999999999993  0.28232  1.0000
  C   C171      1.0  0.24958000000000005  0.7819799999999998  0.7177799999999998  1.0000
  C   C172      1.0  0.74972  0.21774999999999994  0.71799  1.0000
  C   C173      1.0  0.28198  0.74995  0.78211  1.0000
  C   C174      1.0  0.28181000000000006  0.24991999999999995  0.21804999999999994  1.0000
  C   C175      1.0  0.7177500000000002  0.25009  0.78211  1.0000
  C   C176      1.0  0.7174200000000002  0.7500499999999998  0.21755999999999995  1.0000
  C   C177      1.0  0.7820300000000002  0.28224  0.74998  1.0000
  C   C178      1.0  0.21771000000000004  0.2821599999999999  0.25005  1.0000
  C   C179      1.0  0.78175  0.71813  0.24997  1.0000
  C   C180      1.0  0.21744000000000002  0.7176599999999997  0.75002  1.0000
  C   C181      1.0  0.25047  0.21776999999999994  0.71791  1.0000
  C   C182      1.0  0.75036  0.7821499999999998  0.71768  1.0000
  C   C183      1.0  0.7504200000000002  0.21801999999999994  0.28222  1.0000
  C   C184      1.0  0.25028  0.78225  0.28201  1.0000
  C   C185      1.0  0.71802  0.25005  0.21788999999999997  1.0000
  C   C186      1.0  0.7181900000000002  0.7500799999999997  0.78195  1.0000
  C   C187      1.0  0.28225000000000006  0.74992  0.21788999999999997  1.0000
  C   C188      1.0  0.2825700000000001  0.24994999999999995  0.78245  1.0000
  C   C189      1.0  0.21797000000000005  0.71776  0.25002  1.0000
  C   C190      1.0  0.7822900000000003  0.7178399999999999  0.7499599999999997  1.0000
  C   C191      1.0  0.21824  0.28186999999999995  0.75004  1.0000
  C   C192      1.0  0.7825600000000003  0.28234  0.24999  1.0000
  C   C193      1.0  0.60885  0.8402799999999998  0.23132  1.0000
  C   C194      1.0  0.38992  0.15896999999999994  0.23299999999999996  1.0000
  C   C195      1.0  0.39048  0.84055  0.76763  1.0000
  C   C196      1.0  0.60932  0.15898999999999994  0.76798  1.0000
  C   C197      1.0  0.23224  0.6093499999999998  0.8405  1.0000
  C   C198      1.0  0.23206000000000004  0.39053  0.15912  1.0000
  C   C199      1.0  0.7685500000000002  0.39095999999999986  0.8403199999999997  1.0000
  C   C200      1.0  0.76705  0.60989  0.15886  1.0000
  C   C201      1.0  0.8402400000000002  0.23220999999999994  0.6097  1.0000
  C   C202      1.0  0.15908000000000005  0.23208  0.39061  1.0000
  C   C203      1.0  0.84032  0.7685099999999999  0.39091999999999993  1.0000
  C   C204      1.0  0.15859999999999996  0.7671099999999997  0.60946  1.0000
  C   C205      1.0  0.34004  0.10920999999999997  0.26865  1.0000
  C   C206      1.0  0.6588100000000002  0.8902999999999998  0.26708  1.0000
  C   C207      1.0  0.3404400000000001  0.8904899999999998  0.73226  1.0000
  C   C208      1.0  0.65891  0.10930999999999998  0.73215  1.0000
  C   C209      1.0  0.10872000000000001  0.73155  0.65933  1.0000
  C   C210      1.0  0.8901000000000002  0.73302  0.34123  1.0000
  C   C211      1.0  0.8903400000000002  0.2677499999999999  0.6597499999999998  1.0000
  C   C212      1.0  0.10939  0.2680599999999999  0.34083  1.0000
  C   C213      1.0  0.7329200000000002  0.34115  0.89022  1.0000
  C   C214      1.0  0.73141  0.6597099999999999  0.10893999999999997  1.0000
  C   C215      1.0  0.26791  0.3408899999999999  0.10958  1.0000
  C   C216      1.0  0.2677300000000001  0.65949  0.89057  1.0000
  C   C217      1.0  0.39114  0.15973  0.76868  1.0000
  C   C218      1.0  0.61008  0.8410399999999998  0.767  1.0000
  C   C219      1.0  0.60952  0.15946999999999995  0.23237  1.0000
  C   C220      1.0  0.39067  0.8410099999999998  0.23201999999999995  1.0000
  C   C221      1.0  0.7677600000000002  0.3906499999999999  0.15951  1.0000
  C   C222      1.0  0.7679400000000002  0.60947  0.84089  1.0000
  C   C223      1.0  0.23145000000000004  0.6090399999999999  0.15968  1.0000
  C   C224      1.0  0.23295000000000005  0.39012  0.8411499999999997  1.0000
  C   C225      1.0  0.15977  0.7677899999999998  0.39031  1.0000
  C   C226      1.0  0.8409200000000002  0.76792  0.6094  1.0000
  C   C227      1.0  0.15968000000000004  0.23148999999999995  0.60909  1.0000
  C   C228      1.0  0.8414100000000002  0.2329  0.39054  1.0000
  C   C229      1.0  0.65996  0.89079  0.73135  1.0000
  C   C230      1.0  0.3411900000000001  0.10971  0.73293  1.0000
  C   C231      1.0  0.6595400000000002  0.10951999999999998  0.26775  1.0000
  C   C232      1.0  0.3410900000000001  0.8906899999999998  0.26784999999999987  1.0000
  C   C233      1.0  0.8912900000000002  0.26845  0.34066999999999986  1.0000
  C   C234      1.0  0.10990000000000003  0.26698  0.65878  1.0000
  C   C235      1.0  0.10967  0.73226  0.34025  1.0000
  C   C236      1.0  0.8906100000000002  0.73195  0.65918  1.0000
  C   C237      1.0  0.26708  0.6588499999999998  0.10978  1.0000
  C   C238      1.0  0.2685900000000001  0.34028999999999987  0.89107  1.0000
  C   C239      1.0  0.73209  0.65912  0.89042  1.0000
  C   C240      1.0  0.73227  0.34051  0.10944  1.0000
  C   C241      1.0  0.6408100000000002  0.80811  0.23223  1.0000
  C   C242      1.0  0.35807  0.19121  0.23325  1.0000
  C   C243      1.0  0.35843  0.8082999999999999  0.76708  1.0000
  C   C244      1.0  0.64128  0.19134999999999994  0.76731  1.0000
  C   C245      1.0  0.23271000000000006  0.6413099999999998  0.80828  1.0000
  C   C246      1.0  0.23268000000000003  0.3586  0.19143  1.0000
  C   C247      1.0  0.7675600000000001  0.35891999999999996  0.80811  1.0000
  C   C248      1.0  0.7667700000000002  0.6418  0.19112  1.0000
  C   C249      1.0  0.80807  0.23269999999999993  0.64158  1.0000
  C   C250      1.0  0.19129  0.23275999999999994  0.3587199999999999  1.0000
  C   C251      1.0  0.8080100000000002  0.7675899999999998  0.35884  1.0000
  C   C252      1.0  0.19088000000000005  0.76682  0.64149  1.0000
  C   C253      1.0  0.30787  0.14119999999999994  0.26775  1.0000
  C   C254      1.0  0.69101  0.8584499999999998  0.26682  1.0000
  C   C255      1.0  0.3081700000000001  0.8584699999999997  0.73276  1.0000
  C   C256      1.0  0.6912400000000002  0.14131  0.73285  1.0000
  C   C257      1.0  0.14075  0.7324199999999997  0.69166  1.0000
  C   C258      1.0  0.8580900000000002  0.73327  0.3089  1.0000
  C   C259      1.0  0.8584000000000003  0.2671999999999999  0.69187  1.0000
  C   C260      1.0  0.14125  0.2673999999999999  0.30859  1.0000
  C   C261      1.0  0.73311  0.30886  0.85834  1.0000
  C   C262      1.0  0.7323000000000002  0.6919399999999998  0.14095  1.0000
  C   C263      1.0  0.26718000000000003  0.30859  0.14153  1.0000
  C   C264      1.0  0.2671600000000001  0.6916699999999998  0.85857  1.0000
  C   C265      1.0  0.35918  0.19189999999999993  0.76778  1.0000
  C   C266      1.0  0.6419300000000002  0.8087999999999997  0.76675  1.0000
  C   C267      1.0  0.64157  0.19170999999999994  0.23292  1.0000
  C   C268      1.0  0.3587200000000001  0.8086499999999998  0.23268999999999998  1.0000
  C   C269      1.0  0.76729  0.3586899999999999  0.19171999999999997  1.0000
  C   C270      1.0  0.76731  0.6414  0.80857  1.0000
  C   C271      1.0  0.23244000000000006  0.6410799999999998  0.19188999999999998  1.0000
  C   C272      1.0  0.23323000000000005  0.35820999999999986  0.80888  1.0000
  C   C273      1.0  0.19194000000000006  0.7673099999999998  0.35841999999999996  1.0000
  C   C274      1.0  0.80871  0.76724  0.64128  1.0000
  C   C275      1.0  0.19199000000000005  0.23240999999999995  0.64116  1.0000
  C   C276      1.0  0.8091300000000001  0.23317999999999994  0.35852  1.0000
  C   C277      1.0  0.69213  0.8588099999999997  0.7322499999999998  1.0000
  C   C278      1.0  0.30898  0.14156  0.7331899999999998  1.0000
  C   C279      1.0  0.69182  0.14153999999999994  0.26725  1.0000
  C   C280      1.0  0.30876  0.85869  0.26715  1.0000
  C   C281      1.0  0.85925  0.2675799999999999  0.3083399999999999  1.0000
  C   C282      1.0  0.14191  0.26673  0.6910999999999998  1.0000
  C   C283      1.0  0.14161  0.7328  0.30813  1.0000
  C   C284      1.0  0.8587500000000002  0.7326  0.69142  1.0000
  C   C285      1.0  0.26689  0.69114  0.14165999999999998  1.0000
  C   C286      1.0  0.2677  0.3080599999999999  0.8590499999999999  1.0000
  C   C287      1.0  0.7328100000000002  0.6914099999999997  0.85847  1.0000
  C   C288      1.0  0.7328500000000002  0.3083299999999999  0.14143  1.0000
  O   O1        1.0  0.5  0.039309999999999984  0.15305  1.0000
  O   O2        1.0  0.14750000000000002  0.4999699999999999  0.03485  1.0000
  O   O3        1.0  0.03483  0.14748  0.4999699999999999  1.0000
  O   O4        1.0  0.46515  2e-05  0.35249  1.0000
  O   O5        1.0  0.5393  2.9999999999999987e-05  0.3471  1.0000
  O   O6        1.0  0.4607000000000001  0.9999699999999999  0.6528899999999997  1.0000
  O   O7        1.0  0.5348500000000003  0.9999799999999999  0.64751  1.0000
  O   O8        1.0  0.9999300000000001  0.6474399999999998  0.53482  1.0000
  O   O9        1.0  3.9999999999999746e-05  0.65305  0.46066  1.0000
  O   O10       1.0  0.99996  0.3469599999999999  0.53934  1.0000
  O   O11       1.0  6.999999999999899e-05  0.3525599999999999  0.4651899999999999  1.0000
  O   O12       1.0  0.65291  0.4606899999999999  2e-05  1.0000
  O   O13       1.0  0.64748  0.53484  0.99996  1.0000
  O   O14       1.0  0.3525100000000001  0.4651599999999999  4e-05  1.0000
  O   O15       1.0  0.3470800000000001  0.5393099999999997  0.9999799999999999  1.0000
  O   O16       1.0  0.5499700000000002  0.91103  0.22461  1.0000
  O   O17       1.0  0.44824000000000014  0.09074999999999997  0.22526  1.0000
  O   O18       1.0  0.4504  0.90882  0.77285  1.0000
  O   O19       1.0  0.55183  0.08842999999999998  0.77684  1.0000
  O   O20       1.0  0.22714  0.5495799999999997  0.9087899999999999  1.0000
  O   O21       1.0  0.22325000000000006  0.4481199999999999  0.08855  1.0000
  O   O22       1.0  0.7753000000000002  0.45001999999999986  0.91104  1.0000
  O   O23       1.0  0.7746200000000002  0.55148  0.09073  1.0000
  O   O24       1.0  0.9083900000000003  0.22711999999999996  0.54997  1.0000
  O   O25       1.0  0.08859  0.22317999999999993  0.44816  1.0000
  O   O26       1.0  0.91091  0.7752899999999998  0.45013  1.0000
  O   O27       1.0  0.09096  0.7725999999999997  0.54975  1.0000
  O   O28       1.0  0.41096  0.050189999999999985  0.27534999999999993  1.0000
  O   O29       1.0  0.5884200000000003  0.05178999999999999  0.72315  1.0000
  O   O30       1.0  0.04966000000000002  0.72466  0.58904  1.0000
  O   O31       1.0  0.05188  0.2768199999999999  0.41141  1.0000
  O   O32       1.0  0.72469  0.58896  0.04997  1.0000
  O   O33       1.0  0.27675  0.41143999999999986  0.05189  1.0000
  O   O34       1.0  0.4500300000000001  0.08896999999999997  0.77539  1.0000
  O   O35       1.0  0.55176  0.90925  0.77474  1.0000
  O   O36       1.0  0.54959  0.09119  0.22714  1.0000
  O   O37       1.0  0.4481800000000001  0.9115699999999998  0.22318  1.0000
  O   O38       1.0  0.7728600000000002  0.4504299999999999  0.09122  1.0000
  O   O39       1.0  0.77676  0.55188  0.91145  1.0000
  O   O40       1.0  0.2247  0.54998  0.08896  1.0000
  O   O41       1.0  0.22538  0.4485299999999999  0.90927  1.0000
  O   O42       1.0  0.09162000000000002  0.7728799999999998  0.45004  1.0000
  O   O43       1.0  0.91141  0.77682  0.55184  1.0000
  O   O44       1.0  0.08908  0.22470999999999994  0.54989  1.0000
  O   O45       1.0  0.9090300000000002  0.22743999999999995  0.45028  1.0000
  O   O46       1.0  0.4092600000000001  0.051409999999999983  0.72531  1.0000
  O   O47       1.0  0.59114  0.049669999999999985  0.27283  1.0000
  O   O48       1.0  0.05058  0.2731  0.591  1.0000
  O   O49       1.0  0.04975  0.72723  0.40860999999999986  1.0000
  O   O50       1.0  0.2745900000000001  0.59071  0.05148  1.0000
  O   O51       1.0  0.72713  0.40876  0.04956  1.0000
  O   O52       1.0  0.4995700000000001  0.9997199999999999  0.24995  1.0000
  O   O53       1.0  0.50043  0.00028  0.75004  1.0000
  O   O54       1.0  0.24999  0.4995999999999999  0.00042  1.0000
  O   O55       1.0  0.74999  0.5003999999999997  0.99958  1.0000
  O   O56       1.0  0.0004899999999999999  0.24999999999999994  0.49972  1.0000
  O   O57       1.0  0.9995100000000001  0.7500099999999997  0.50029  1.0000
  O   O58       1.0  0.49999  0.96517  0.14742  1.0000
  O   O59       1.0  0.5  0.9606999999999998  0.84694  1.0000
  O   O60       1.0  0.50001  0.03484  0.85258  1.0000
  O   O61       1.0  0.15289  0.5000299999999998  0.9607  1.0000
  O   O62       1.0  0.8525  0.5000299999999998  0.96515  1.0000
  O   O63       1.0  0.8471000000000002  0.4999699999999999  0.0393  1.0000
  O   O64       1.0  0.9606700000000002  0.15292999999999995  0.50008  1.0000
  O   O65       1.0  0.96518  0.8525199999999997  0.50003  1.0000
  O   O66       1.0  0.03933  0.84708  0.49992  1.0000
  O   O67       1.0  0.5907500000000002  0.9486199999999998  0.27467  1.0000
  O   O68       1.0  0.40885  0.9503399999999997  0.72715  1.0000
  O   O69       1.0  0.9494800000000002  0.727  0.40898  1.0000
  O   O70       1.0  0.95026  0.2727799999999999  0.5914  1.0000
  O   O71       1.0  0.7254000000000003  0.4092899999999999  0.94852  1.0000
  O   O72       1.0  0.27287  0.59124  0.95044  1.0000
  O   O73       1.0  0.5890400000000002  0.9498099999999998  0.72465  1.0000
  O   O74       1.0  0.4115700000000001  0.9482199999999997  0.27685  1.0000
  O   O75       1.0  0.95035  0.27536  0.41096  1.0000
  O   O76       1.0  0.94812  0.7231799999999998  0.58859  1.0000
  O   O77       1.0  0.27531  0.4110399999999999  0.95004  1.0000
  O   O78       1.0  0.72325  0.58856  0.94811  1.0000
