data_image0
_chemical_formula_structural       Dy2H12C24O12
_chemical_formula_sum              "Dy2 H12 C24 O12"
_cell_length_a       9.8283
_cell_length_b       10.4362
_cell_length_c       11.076
_cell_angle_alpha    76.894
_cell_angle_beta     76.296
_cell_angle_gamma    65.999

_space_group_name_H-M_alt    "P 1"
_space_group_IT_number       1

loop_
  _space_group_symop_operation_xyz
  'x, y, z'

loop_
  _atom_site_type_symbol
  _atom_site_label
  _atom_site_symmetry_multiplicity
  _atom_site_fract_x
  _atom_site_fract_y
  _atom_site_fract_z
  _atom_site_occupancy
  Dy  Dy1       1.0  0.94493  0.22808  0.82291  1.0000
  Dy  Dy2       1.0  0.055070000000000056  0.77192  0.17709  1.0000
  H   H1        1.0  0.30779999999999996  0.9222000000000001  0.5063  1.0000
  H   H2        1.0  0.4552  0.1849  0.6049  1.0000
  H   H3        1.0  0.43569999999999987  0.4149  0.709  1.0000
  H   H4        1.0  0.74  0.5023  0.4238  1.0000
  H   H5        1.0  0.6003  0.11819999999999997  0.821  1.0000
  H   H6        1.0  0.6494000000000001  0.8595999999999999  0.1501  1.0000
  H   H7        1.0  0.6922  0.0778  0.4937  1.0000
  H   H8        1.0  0.5447999999999998  0.8151000000000002  0.39510000000000006  1.0000
  H   H9        1.0  0.5643000000000001  0.5851  0.291  1.0000
  H   H10       1.0  0.26  0.49770000000000003  0.5762  1.0000
  H   H11       1.0  0.3997  0.8818  0.179  1.0000
  H   H12       1.0  0.3506000000000001  0.14040000000000002  0.8498999999999999  1.0000
  C   C1        1.0  0.3569  0.0651  0.5674  1.0000
  C   C2        1.0  0.38459999999999983  0.9535000000000001  0.5039  1.0000
  C   C3        1.0  0.47310000000000013  0.11060000000000002  0.5627  1.0000
  C   C4        1.0  0.20540000000000003  0.1316  0.6456  1.0000
  C   C5        1.0  0.608  0.4486  0.5793  1.0000
  C   C6        1.0  0.46149999999999997  0.4487  0.6251  1.0000
  C   C7        1.0  0.6438999999999999  0.501  0.45439999999999997  1.0000
  C   C8        1.0  0.7236  0.3892999999999999  0.6651  1.0000
  C   C9        1.0  0.6492999999999997  0.9861000000000001  0.9830000000000001  1.0000
  C   C10       1.0  0.56  0.07079999999999999  0.8927  1.0000
  C   C11       1.0  0.5894999999999999  0.9159  0.0898  1.0000
  C   C12       1.0  0.8096  0.9768000000000001  0.9669  1.0000
  C   C13       1.0  0.6431000000000001  0.9349  0.4326  1.0000
  C   C14       1.0  0.6154  0.04650000000000001  0.4961  1.0000
  C   C15       1.0  0.5269  0.8893999999999999  0.4373  1.0000
  C   C16       1.0  0.7946  0.8684  0.3544  1.0000
  C   C17       1.0  0.39200000000000007  0.5514  0.4207000000000001  1.0000
  C   C18       1.0  0.5385000000000001  0.5513  0.3749  1.0000
  C   C19       1.0  0.3561  0.499  0.5456  1.0000
  C   C20       1.0  0.2764  0.6107  0.3349  1.0000
  C   C21       1.0  0.3507  0.0139  0.017  1.0000
  C   C22       1.0  0.4399999999999999  0.9292000000000001  0.1073  1.0000
  C   C23       1.0  0.4105  0.08410000000000001  0.9102  1.0000
  C   C24       1.0  0.1904  0.023199999999999995  0.0331  1.0000
  O   O1        1.0  0.17233999999999997  0.24758  0.68167  1.0000
  O   O2        1.0  0.11669999999999998  0.06470000000000001  0.67817  1.0000
  O   O3        1.0  0.6851000000000002  0.3499999999999999  0.7796  1.0000
  O   O4        1.0  0.8580000000000001  0.3768  0.62319  1.0000
  O   O5        1.0  0.8573199999999999  0.04737999999999999  0.8723000000000001  1.0000
  O   O6        1.0  0.884  0.8977  0.05058  1.0000
  O   O7        1.0  0.82766  0.75242  0.31833  1.0000
  O   O8        1.0  0.8832999999999999  0.9353000000000001  0.32183  1.0000
  O   O9        1.0  0.3149  0.65  0.22040000000000004  1.0000
  O   O10       1.0  0.14199999999999996  0.6232  0.37681  1.0000
  O   O11       1.0  0.14268  0.95262  0.1277  1.0000
  O   O12       1.0  0.11600000000000005  0.10230000000000002  0.94942  1.0000
