data_image0
_chemical_formula_structural       Cu2H72C44N24
_chemical_formula_sum              "Cu2 H72 C44 N24"
_cell_length_a       13.62985784
_cell_length_b       12.44852022
_cell_length_c       14.118621480000002
_cell_angle_alpha    104.64082389
_cell_angle_beta     104.99906226
_cell_angle_gamma    115.14497538000002

_symmetry_space_group_name_H-M    'P 1'
_symmetry_Int_Tables_number       1

loop_
  _symmetry_equiv_pos_as_xyz
  'x,y,z'

loop_
  _atom_site_type_symbol
  _atom_site_label
  _atom_site_symmetry_multiplicity
  _atom_site_fract_x
  _atom_site_fract_y
  _atom_site_fract_z
  _atom_site_occupancy
  Cu  Cu1       1.0  0.04480539000000001  0.5364960400000001  0.98148294  1.0000
  Cu  Cu2       1.0  0.53150168  0.9978068700000001  0.54072669  1.0000
  H   H1        1.0  0.7623703200000002  0.3246051200000001  0.16337737000000002  1.0000
  H   H2        1.0  0.9115890400000001  0.63168293  0.07327469  1.0000
  H   H3        1.0  0.7766198100000001  0.7278822499999998  0.23792021  1.0000
  H   H4        1.0  0.89808773  0.7989211  0.20330958  1.0000
  H   H5        1.0  0.03710628999999999  0.8248589  0.37607921000000005  1.0000
  H   H6        1.0  0.9154023300000002  0.7518179000000001  0.40868172  1.0000
  H   H7        1.0  0.006994239999999986  0.010961279999999967  0.38346407  1.0000
  H   H8        1.0  0.8755463800000002  0.93325416  0.40276567000000013  1.0000
  H   H9        1.0  0.7154389800000001  0.9109297600000001  0.48209072  1.0000
  H   H10       1.0  0.57337522  0.8529174299999999  0.70863471  1.0000
  H   H11       1.0  0.78961759  0.73675991  0.74148952  1.0000
  H   H12       1.0  0.70319438  0.77550777  0.80216103  1.0000
  H   H13       1.0  0.85279359  0.015156600000000022  0.86925785  1.0000
  H   H14       1.0  0.94264874  0.9748748900000002  0.8151886500000002  1.0000
  H   H15       1.0  0.86994935  0.89339879  0.98635897  1.0000
  H   H16       1.0  0.96711198  0.86483982  0.93713636  1.0000
  H   H17       1.0  0.99653534  0.3694569999999999  0.11622563000000001  1.0000
  H   H18       1.0  0.31084181999999994  0.7110547499999998  0.18390049  1.0000
  H   H19       1.0  0.43961924  0.73518116  0.36117753  1.0000
  H   H20       1.0  0.35391326  0.65749191  0.42466821000000005  1.0000
  H   H21       1.0  0.58098523  0.45107649  0.22928750000000003  1.0000
  H   H22       1.0  0.48519237000000004  0.37495201000000006  0.28590081  1.0000
  H   H23       1.0  0.73952584  0.61239548  0.4040448900000001  1.0000
  H   H24       1.0  0.64929764  0.5640589  0.47245769  1.0000
  H   H25       1.0  0.68728242  0.37010807999999995  0.32938312  1.0000
  H   H26       1.0  0.63543854  0.35773203  0.43122612  1.0000
  H   H27       1.0  0.83913657  0.53820804  0.5724096  1.0000
  H   H28       1.0  0.88660527  0.56073811  0.46935655000000004  1.0000
  H   H29       1.0  0.85017623  0.3342035400000001  0.40616845  1.0000
  H   H30       1.0  0.96090317  0.43793447  0.54094507  1.0000
  H   H31       1.0  0.79879472  0.18875645000000002  0.7095828  1.0000
  H   H32       1.0  0.62541683  0.16509299  0.40444239  1.0000
  H   H33       1.0  0.43693017  0.51790383  0.20652123  1.0000
  H   H34       1.0  0.57245685  0.65555757  0.30906987  1.0000
  H   H35       1.0  0.3744812  0.46319259  0.3518446  1.0000
  H   H36       1.0  0.50562908  0.60799067  0.45029568000000003  1.0000
  H   H37       1.0  0.17578032  0.60391332  0.81456935  1.0000
  H   H38       1.0  0.053633979999999984  0.27310124  0.88307715  1.0000
  H   H39       1.0  0.22090408000000003  0.23561518000000006  0.72541749  1.0000
  H   H40       1.0  0.10370793000000007  0.14124730000000008  0.7564338200000001  1.0000
  H   H41       1.0  0.95444118  0.11577080000000001  0.5887469  1.0000
  H   H42       1.0  0.07328943000000004  0.20353497  0.5573434  1.0000
  H   H43       1.0  0.0007520899999999456  0.9421766699999999  0.57637353  1.0000
  H   H44       1.0  0.12980304999999998  0.031116739999999983  0.55751249  1.0000
  H   H45       1.0  0.31805062  0.10635660999999999  0.51633383  1.0000
  H   H46       1.0  0.41728685000000004  0.16577605  0.26818321  1.0000
  H   H47       1.0  0.186068  0.25645559  0.2594914  1.0000
  H   H48       1.0  0.27225186  0.23400237999999998  0.19050538  1.0000
  H   H49       1.0  0.1343698100000001  0.9881925299999998  0.1203354  1.0000
  H   H50       1.0  0.04195238  0.017030519999999997  0.17770566  1.0000
  H   H51       1.0  0.10686784999999999  0.10886863999999999  0.00773101  1.0000
  H   H52       1.0  0.011067930000000004  0.13425386  0.06146441  1.0000
  H   H53       1.0  0.005477699999999961  0.6814592  0.82733529  1.0000
  H   H54       1.0  0.7628311000000001  0.38689420999999996  0.8862588  1.0000
  H   H55       1.0  0.5753681400000002  0.2996016800000001  0.7164601600000002  1.0000
  H   H56       1.0  0.61903501  0.31182025  0.61053768  1.0000
  H   H57       1.0  0.41838266999999996  0.5765767999999999  0.78118293  1.0000
  H   H58       1.0  0.51296531  0.64147169  0.71979244  1.0000
  H   H59       1.0  0.2645834400000001  0.39295767  0.60425036  1.0000
  H   H60       1.0  0.35795283  0.45158766  0.54012867  1.0000
  H   H61       1.0  0.28555841000000004  0.6153625100000001  0.6724453400000001  1.0000
  H   H62       1.0  0.36321829  0.65773623  0.59249857  1.0000
  H   H63       1.0  0.17929954000000006  0.4816797  0.42479718  1.0000
  H   H64       1.0  0.10552995999999996  0.43005934999999995  0.505325  1.0000
  H   H65       1.0  0.12508687999999998  0.64660447  0.58121459  1.0000
  H   H66       1.0  0.04419193000000002  0.56654693  0.43787326  1.0000
  H   H67       1.0  0.28669772  0.87705527  0.34936596  1.0000
  H   H68       1.0  0.36196452  0.84852214  0.64778578  1.0000
  H   H69       1.0  0.57652834  0.5280134999999999  0.81883184  1.0000
  H   H70       1.0  0.43688598  0.38128507  0.74006273  1.0000
  H   H71       1.0  0.60383409  0.51844553  0.64313943  1.0000
  H   H72       1.0  0.47216102000000004  0.36397185000000004  0.57582721  1.0000
  C   C1        1.0  0.79729245  0.41946477  0.16034268  1.0000
  C   C2        1.0  0.87126723  0.57135931  0.11213235  1.0000
  C   C3        1.0  0.86495202  0.74223255  0.24838920000000006  1.0000
  C   C4        1.0  0.95026182  0.8135383899999998  0.36753258000000005  1.0000
  C   C5        1.0  0.96441981  0.94577199  0.41950743  1.0000
  C   C6        1.0  0.69921657  0.88707945  0.54755443  1.0000
  C   C7        1.0  0.62378452  0.85717111  0.6600607200000003  1.0000
  C   C8        1.0  0.76810776  0.81167546  0.76802238  1.0000
  C   C9        1.0  0.87875929  0.94206576  0.85120215  1.0000
  C   C10       1.0  0.93682691  0.9338576000000001  0.95470401  1.0000
  C   C11       1.0  0.08921338000000001  0.44795942999999994  0.15276979  1.0000
  C   C12       1.0  0.24646192000000003  0.62269743  0.18508921000000003  1.0000
  C   C13       1.0  0.37933605  0.6395612  0.3572826  1.0000
  C   C14       1.0  0.55513622  0.47049762000000006  0.29656115  1.0000
  C   C15       1.0  0.6642472800000001  0.52731174  0.40129810000000005  1.0000
  C   C16       1.0  0.69854199  0.42698832  0.409605  1.0000
  C   C17       1.0  0.82651522  0.48749177  0.49016153  1.0000
  C   C18       1.0  0.8658715700000001  0.38917958  0.4888636  1.0000
  C   C19       1.0  0.78195646  0.20905211  0.63860551  1.0000
  C   C20       1.0  0.6913292999999999  0.19455704  0.48303614  1.0000
  C   C21       1.0  0.50175796  0.55591607  0.28999068  1.0000
  C   C22       1.0  0.44045191  0.56238926  0.36604032  1.0000
  C   C23       1.0  0.15313637  0.50857654  0.81341623  1.0000
  C   C24       1.0  0.08998746000000006  0.34250344000000005  0.8495837000000002  1.0000
  C   C25       1.0  0.12906360999999994  0.20628328999999998  0.71551854  1.0000
  C   C26       1.0  0.04385354000000001  0.13689775999999998  0.59623109  1.0000
  C   C27       1.0  0.03859261999999999  0.01088294999999999  0.54118976  1.0000
  C   C28       1.0  0.32152435  0.12730357000000003  0.44675322000000006  1.0000
  C   C29       1.0  0.37453964000000006  0.15695745000000003  0.32336495000000004  1.0000
  C   C30       1.0  0.21219409  0.18838809  0.22628849  1.0000
  C   C31       1.0  0.10431696  0.056718590000000006  0.14187858  1.0000
  C   C32       1.0  0.04189868  0.06630781  0.04071813  1.0000
  C   C33       1.0  0.9232205100000004  0.6030910100000002  0.8199786400000002  1.0000
  C   C34       1.0  0.80147684  0.45283188  0.85078088  1.0000
  C   C35       1.0  0.61740951  0.36839205999999997  0.68309807  1.0000
  C   C36       1.0  0.4449765000000001  0.54928075  0.7159651600000001  1.0000
  C   C37       1.0  0.33637271  0.48212555  0.60827191  1.0000
  C   C38       1.0  0.29306874  0.57483563  0.59736895  1.0000
  C   C39       1.0  0.17452328000000003  0.51596393  0.50237841  1.0000
  C   C40       1.0  0.13182977000000012  0.6121184900000001  0.50424326  1.0000
  C   C41       1.0  0.27861932  0.84104559  0.41105744  1.0000
  C   C42       1.0  0.32101774000000005  0.8282799100000001  0.56358516  1.0000
  C   C43       1.0  0.50205406  0.47071113000000003  0.7377734300000001  1.0000
  C   C44       1.0  0.54745516  0.43268029  0.65461116  1.0000
  N   N1        1.0  0.84874035  0.61510639  0.19690043000000002  1.0000
  N   N2        1.0  0.80101851  0.51831288  0.22944904  1.0000
  N   N3        1.0  0.83938328  0.4468582  0.086468  1.0000
  N   N4        1.0  0.7094750700000002  0.8260634900000001  0.6747247800000001  1.0000
  N   N5        1.0  0.7604637400000002  0.84722671  0.60367087  1.0000
  N   N6        1.0  0.61460563  0.8944403  0.57843521  1.0000
  N   N7        1.0  0.27189101  0.57539562  0.2582  1.0000
  N   N8        1.0  0.17199917  0.46335492  0.23854685  1.0000
  N   N9        1.0  0.1305595  0.54320732  0.11655962  1.0000
  N   N10       1.0  0.80592342  0.29585881  0.52915912  1.0000
  N   N11       1.0  0.8651845300000001  0.30585408  0.62866596  1.0000
  N   N12       1.0  0.67352512  0.13866873  0.55193554  1.0000
  N   N13       1.0  0.13005616000000003  0.32184002  0.77254266  1.0000
  N   N14       1.0  0.1710483  0.42774833  0.74854525  1.0000
  N   N15       1.0  0.10414259000000002  0.46114263  0.87729  1.0000
  N   N16       1.0  0.28087197  0.17344224  0.31405569  1.0000
  N   N17       1.0  0.24416847  0.15276584  0.39253622  1.0000
  N   N18       1.0  0.40360343  0.12890009  0.40766899000000006  1.0000
  N   N19       1.0  0.74028631  0.46093128999999994  0.76286791  1.0000
  N   N20       1.0  0.8175166000000001  0.5569254100000001  0.7422351400000001  1.0000
  N   N21       1.0  0.9186200200000002  0.5431848300000002  0.8887784000000002  1.0000
  N   N22       1.0  0.20983617  0.72575201  0.4920956  1.0000
  N   N23       1.0  0.18166185000000004  0.7337622  0.39428255000000006  1.0000
  N   N24       1.0  0.36748463  0.9024423  0.51293363  1.0000
