data_image0
_chemical_formula_structural       Ca6H12C36O24
_chemical_formula_sum              "Ca6 H12 C36 O24"
_cell_length_a       9.9261
_cell_length_b       9.9261
_cell_length_c       18.2873
_cell_angle_alpha    84.2229
_cell_angle_beta     76.6868
_cell_angle_gamma    112.974

_space_group_name_H-M_alt    "P 1"
_space_group_IT_number       1

loop_
  _space_group_symop_operation_xyz
  'x, y, z'

loop_
  _atom_site_type_symbol
  _atom_site_label
  _atom_site_symmetry_multiplicity
  _atom_site_fract_x
  _atom_site_fract_y
  _atom_site_fract_z
  _atom_site_occupancy
  Ca  Ca1       1.0  0.40156  0.74136  0.04871999999999999  1.0000
  Ca  Ca2       1.0  0.29008  0.45027999999999996  0.45127999999999996  1.0000
  Ca  Ca3       1.0  0.5984400000000001  0.25864000000000004  0.95128  1.0000
  Ca  Ca4       1.0  0.70992  0.54972  0.54872  1.0000
  Ca  Ca5       1.0  0.20625999999999997  0.45625999999999994  0.25  1.0000
  Ca  Ca6       1.0  0.7937400000000003  0.54374  0.75  1.0000
  H   H1        1.0  0.5446  0.6104  0.2752  1.0000
  H   H2        1.0  0.8692000000000001  0.6787999999999997  0.08  1.0000
  H   H3        1.0  0.952  0.6274  0.2836  1.0000
  H   H4        1.0  0.38559999999999994  0.8197999999999999  0.2248  1.0000
  H   H5        1.0  0.2587999999999999  0.9491999999999999  0.42  1.0000
  H   H6        1.0  0.41099999999999987  0.23560000000000003  0.2164  1.0000
  H   H7        1.0  0.4554  0.3896  0.7248  1.0000
  H   H8        1.0  0.1308  0.3212  0.92  1.0000
  H   H9        1.0  0.047999999999999966  0.3726  0.7164  1.0000
  H   H10       1.0  0.6144  0.18019999999999997  0.7752  1.0000
  H   H11       1.0  0.7412  0.050800000000000005  0.58  1.0000
  H   H12       1.0  0.5889999999999999  0.7643999999999997  0.7836  1.0000
  C   C1        1.0  0.6426299999999998  0.6220999999999998  0.25027  1.0000
  C   C2        1.0  0.69023  0.6438  0.17077  1.0000
  C   C3        1.0  0.93477  0.65436  0.17587  1.0000
  C   C4        1.0  0.5827  0.6524  0.1263  1.0000
  C   C5        1.0  0.83657  0.66186  0.13337  1.0000
  C   C6        1.0  0.09237999999999996  0.6736  0.13462  1.0000
  C   C7        1.0  0.6855399999999998  0.5930999999999998  0.37936  1.0000
  C   C8        1.0  0.88675  0.6324  0.25525  1.0000
  C   C9        1.0  0.74107  0.6178  0.29293  1.0000
  C   C10       1.0  0.37237  0.8929  0.24973  1.0000
  C   C11       1.0  0.31457  0.861  0.32923  1.0000
  C   C12       1.0  0.3302300000000001  0.11064000000000002  0.32413  1.0000
  C   C13       1.0  0.2787  0.709  0.3736999999999999  1.0000
  C   C14       1.0  0.29522999999999994  0.9699399999999999  0.36663  1.0000
  C   C15       1.0  0.30821999999999994  0.22699999999999998  0.36538  1.0000
  C   C16       1.0  0.47246  0.06489999999999999  0.12064000000000001  1.0000
  C   C17       1.0  0.38765000000000005  0.14200000000000002  0.24474999999999997  1.0000
  C   C18       1.0  0.41073  0.03399999999999999  0.20707  1.0000
  C   C19       1.0  0.35736999999999997  0.37789999999999996  0.74973  1.0000
  C   C20       1.0  0.30977  0.35620000000000007  0.82923  1.0000
  C   C21       1.0  0.06522999999999995  0.34563999999999995  0.82413  1.0000
  C   C22       1.0  0.4173  0.34759999999999996  0.8737  1.0000
  C   C23       1.0  0.16343  0.33814000000000005  0.86663  1.0000
  C   C24       1.0  0.90762  0.3264000000000001  0.8653799999999999  1.0000
  C   C25       1.0  0.31446  0.4069  0.62064  1.0000
  C   C26       1.0  0.11324999999999999  0.3675999999999999  0.74475  1.0000
  C   C27       1.0  0.25893  0.3822  0.70707  1.0000
  C   C28       1.0  0.6276300000000002  0.10709999999999999  0.75027  1.0000
  C   C29       1.0  0.6854300000000003  0.139  0.67077  1.0000
  C   C30       1.0  0.6697699999999999  0.8893599999999999  0.67587  1.0000
  C   C31       1.0  0.7212999999999999  0.2909999999999998  0.6263  1.0000
  C   C32       1.0  0.70477  0.030060000000000007  0.63337  1.0000
  C   C33       1.0  0.69178  0.7729999999999999  0.63462  1.0000
  C   C34       1.0  0.52754  0.9350999999999999  0.87936  1.0000
  C   C35       1.0  0.61235  0.858  0.75525  1.0000
  C   C36       1.0  0.58927  0.966  0.7929299999999999  1.0000
  O   O1        1.0  0.4429199999999999  0.6064  0.16148  1.0000
  O   O2        1.0  0.63596  0.70881  0.05503  1.0000
  O   O3        1.0  0.16281000000000007  0.62387  0.17152  1.0000
  O   O4        1.0  0.15110000000000004  0.73857  0.06533  1.0000
  O   O5        1.0  0.77964  0.5962  0.41576  1.0000
  O   O6        1.0  0.5498299999999999  0.5719899999999999  0.40978  1.0000
  O   O7        1.0  0.26787999999999995  0.6044  0.33852  1.0000
  O   O8        1.0  0.26384  0.69099  0.44497  1.0000
  O   O9        1.0  0.2953899999999999  0.3343299999999999  0.32848  1.0000
  O   O10       1.0  0.3039  0.21643  0.43466999999999995  1.0000
  O   O11       1.0  0.51196  0.19539999999999996  0.08424  1.0000
  O   O12       1.0  0.48176999999999987  0.9596099999999999  0.09022  1.0000
  O   O13       1.0  0.5570800000000004  0.3936  0.83852  1.0000
  O   O14       1.0  0.36404  0.29119000000000006  0.9449699999999999  1.0000
  O   O15       1.0  0.8371900000000002  0.3761300000000001  0.82848  1.0000
  O   O16       1.0  0.8488999999999998  0.26142999999999983  0.9346700000000001  1.0000
  O   O17       1.0  0.22035999999999997  0.4038  0.58424  1.0000
  O   O18       1.0  0.45016999999999996  0.42801000000000006  0.59022  1.0000
  O   O19       1.0  0.7321199999999999  0.39559999999999995  0.66148  1.0000
  O   O20       1.0  0.7361600000000001  0.30901  0.55503  1.0000
  O   O21       1.0  0.7046099999999996  0.66567  0.67152  1.0000
  O   O22       1.0  0.6961  0.78357  0.56533  1.0000
  O   O23       1.0  0.48803999999999986  0.8045999999999999  0.91576  1.0000
  O   O24       1.0  0.51823  0.04039000000000003  0.90978  1.0000
