data_image0
_chemical_formula_structural       Cd4H32C24N24Cl4
_chemical_formula_sum              "Cd4 H32 C24 N24 Cl4"
_cell_length_a       7.58797679
_cell_length_b       21.1107689
_cell_length_c       9.89516868
_cell_angle_alpha    90.0
_cell_angle_beta     90.0
_cell_angle_gamma    90.0

_symmetry_space_group_name_H-M    'P 1'
_symmetry_Int_Tables_number       1

loop_
  _symmetry_equiv_pos_as_xyz
  'x,y,z'

loop_
  _atom_site_type_symbol
  _atom_site_label
  _atom_site_symmetry_multiplicity
  _atom_site_fract_x
  _atom_site_fract_y
  _atom_site_fract_z
  _atom_site_occupancy
  Cd  Cd1       1.0  0.7500000000000002  0.25  0.24999999999999994  1.0000
  Cd  Cd2       1.0  0.25  0.25  0.24999999999999994  1.0000
  Cd  Cd3       1.0  0.25  0.7500000000000001  0.75  1.0000
  Cd  Cd4       1.0  0.7500000000000002  0.7500000000000001  0.75  1.0000
  H   H1        1.0  0.7809074400000002  0.10875219000000001  0.046222929999999995  1.0000
  H   H2        1.0  0.3827069300000001  0.025668510000000002  0.88466797  1.0000
  H   H3        1.0  0.2809074400000001  0.60875219  0.54622293  1.0000
  H   H4        1.0  0.8827069300000002  0.52566851  0.38466797  1.0000
  H   H5        1.0  0.21909256000000005  0.39124781000000003  0.046222929999999995  1.0000
  H   H6        1.0  0.6172930700000001  0.47433149  0.88466797  1.0000
  H   H7        1.0  0.7190925600000002  0.8912478100000001  0.54622293  1.0000
  H   H8        1.0  0.11729307  0.97433149  0.38466797  1.0000
  H   H9        1.0  0.21909256000000005  0.60875219  0.9537770699999999  1.0000
  H   H10       1.0  0.6172930700000001  0.52566851  0.11533203  1.0000
  H   H11       1.0  0.7190925600000002  0.10875219000000001  0.45377706999999995  1.0000
  H   H12       1.0  0.11729307  0.025668510000000002  0.6153320299999999  1.0000
  H   H13       1.0  0.7809074400000002  0.8912478100000001  0.9537770699999999  1.0000
  H   H14       1.0  0.3827069300000001  0.97433149  0.11533203  1.0000
  H   H15       1.0  0.2809074400000001  0.39124781000000003  0.45377706999999995  1.0000
  H   H16       1.0  0.8827069300000002  0.47433149  0.6153320299999999  1.0000
  H   H17       1.0  0.21909256000000005  0.8912478100000001  0.9537770699999999  1.0000
  H   H18       1.0  0.6172930700000001  0.97433149  0.11533203  1.0000
  H   H19       1.0  0.7190925600000002  0.39124781000000003  0.45377706999999995  1.0000
  H   H20       1.0  0.11729307  0.47433149  0.6153320299999999  1.0000
  H   H21       1.0  0.7809074400000002  0.60875219  0.9537770699999999  1.0000
  H   H22       1.0  0.3827069300000001  0.52566851  0.11533203  1.0000
  H   H23       1.0  0.2809074400000001  0.10875219000000001  0.45377706999999995  1.0000
  H   H24       1.0  0.8827069300000002  0.025668510000000002  0.6153320299999999  1.0000
  H   H25       1.0  0.7809074400000002  0.39124781000000003  0.046222929999999995  1.0000
  H   H26       1.0  0.3827069300000001  0.47433149  0.88466797  1.0000
  H   H27       1.0  0.2809074400000001  0.8912478100000001  0.54622293  1.0000
  H   H28       1.0  0.8827069300000002  0.97433149  0.38466797  1.0000
  H   H29       1.0  0.21909256000000005  0.10875219000000001  0.046222929999999995  1.0000
  H   H30       1.0  0.6172930700000001  0.025668510000000002  0.88466797  1.0000
  H   H31       1.0  0.7190925600000002  0.60875219  0.54622293  1.0000
  H   H32       1.0  0.11729307  0.52566851  0.38466797  1.0000
  C   C1        1.0  0.6448697800000002  0.11955327000000002  0.07063803  1.0000
  C   C2        1.0  0.14486978  0.61955327  0.57063803  1.0000
  C   C3        1.0  0.3551302200000001  0.38044673  0.07063803  1.0000
  C   C4        1.0  0.8551302200000003  0.88044673  0.57063803  1.0000
  C   C5        1.0  0.3551302200000001  0.61955327  0.9293619699999999  1.0000
  C   C6        1.0  0.8551302200000003  0.11955327000000002  0.42936197  1.0000
  C   C7        1.0  0.6448697800000002  0.88044673  0.9293619699999999  1.0000
  C   C8        1.0  0.14486978  0.38044673  0.42936197  1.0000
  C   C9        1.0  0.3551302200000001  0.88044673  0.9293619699999999  1.0000
  C   C10       1.0  0.8551302200000003  0.38044673  0.42936197  1.0000
  C   C11       1.0  0.6448697800000002  0.61955327  0.9293619699999999  1.0000
  C   C12       1.0  0.14486978  0.11955327000000002  0.42936197  1.0000
  C   C13       1.0  0.6448697800000002  0.38044673  0.07063803  1.0000
  C   C14       1.0  0.14486978  0.88044673  0.57063803  1.0000
  C   C15       1.0  0.3551302200000001  0.11955327000000002  0.07063803  1.0000
  C   C16       1.0  0.8551302200000003  0.61955327  0.57063803  1.0000
  C   C17       1.0  0.5  0.02813617  0.95072094  1.0000
  C   C18       1.0  0.0  0.52813617  0.45072094  1.0000
  C   C19       1.0  0.5  0.47186383000000004  0.95072094  1.0000
  C   C20       1.0  0.0  0.97186383  0.45072094  1.0000
  C   C21       1.0  0.5  0.52813617  0.049279059999999986  1.0000
  C   C22       1.0  0.0  0.02813617  0.54927906  1.0000
  C   C23       1.0  0.5  0.97186383  0.049279059999999986  1.0000
  C   C24       1.0  0.0  0.47186383000000004  0.54927906  1.0000
  N   N1        1.0  0.5894215100000001  0.17035723  0.13756653  1.0000
  N   N2        1.0  0.08942151000000002  0.67035723  0.63756653  1.0000
  N   N3        1.0  0.41057849000000013  0.32964277  0.13756653  1.0000
  N   N4        1.0  0.9105784900000002  0.82964277  0.63756653  1.0000
  N   N5        1.0  0.41057849000000013  0.67035723  0.8624334699999999  1.0000
  N   N6        1.0  0.9105784900000002  0.17035723  0.36243347  1.0000
  N   N7        1.0  0.5894215100000001  0.82964277  0.8624334699999999  1.0000
  N   N8        1.0  0.08942151000000002  0.32964277  0.36243347  1.0000
  N   N9        1.0  0.41057849000000013  0.82964277  0.8624334699999999  1.0000
  N   N10       1.0  0.9105784900000002  0.32964277  0.36243347  1.0000
  N   N11       1.0  0.5894215100000001  0.67035723  0.8624334699999999  1.0000
  N   N12       1.0  0.08942151000000002  0.17035723  0.36243347  1.0000
  N   N13       1.0  0.5894215100000001  0.32964277  0.13756653  1.0000
  N   N14       1.0  0.08942151000000002  0.82964277  0.63756653  1.0000
  N   N15       1.0  0.41057849000000013  0.17035723  0.13756653  1.0000
  N   N16       1.0  0.9105784900000002  0.67035723  0.63756653  1.0000
  N   N17       1.0  0.5  0.0873313  0.021250609999999996  1.0000
  N   N18       1.0  0.0  0.5873313  0.5212506099999998  1.0000
  N   N19       1.0  0.5  0.4126687  0.021250609999999996  1.0000
  N   N20       1.0  0.0  0.9126687000000001  0.5212506099999998  1.0000
  N   N21       1.0  0.5  0.5873313  0.9787493899999999  1.0000
  N   N22       1.0  0.0  0.0873313  0.47874939  1.0000
  N   N23       1.0  0.5  0.9126687000000001  0.9787493899999999  1.0000
  N   N24       1.0  0.0  0.4126687  0.47874939  1.0000
  Cl  Cl1       1.0  0.0  0.25  0.0616881  1.0000
  Cl  Cl2       1.0  0.5  0.7500000000000001  0.5616881  1.0000
  Cl  Cl3       1.0  0.0  0.7500000000000001  0.9383118999999999  1.0000
  Cl  Cl4       1.0  0.5  0.25  0.4383118999999999  1.0000
