data_image0
_chemical_formula_structural       C8F6H8N4NiTi
_chemical_formula_sum              "C8 F6 H8 N4 Ni1 Ti1"
_cell_length_a       6.9978
_cell_length_b       6.9978
_cell_length_c       7.7936
_cell_angle_alpha    90.0
_cell_angle_beta     90.0
_cell_angle_gamma    90.0

_space_group_name_H-M_alt    "P 1"
_space_group_IT_number       1

loop_
  _space_group_symop_operation_xyz
  'x, y, z'

loop_
  _atom_site_type_symbol
  _atom_site_label
  _atom_site_symmetry_multiplicity
  _atom_site_fract_x
  _atom_site_fract_y
  _atom_site_fract_z
  _atom_site_occupancy
  C   C1        1.0  0.94476  0.59936  0.8645399999999998  1.0000
  C   C2        1.0  0.39983  0.94654  0.14578999999999995  1.0000
  C   C3        1.0  0.9471  0.39952  0.8617299999999998  1.0000
  C   C4        1.0  0.59973  0.94443  0.14307  1.0000
  C   C5        1.0  0.04918  0.59514  0.14495999999999995  1.0000
  C   C6        1.0  0.39563  0.05210000000000001  0.8658099999999997  1.0000
  C   C7        1.0  0.05171  0.39526  0.14200999999999997  1.0000
  C   C8        1.0  0.59547  0.04962  0.86286  1.0000
  F   F1        1.0  0.99972  0.99965  0.2576799999999999  1.0000
  F   F2        1.0  0.99983  0.99952  0.74957  1.0000
  F   F3        1.0  0.18590000000000004  0.80571  0.4997899999999999  1.0000
  F   F4        1.0  0.81342  0.18541000000000002  0.50101  1.0000
  F   F5        1.0  0.18645  0.18539000000000003  0.50032  1.0000
  F   F6        1.0  0.81401  0.80559  0.50025  1.0000
  H   H1        1.0  0.09573  0.31533  0.25518  1.0000
  H   H2        1.0  0.90752  0.32361  0.7451499999999998  1.0000
  H   H3        1.0  0.08893  0.67103  0.26154  1.0000
  H   H4        1.0  0.31564  0.09654000000000001  0.7528399999999997  1.0000
  H   H5        1.0  0.90127  0.67927  0.7511899999999998  1.0000
  H   H6        1.0  0.67162  0.08966  0.74651  1.0000
  H   H7        1.0  0.32388  0.9061900000000002  0.2621399999999999  1.0000
  H   H8        1.0  0.67981  0.90063  0.2562599999999999  1.0000
  N   N1        1.0  0.69641  0.99626  0.0015699999999999996  1.0000
  N   N2        1.0  0.99997  0.2985  0.00053  1.0000
  N   N3        1.0  0.99621  0.6961  0.006149999999999998  1.0000
  N   N4        1.0  0.29883  0.99974  0.007099999999999999  1.0000
  Ni  Ni1       1.0  0.99634  0.99625  0.00398  1.0000
  Ti  Ti1       1.0  0.99981  0.99629  0.50318  1.0000
