data_image0
_chemical_formula_structural       Cu4H32C48N8O16
_chemical_formula_sum              "Cu4 H32 C48 N8 O16"
_cell_length_a       4.5314905
_cell_length_b       25.21983926
_cell_length_c       10.95691031
_cell_angle_alpha    89.99929565
_cell_angle_beta     93.89487497
_cell_angle_gamma    89.99952664999999

_symmetry_space_group_name_H-M    'P 1'
_symmetry_Int_Tables_number       1

loop_
  _symmetry_equiv_pos_as_xyz
  'x,y,z'

loop_
  _atom_site_type_symbol
  _atom_site_label
  _atom_site_symmetry_multiplicity
  _atom_site_fract_x
  _atom_site_fract_y
  _atom_site_fract_z
  _atom_site_occupancy
  Cu  Cu1       1.0  0.04757856000000001  0.11523426  0.7826243900000001  1.0000
  Cu  Cu2       1.0  0.54757636  0.61523041  0.78262838  1.0000
  Cu  Cu3       1.0  0.047582919999999994  0.88477319  0.28264514  1.0000
  Cu  Cu4       1.0  0.54758054  0.38476536  0.28262503  1.0000
  H   H1        1.0  0.37791286  0.33143641000000007  0.51718035  1.0000
  H   H2        1.0  0.53748262  0.24676524000000002  0.62767785  1.0000
  H   H3        1.0  0.23532151000000004  0.23258312  0.3847335800000001  1.0000
  H   H4        1.0  0.030244660000000013  0.3128238  0.27389961  1.0000
  H   H5        1.0  0.5297722100000002  0.89435171  0.10630109  1.0000
  H   H6        1.0  0.30087294  0.96335093  0.9660141100000001  1.0000
  H   H7        1.0  0.04212285  0.06373037  0.06240871  1.0000
  H   H8        1.0  0.22655512000000003  0.99380007  0.21579277  1.0000
  H   H9        1.0  0.87791105  0.83143675  0.51718347  1.0000
  H   H10       1.0  0.03747321000000001  0.74676507  0.6276804  1.0000
  H   H11       1.0  0.7353199600000002  0.73258227  0.38473243000000007  1.0000
  H   H12       1.0  0.53025361  0.8128238300000001  0.27389799  1.0000
  H   H13       1.0  0.029776980000000015  0.3943519300000001  0.10630089000000001  1.0000
  H   H14       1.0  0.80087927  0.4633523700000001  0.9660133  1.0000
  H   H15       1.0  0.54211646  0.56373035  0.06240827  1.0000
  H   H16       1.0  0.72655094  0.49379968000000013  0.21578869000000003  1.0000
  H   H17       1.0  0.37791137000000014  0.66856427  0.01718107  1.0000
  H   H18       1.0  0.53748587  0.75323483  0.12767802  1.0000
  H   H19       1.0  0.23532333000000005  0.76741693  0.88473332  1.0000
  H   H20       1.0  0.030246449999999984  0.68717574  0.7738993999999999  1.0000
  H   H21       1.0  0.5297749000000003  0.10564865  0.60629918  1.0000
  H   H22       1.0  0.30087814  0.03664735  0.46601439  1.0000
  H   H23       1.0  0.04211869  0.93626902  0.56240977  1.0000
  H   H24       1.0  0.22655114000000004  0.00620114  0.71578929  1.0000
  H   H25       1.0  0.87791567  0.16856483  0.01718005  1.0000
  H   H26       1.0  0.03748763  0.2532366  0.12767526  1.0000
  H   H27       1.0  0.735324  0.26741808  0.88473418  1.0000
  H   H28       1.0  0.5302482900000001  0.18717659000000003  0.7738989000000001  1.0000
  H   H29       1.0  0.029774450000000004  0.60564777  0.60630018  1.0000
  H   H30       1.0  0.8008757500000002  0.53664721  0.46601251  1.0000
  H   H31       1.0  0.54211057  0.43626912  0.56240696  1.0000
  H   H32       1.0  0.72654868  0.50620029  0.71578895  1.0000
  C   C1        1.0  0.5521301200000001  0.30611875  0.48689810000000006  1.0000
  C   C2        1.0  0.6603953400000002  0.26218387  0.55388515  1.0000
  C   C3        1.0  0.9121681200000002  0.23628404  0.52168738  1.0000
  C   C4        1.0  0.05540336000000001  0.25499944  0.42017006000000007  1.0000
  C   C5        1.0  0.9306121400000001  0.298059  0.355011  1.0000
  C   C6        1.0  0.02782395000000001  0.18827000000000005  0.58926167  1.0000
  C   C7        1.0  0.6328007800000002  0.93317897  0.09878466000000001  1.0000
  C   C8        1.0  0.49582869  0.97288396  0.024907290000000002  1.0000
  C   C9        1.0  0.64656626  0.0211602  0.01249922  1.0000
  C   C10       1.0  0.9179501  0.027649150000000004  0.07618535  1.0000
  C   C11       1.0  0.03772878000000002  0.98732783  0.15147001  1.0000
  C   C12       1.0  0.5372904500000002  0.06495194  0.9286470299999999  1.0000
  C   C13       1.0  0.05209869  0.80612639  0.4868912  1.0000
  C   C14       1.0  0.16041406  0.7621816  0.55388281  1.0000
  C   C15       1.0  0.41215987  0.73628464  0.52168703  1.0000
  C   C16       1.0  0.5553976400000001  0.7549966500000002  0.42018024  1.0000
  C   C17       1.0  0.43056422  0.79806885  0.3550053  1.0000
  C   C18       1.0  0.5278145  0.68826551  0.58927055  1.0000
  C   C19       1.0  0.13279335  0.43318801000000007  0.0987706  1.0000
  C   C20       1.0  0.9958269800000001  0.47288002  0.024905610000000005  1.0000
  C   C21       1.0  0.14657110000000007  0.52116187  0.01249795  1.0000
  C   C22       1.0  0.4179675100000001  0.52764875  0.07618765  1.0000
  C   C23       1.0  0.5377206300000001  0.48733592  0.15145532  1.0000
  C   C24       1.0  0.03728938  0.56494913  0.9286523699999999  1.0000
  C   C25       1.0  0.55213481  0.69388135  0.9868987500000002  1.0000
  C   C26       1.0  0.6603949000000001  0.7378160100000001  0.05388617  1.0000
  C   C27       1.0  0.91215153  0.76371173  0.02169028  1.0000
  C   C28       1.0  0.05541405999999998  0.7450031100000001  0.92016964  1.0000
  C   C29       1.0  0.93060249  0.7019403500000001  0.8550140000000002  1.0000
  C   C30       1.0  0.02785165  0.8117307700000002  0.08925782  1.0000
  C   C31       1.0  0.6327984500000001  0.06681206  0.59877024  1.0000
  C   C32       1.0  0.4958283900000001  0.02711943  0.52490601  1.0000
  C   C33       1.0  0.64656254  0.97884064  0.51250166  1.0000
  C   C34       1.0  0.9179698800000001  0.9723492000000001  0.57618553  1.0000
  C   C35       1.0  0.037712779999999994  0.012665830000000003  0.65145415  1.0000
  C   C36       1.0  0.53732837  0.9350397600000001  0.42865043  1.0000
  C   C37       1.0  0.05213242  0.19388266000000007  0.98689785  1.0000
  C   C38       1.0  0.16039849  0.23781737  0.05388394  1.0000
  C   C39       1.0  0.41217012  0.26371673  0.02168592  1.0000
  C   C40       1.0  0.5554052  0.24500155  0.92016924  1.0000
  C   C41       1.0  0.43061672  0.20194192  0.85501031  1.0000
  C   C42       1.0  0.52782385  0.31173145  0.08926116  1.0000
  C   C43       1.0  0.13278934000000006  0.56681213  0.5987699  1.0000
  C   C44       1.0  0.99582678  0.52712008  0.52490595  1.0000
  C   C45       1.0  0.14657040000000005  0.4788381200000001  0.5124977  1.0000
  C   C46       1.0  0.4179639200000001  0.4723514  0.5761872  1.0000
  C   C47       1.0  0.5377208600000001  0.51266387  0.65145553  1.0000
  C   C48       1.0  0.03729345000000002  0.43504837  0.4286504400000001  1.0000
  N   N1        1.0  0.6927102000000003  0.32374592  0.38937291000000007  1.0000
  N   N2        1.0  0.8919513  0.94063812  0.16265382  1.0000
  N   N3        1.0  0.19277179000000008  0.82372975  0.38938498  1.0000
  N   N4        1.0  0.39196533000000006  0.44062931  0.1626802  1.0000
  N   N5        1.0  0.69271029  0.6762552100000001  0.8893736800000002  1.0000
  N   N6        1.0  0.89197089  0.05937146000000001  0.66267954  1.0000
  N   N7        1.0  0.19271376000000007  0.17625515  0.8893723300000002  1.0000
  N   N8        1.0  0.39196511  0.55937149  0.66268076  1.0000
  O   O1        1.0  0.87169823  0.17293693  0.6777753  1.0000
  O   O2        1.0  0.25908243  0.16669387  0.55771044  1.0000
  O   O3        1.0  0.28748630000000003  0.05727687000000001  0.8684792800000001  1.0000
  O   O4        1.0  0.7007854400000001  0.10499156000000001  0.9215301000000001  1.0000
  O   O5        1.0  0.37169961  0.67293804  0.67777076  1.0000
  O   O6        1.0  0.75908053  0.6666956  0.5577063  1.0000
  O   O7        1.0  0.7874823400000001  0.55727976  0.8684783  1.0000
  O   O8        1.0  0.20078441000000002  0.60499543  0.9215274200000001  1.0000
  O   O9        1.0  0.8716712600000002  0.82705662  0.17775383  1.0000
  O   O10       1.0  0.2590658500000001  0.8333032900000001  0.05771322000000001  1.0000
  O   O11       1.0  0.28750473  0.94273373  0.36847681  1.0000
  O   O12       1.0  0.70076775  0.8950062500000002  0.42153865  1.0000
  O   O13       1.0  0.3717025  0.32706442  0.17777347  1.0000
  O   O14       1.0  0.7590814100000001  0.33330666  0.05770951  1.0000
  O   O15       1.0  0.78748634  0.44272183  0.36847788  1.0000
  O   O16       1.0  0.20078522000000004  0.39500682  0.42152925999999996  1.0000
