data_image0
_chemical_formula_structural       Cu4H8C28O24
_chemical_formula_sum              "Cu4 H8 C28 O24"
_cell_length_a       8.54302714
_cell_length_b       11.37913572
_cell_length_c       13.939748870000003
_cell_angle_alpha    89.99997031999999
_cell_angle_beta     112.7027311
_cell_angle_gamma    89.99959169

_space_group_name_H-M_alt    "P 1"
_space_group_IT_number       1

loop_
  _space_group_symop_operation_xyz
  'x, y, z'

loop_
  _atom_site_type_symbol
  _atom_site_label
  _atom_site_symmetry_multiplicity
  _atom_site_fract_x
  _atom_site_fract_y
  _atom_site_fract_z
  _atom_site_occupancy
  Cu  Cu1       1.0  0.61222311  0.41378977  0.52967817  1.0000
  Cu  Cu2       1.0  0.38777929000000005  0.91378964  0.97032551  1.0000
  Cu  Cu3       1.0  0.38768136  0.5861717  0.47029209  1.0000
  Cu  Cu4       1.0  0.61232499  0.0861802  0.02970746  1.0000
  H   H1        1.0  0.01773546000000003  0.59281979  0.46902620000000006  1.0000
  H   H2        1.0  0.02235571000000001  0.8752370100000001  0.25827914  1.0000
  H   H3        1.0  0.98226448  0.09281923000000002  0.03097466  1.0000
  H   H4        1.0  0.9776474599999999  0.37523940000000006  0.24172156  1.0000
  H   H5        1.0  0.9822531000000001  0.40718065  0.53097402  1.0000
  H   H6        1.0  0.9776459700000001  0.12475922  0.74172282  1.0000
  H   H7        1.0  0.017743670000000083  0.90718319  0.96902298  1.0000
  H   H8        1.0  0.022350850000000068  0.62475886  0.7582783500000001  1.0000
  C   C1        1.0  0.95459933  0.65511251  0.40694039  1.0000
  C   C2        1.0  0.78270236  0.66291015  0.36600839  1.0000
  C   C3        1.0  0.78569824  0.8106653500000001  0.25122569  1.0000
  C   C4        1.0  0.95788692  0.81316257  0.28987364  1.0000
  C   C5        1.0  0.055462439999999995  0.73154201  0.37055391  1.0000
  C   C6        1.0  0.67094845  0.59716011  0.40834934  1.0000
  C   C7        1.0  0.67473287  0.88315163  0.16042188000000002  1.0000
  C   C8        1.0  0.04540448  0.15511244  0.0930606  1.0000
  C   C9        1.0  0.21729907  0.16291085  0.13399293  1.0000
  C   C10       1.0  0.21430159  0.3106656  0.24877439  1.0000
  C   C11       1.0  0.042109990000000035  0.31316236  0.21012468000000004  1.0000
  C   C12       1.0  0.94453718  0.23154772  0.12944872  1.0000
  C   C13       1.0  0.3290484300000001  0.09716179000000001  0.09165095  1.0000
  C   C14       1.0  0.32526845  0.38315303  0.33958  1.0000
  C   C15       1.0  0.04536895999999998  0.34490176  0.59306445  1.0000
  C   C16       1.0  0.21726501000000004  0.33711654  0.6339458  1.0000
  C   C17       1.0  0.21430950999999995  0.18937247  0.74874105  1.0000
  C   C18       1.0  0.04211575000000001  0.18684694000000004  0.71011909  1.0000
  C   C19       1.0  0.9445346300000002  0.26846568  0.62943034  1.0000
  C   C20       1.0  0.32908207  0.40277638  0.59162658  1.0000
  C   C21       1.0  0.32519726  0.11674858  0.83953935  1.0000
  C   C22       1.0  0.95462607  0.84490433  0.9069335  1.0000
  C   C23       1.0  0.78273265  0.83711895  0.86605367  1.0000
  C   C24       1.0  0.78568911  0.68937206  0.75125776  1.0000
  C   C25       1.0  0.9578858200000001  0.68684974  0.78988309  1.0000
  C   C26       1.0  0.055462460000000074  0.76846321  0.8705652300000001  1.0000
  C   C27       1.0  0.67092019  0.9027776200000001  0.90837269  1.0000
  C   C28       1.0  0.67480274  0.61674446  0.66046041  1.0000
  O   O1        1.0  0.69575796  0.73751275  0.28762117  1.0000
  O   O2        1.0  0.21492624999999996  0.72922766  0.40589266  1.0000
  O   O3        1.0  0.72934188  0.49900964  0.45079012000000007  1.0000
  O   O4        1.0  0.53616456  0.64946064  0.40111716000000003  1.0000
  O   O5        1.0  0.53652709  0.83577549  0.10234794  1.0000
  O   O6        1.0  0.736079  0.9822505500000001  0.15136044  1.0000
  O   O7        1.0  0.3042436  0.23751337  0.21237724  1.0000
  O   O8        1.0  0.78507369  0.22923016  0.09410667  1.0000
  O   O9        1.0  0.27065308  0.99900577  0.0492127  1.0000
  O   O10       1.0  0.4638294  0.14946796  0.09887813  1.0000
  O   O11       1.0  0.46346969000000005  0.33578038  0.39765536  1.0000
  O   O12       1.0  0.26392719  0.48225093  0.34863936  1.0000
  O   O13       1.0  0.30421277  0.26253139  0.71233594  1.0000
  O   O14       1.0  0.78505296  0.27079047  0.59411357  1.0000
  O   O15       1.0  0.27063385999999995  0.50099593  0.54931534  1.0000
  O   O16       1.0  0.46394179  0.35059274  0.59890384  1.0000
  O   O17       1.0  0.4633130699999999  0.16426308  0.89758324  1.0000
  O   O18       1.0  0.2639236200000002  0.01768233  0.8487270700000001  1.0000
  O   O19       1.0  0.6957876  0.76253271  0.78766515  1.0000
  O   O20       1.0  0.21494401999999999  0.77079164  0.9058836100000001  1.0000
  O   O21       1.0  0.7293701400000002  0.00100384  0.9506787900000001  1.0000
  O   O22       1.0  0.53606476  0.85058733  0.90110259  1.0000
  O   O23       1.0  0.53668959  0.66425596  0.60241464  1.0000
  O   O24       1.0  0.73607493  0.51768177  0.6512758  1.0000
