data_image0
_chemical_formula_structural       Zr6H34C48N6O32
_chemical_formula_sum              "Zr6 H34 C48 N6 O32"
_cell_length_a       14.76835
_cell_length_b       14.772639999999999
_cell_length_c       14.781230000000003
_cell_angle_alpha    90.15213
_cell_angle_beta     119.93378999999999
_cell_angle_gamma    119.79997000000002

_symmetry_space_group_name_H-M    'P 1'
_symmetry_Int_Tables_number       1

loop_
  _symmetry_equiv_pos_as_xyz
  'x,y,z'

loop_
  _atom_site_type_symbol
  _atom_site_label
  _atom_site_symmetry_multiplicity
  _atom_site_fract_x
  _atom_site_fract_y
  _atom_site_fract_z
  _atom_site_occupancy
  Zr  Zr1       1.0  0.012900000000000007  0.13248  0.12388  1.0000
  Zr  Zr2       1.0  0.25391  0.13485  0.12525  1.0000
  Zr  Zr3       1.0  0.011220000000000044  0.12925000000000003  0.8843500000000001  1.0000
  Zr  Zr4       1.0  0.7745800000000003  0.89224  0.88743  1.0000
  Zr  Zr5       1.0  0.016199999999999996  0.89556  0.12843  1.0000
  Zr  Zr6       1.0  0.014229999999999932  0.8923799999999997  0.88872  1.0000
  H   H1        1.0  0.5657100000000002  0.4231299999999999  0.41901  1.0000
  H   H2        1.0  0.059700000000000024  0.44813  0.16413  1.0000
  H   H3        1.0  0.73545  0.12283999999999996  0.56844  1.0000
  H   H4        1.0  0.9293800000000002  0.56093  0.8305000000000001  1.0000
  H   H5        1.0  0.46159999999999984  0.5857499999999998  0.61457  1.0000
  H   H6        1.0  0.55815  0.19133  0.09526999999999998  1.0000
  H   H7        1.0  0.07246000000000001  0.17824  0.62526  1.0000
  H   H8        1.0  0.46446000000000015  0.85466  0.8926400000000001  1.0000
  H   H9        1.0  0.29215000000000024  0.92608  0.46192  1.0000
  H   H10       1.0  0.4612499999999999  0.6045099999999999  0.8628499999999999  1.0000
  H   H11       1.0  0.56267  0.40945999999999994  0.12932  1.0000
  H   H12       1.0  0.98838  0.8602000000000001  0.40183  1.0000
  H   H13       1.0  0.19906000000000004  0.29485  0.09762  1.0000
  H   H14       1.0  0.8250700000000001  0.9162599999999997  0.72389  1.0000
  H   H15       1.0  0.82603  0.92057  0.10107  1.0000
  H   H16       1.0  0.20453999999999992  0.9207699999999998  0.10247  1.0000
  H   H17       1.0  0.07328  0.18664  0.45604  1.0000
  H   H18       1.0  0.7400200000000002  0.57906  0.13689  1.0000
  H   H19       1.0  0.57236  0.13088  0.40025  1.0000
  H   H20       1.0  0.06159  0.61909  0.17143  1.0000
  H   H21       1.0  0.74188  0.59215  0.58966  1.0000
  H   H22       1.0  0.28977  0.85023  0.8880000000000001  1.0000
  H   H23       1.0  0.24438000000000001  0.48443999999999987  0.79922  1.0000
  H   H24       1.0  0.85231  0.38272999999999996  0.72731  1.0000
  H   H25       1.0  0.93998  0.75961  0.51461  1.0000
  H   H26       1.0  0.7607500000000003  0.29262  0.11904  1.0000
  H   H27       1.0  0.2426000000000001  0.44989  0.47739000000000004  1.0000
  H   H28       1.0  0.3678999999999999  0.89892  0.63934  1.0000
  H   H29       1.0  0.8992800000000001  0.30186999999999997  0.79129  1.0000
  H   H30       1.0  0.5115300000000003  0.9128300000000001  0.7175000000000001  1.0000
  H   H31       1.0  0.97473  0.8229  0.63773  1.0000
  H   H32       1.0  0.8240800000000003  0.22708  0.10253999999999999  1.0000
  H   H33       1.0  0.18885  0.34542  0.36912  1.0000
  H   H34       1.0  0.1887200000000001  0.36938  0.8392700000000001  1.0000
  C   C1        1.0  0.31721  0.31407  0.31543  1.0000
  C   C2        1.0  0.3148900000000002  0.31393  0.99772  1.0000
  C   C3        1.0  0.99907  0.31071  0.99853  1.0000
  C   C4        1.0  0.7082500000000003  0.017880000000000004  0.70597  1.0000
  C   C5        1.0  0.023069999999999986  0.020939999999999976  0.31502  1.0000
  C   C6        1.0  0.004920000000000013  0.70451  0.005  1.0000
  C   C7        1.0  0.71147  0.70261  0.70838  1.0000
  C   C8        1.0  0.7117300000000002  0.70511  0.00417  1.0000
  C   C9        1.0  0.31619  0.017820000000000055  0.99867  1.0000
  C   C10       1.0  0.022760000000000002  0.014010000000000002  0.70572  1.0000
  C   C11       1.0  0.7067300000000002  0.01823999999999998  0.99755  1.0000
  C   C12       1.0  0.32129  0.023789999999999988  0.3173  1.0000
  C   C13       1.0  0.4148800000000001  0.40890999999999994  0.42003  1.0000
  C   C14       1.0  0.41251  0.41090999999999994  0.99267  1.0000
  C   C15       1.0  0.9926000000000004  0.40745  0.9939  1.0000
  C   C16       1.0  0.60742  0.021609999999999997  0.61099  1.0000
  C   C17       1.0  0.02829000000000001  0.02202999999999999  0.41854  1.0000
  C   C18       1.0  0.99572  0.59899  0.00053  1.0000
  C   C19       1.0  0.6101499999999999  0.5987399999999998  0.61048  1.0000
  C   C20       1.0  0.60938  0.6016399999999998  0.00015999999999993797  1.0000
  C   C21       1.0  0.41589  0.02125999999999999  0.99276  1.0000
  C   C22       1.0  0.02909000000000002  0.015  0.60899  1.0000
  C   C23       1.0  0.6087700000000001  0.02474999999999998  0.9948  1.0000
  C   C24       1.0  0.42263  0.027890000000000012  0.42202  1.0000
  C   C25       1.0  0.5448300000000003  0.4596799999999999  0.46340000000000003  1.0000
  C   C26       1.0  0.38106000000000007  0.46545999999999993  0.91435  1.0000
  C   C27       1.0  0.029589999999999936  0.4732099999999999  0.09126  1.0000
  C   C28       1.0  0.63828  0.08160999999999995  0.5449  1.0000
  C   C29       1.0  0.05358000000000002  0.11388999999999999  0.48135999999999995  1.0000
  C   C30       1.0  0.9563100000000002  0.53445  0.90276  1.0000
  C   C31       1.0  0.48326999999999987  0.54904  0.57116  1.0000
  C   C32       1.0  0.64039  0.54675  0.07613  1.0000
  C   C33       1.0  0.5384500000000001  0.11843999999999998  0.04985  1.0000
  C   C34       1.0  0.053499999999999985  0.10893999999999994  0.57492  1.0000
  C   C35       1.0  0.63761  0.12381999999999999  0.051570000000000005  1.0000
  C   C36       1.0  0.54873  0.08619999999999998  0.45191  1.0000
  C   C37       1.0  0.4827600000000002  0.92817  0.9352000000000001  1.0000
  C   C38       1.0  0.3902600000000002  0.97019  0.48707  1.0000
  C   C39       1.0  0.006720000000000093  0.92303  0.5468  1.0000
  C   C40       1.0  0.031079999999999924  0.5675999999999999  0.09592  1.0000
  C   C41       1.0  0.6421600000000001  0.5528600000000001  0.5572  1.0000
  C   C42       1.0  0.4823800000000001  0.56097  0.92096  1.0000
  C   C43       1.0  0.38278000000000006  0.4530799999999999  0.47653  1.0000
  C   C44       1.0  0.5423100000000002  0.45318  0.07125  1.0000
  C   C45       1.0  0.48089000000000004  0.96613  0.58336  1.0000
  C   C46       1.0  0.006389999999999994  0.92936  0.45146  1.0000
  C   C47       1.0  0.38623  0.9250599999999999  0.9326099999999999  1.0000
  C   C48       1.0  0.9524000000000004  0.4370099999999999  0.8959800000000001  1.0000
  N   N1        1.0  0.9133600000000003  0.37706  0.79692  1.0000
  N   N2        1.0  0.4428199999999999  0.9075699999999998  0.6441  1.0000
  N   N3        1.0  0.26009  0.40547  0.44462999999999997  1.0000
  N   N4        1.0  0.98746  0.8298499999999999  0.57583  1.0000
  N   N5        1.0  0.75668  0.22249999999999998  0.10913  1.0000
  N   N6        1.0  0.25771  0.42851  0.83209  1.0000
  O   O1        1.0  0.14618000000000006  0.21457  0.07121  1.0000
  O   O2        1.0  0.87808  0.9433999999999999  0.80423  1.0000
  O   O3        1.0  0.8794600000000002  0.94669  0.07413  1.0000
  O   O4        1.0  0.15048  0.9472099999999999  0.07549  1.0000
  O   O5        1.0  0.11261999999999997  0.06180999999999994  0.95619  1.0000
  O   O6        1.0  0.9131500000000001  0.06123999999999994  0.95528  1.0000
  O   O7        1.0  0.11390000000000003  0.06429  0.15501  1.0000
  O   O8        1.0  0.91548  0.8638199999999999  0.95864  1.0000
  O   O9        1.0  0.1986  0.27447  0.27127  1.0000
  O   O10       1.0  0.35272  0.27567  0.07608  1.0000
  O   O11       1.0  0.9984500000000002  0.2684  0.92174  1.0000
  O   O12       1.0  0.6735900000000002  0.94133  0.7475300000000001  1.0000
  O   O13       1.0  0.01990000000000004  0.94231  0.27328  1.0000
  O   O14       1.0  0.013340000000000001  0.74843  0.08611  1.0000
  O   O15       1.0  0.8277700000000002  0.7436199999999998  0.74538  1.0000
  O   O16       1.0  0.6748100000000002  0.74659  0.92868  1.0000
  O   O17       1.0  0.20003000000000004  0.93623  0.92694  1.0000
  O   O18       1.0  0.016389999999999953  0.93436  0.74468  1.0000
  O   O19       1.0  0.6689400000000002  0.93598  0.92524  1.0000
  O   O20       1.0  0.20509  0.9460999999999998  0.27774  1.0000
  O   O21       1.0  0.8247200000000002  0.09442999999999999  0.07408  1.0000
  O   O22       1.0  0.35817  0.09644  0.27347  1.0000
  O   O23       1.0  0.020929999999999865  0.09041999999999996  0.74452  1.0000
  O   O24       1.0  0.0066100000000000395  0.74442  0.92861  1.0000
  O   O25       1.0  0.6746400000000004  0.74443  0.7469000000000001  1.0000
  O   O26       1.0  0.82786  0.74596  0.08307000000000002  1.0000
  O   O27       1.0  0.35453000000000007  0.2776  0.27229  1.0000
  O   O28       1.0  0.19605000000000003  0.27409  0.92384  1.0000
  O   O29       1.0  0.82479  0.09008999999999999  0.74049  1.0000
  O   O30       1.0  0.019539999999999988  0.09635  0.27401  1.0000
  O   O31       1.0  0.35412  0.09477  0.07626  1.0000
  O   O32       1.0  0.007489999999999983  0.27582  0.08015  1.0000
