data_image0
_chemical_formula_structural       Co2H52C50S4N8O8Co2H52C50S4N8O8
_chemical_formula_sum              "Co4 H104 C100 S8 N16 O16"
_cell_length_a       12.079
_cell_length_b       12.079
_cell_length_c       24.539
_cell_angle_alpha    90.0
_cell_angle_beta     90.0
_cell_angle_gamma    90.0

_symmetry_space_group_name_H-M    'P 1'
_symmetry_Int_Tables_number       1

loop_
  _symmetry_equiv_pos_as_xyz
  'x,y,z'

loop_
  _atom_site_type_symbol
  _atom_site_label
  _atom_site_symmetry_multiplicity
  _atom_site_fract_x
  _atom_site_fract_y
  _atom_site_fract_z
  _atom_site_occupancy
  Co  Co1       1.0  0.75  0.75  0.9225999999999998  1.0000
  Co  Co2       1.0  0.25  0.25  0.42259999999999986  1.0000
  H   H1        1.0  0.582  0.5745  0.8774  1.0000
  H   H2        1.0  0.5645  0.43599999999999994  0.8155  1.0000
  H   H3        1.0  0.8645  0.5167  0.7577  1.0000
  H   H4        1.0  0.8721  0.6504  0.8235  1.0000
  H   H5        1.0  0.8046  0.411  0.6846  1.0000
  H   H6        1.0  0.8546  0.3289  0.7281  1.0000
  H   H7        1.0  0.8188  0.1562  0.6108  1.0000
  H   H8        1.0  0.9019  0.1731  0.6596  1.0000
  H   H9        1.0  0.09769999999999997  0.11239999999999999  0.4977  1.0000
  H   H10       1.0  0.9662999999999998  0.12249999999999998  0.5657999999999999  1.0000
  H   H11       1.0  0.0141  0.4436  0.5662  1.0000
  H   H12       1.0  0.12239999999999998  0.42469999999999997  0.49089999999999995  1.0000
  H   H13       1.0  0.5288  0.8659  0.8999999999999999  1.0000
  H   H14       1.0  0.918  0.9255  0.8774  1.0000
  H   H15       1.0  0.9354999999999998  0.064  0.8155  1.0000
  H   H16       1.0  0.6355  0.9833  0.7577  1.0000
  H   H17       1.0  0.6279  0.8496  0.8235  1.0000
  H   H18       1.0  0.6954  0.089  0.6846  1.0000
  H   H19       1.0  0.6454  0.1711  0.7281  1.0000
  H   H20       1.0  0.6811999999999999  0.3438  0.6108  1.0000
  H   H21       1.0  0.5981  0.3269  0.6596  1.0000
  H   H22       1.0  0.4023  0.3876  0.4977  1.0000
  H   H23       1.0  0.5337  0.3774999999999999  0.5657999999999999  1.0000
  H   H24       1.0  0.4859  0.0564  0.5662  1.0000
  H   H25       1.0  0.3775999999999999  0.0753  0.49089999999999995  1.0000
  H   H26       1.0  0.9712  0.6341  0.8999999999999999  1.0000
  H   H27       1.0  0.4255  0.082  0.3774  1.0000
  H   H28       1.0  0.564  0.0645  0.3155  1.0000
  H   H29       1.0  0.4833  0.36449999999999994  0.25769999999999993  1.0000
  H   H30       1.0  0.3496  0.3721  0.3235  1.0000
  H   H31       1.0  0.589  0.3046  0.18459999999999996  1.0000
  H   H32       1.0  0.6711  0.35459999999999997  0.2281  1.0000
  H   H33       1.0  0.8437999999999999  0.3188  0.11079999999999997  1.0000
  H   H34       1.0  0.8268999999999999  0.4019  0.15959999999999996  1.0000
  H   H35       1.0  0.8876  0.5977  0.9977  1.0000
  H   H36       1.0  0.8774999999999997  0.4663  0.0658  1.0000
  H   H37       1.0  0.5564  0.5141  0.06619999999999998  1.0000
  H   H38       1.0  0.5753  0.6224  0.9909  1.0000
  H   H39       1.0  0.1341  0.028799999999999992  0.4  1.0000
  H   H40       1.0  0.0745  0.41799999999999987  0.3774  1.0000
  H   H41       1.0  0.936  0.43549999999999994  0.3155  1.0000
  H   H42       1.0  0.0167  0.1355  0.25769999999999993  1.0000
  H   H43       1.0  0.1504  0.1279  0.3235  1.0000
  H   H44       1.0  0.911  0.19539999999999993  0.18459999999999996  1.0000
  H   H45       1.0  0.8288999999999999  0.1454  0.2281  1.0000
  H   H46       1.0  0.6562  0.1812  0.11079999999999997  1.0000
  H   H47       1.0  0.6731  0.0981  0.15959999999999996  1.0000
  H   H48       1.0  0.6124  0.9023  0.9977  1.0000
  H   H49       1.0  0.6225  0.0337  0.0658  1.0000
  H   H50       1.0  0.9436  0.9859  0.06619999999999998  1.0000
  H   H51       1.0  0.9247  0.8775999999999999  0.9909  1.0000
  H   H52       1.0  0.36589999999999995  0.4712  0.4  1.0000
  C   C1        1.0  0.6404  0.5614  0.8535399999999999  1.0000
  C   C2        1.0  0.6286  0.47859999999999997  0.8162999999999998  1.0000
  C   C3        1.0  0.714  0.4587  0.7794199999999998  1.0000
  C   C4        1.0  0.8062  0.5255  0.7820299999999999  1.0000
  C   C5        1.0  0.8092  0.606  0.82197  1.0000
  C   C6        1.0  0.7883  0.348  0.7078199999999999  1.0000
  C   C7        1.0  0.8459  0.20899999999999994  0.63745  1.0000
  C   C8        1.0  0.07679999999999998  0.18199999999999994  0.5101799999999999  1.0000
  C   C9        1.0  0.9978  0.1868  0.55184  1.0000
  C   C10       1.0  0.9688  0.2864999999999999  0.57099  1.0000
  C   C11       1.0  0.023799999999999998  0.374  0.55068  1.0000
  C   C12       1.0  0.0941  0.3611  0.50719  1.0000
  C   C13       1.0  0.8596  0.9386  0.8535399999999999  1.0000
  C   C14       1.0  0.8713999999999998  0.0214  0.8162999999999998  1.0000
  C   C15       1.0  0.7859999999999998  0.0413  0.7794199999999998  1.0000
  C   C16       1.0  0.6938  0.9745  0.7820299999999999  1.0000
  C   C17       1.0  0.6908  0.8939999999999998  0.82197  1.0000
  C   C18       1.0  0.7117  0.152  0.7078199999999999  1.0000
  C   C19       1.0  0.6541  0.291  0.63745  1.0000
  C   C20       1.0  0.42319999999999997  0.318  0.5101799999999999  1.0000
  C   C21       1.0  0.5022  0.3132  0.55184  1.0000
  C   C22       1.0  0.5312  0.2135  0.57099  1.0000
  C   C23       1.0  0.4761999999999999  0.126  0.55068  1.0000
  C   C24       1.0  0.4058999999999999  0.1389  0.50719  1.0000
  C   C25       1.0  0.4386  0.14039999999999997  0.35354  1.0000
  C   C26       1.0  0.5214  0.1286  0.3163  1.0000
  C   C27       1.0  0.5413  0.214  0.27942  1.0000
  C   C28       1.0  0.4744999999999999  0.3062  0.28202999999999995  1.0000
  C   C29       1.0  0.39399999999999996  0.3092  0.32197  1.0000
  C   C30       1.0  0.652  0.2883  0.20782  1.0000
  C   C31       1.0  0.7909999999999999  0.3459  0.13745  1.0000
  C   C32       1.0  0.818  0.5768  0.01018  1.0000
  C   C33       1.0  0.8131999999999998  0.4978  0.05183999999999998  1.0000
  C   C34       1.0  0.7135  0.4688  0.07098999999999998  1.0000
  C   C35       1.0  0.626  0.5238  0.05067999999999999  1.0000
  C   C36       1.0  0.6389  0.5941  0.0071899999999999985  1.0000
  C   C37       1.0  0.06139999999999999  0.3596  0.35354  1.0000
  C   C38       1.0  0.9785999999999998  0.3714  0.3163  1.0000
  C   C39       1.0  0.9587  0.286  0.27942  1.0000
  C   C40       1.0  0.025499999999999995  0.1938  0.28202999999999995  1.0000
  C   C41       1.0  0.106  0.19079999999999997  0.32197  1.0000
  C   C42       1.0  0.848  0.21169999999999997  0.20782  1.0000
  C   C43       1.0  0.709  0.1541  0.13745  1.0000
  C   C44       1.0  0.6819999999999999  0.9231999999999998  0.01018  1.0000
  C   C45       1.0  0.6868  0.0022  0.05183999999999998  1.0000
  C   C46       1.0  0.7865  0.0312  0.07098999999999998  1.0000
  C   C47       1.0  0.8739999999999999  0.9761999999999997  0.05067999999999999  1.0000
  C   C48       1.0  0.8611  0.9059  0.0071899999999999985  1.0000
  C   C49       1.0  0.75  0.25  0.67362  1.0000
  C   C50       1.0  0.75  0.25  0.17361999999999994  1.0000
  S   S1        1.0  0.5491999999999999  0.7787799999999999  0.9212099999999998  1.0000
  S   S2        1.0  0.9507999999999999  0.72122  0.9212099999999998  1.0000
  S   S3        1.0  0.22122  0.049199999999999994  0.4212099999999999  1.0000
  S   S4        1.0  0.27878  0.4508  0.4212099999999999  1.0000
  N   N1        1.0  0.7311  0.6256  0.8581499999999999  1.0000
  N   N2        1.0  0.12309999999999999  0.2677  0.4875899999999999  1.0000
  N   N3        1.0  0.7689  0.8744  0.8581499999999999  1.0000
  N   N4        1.0  0.3769  0.23229999999999998  0.4875899999999999  1.0000
  N   N5        1.0  0.3744  0.23109999999999997  0.35814999999999997  1.0000
  N   N6        1.0  0.7323  0.6231  0.9875899999999997  1.0000
  N   N7        1.0  0.1256  0.2689  0.35814999999999997  1.0000
  N   N8        1.0  0.7677  0.8769  0.9875899999999997  1.0000
  O   O1        1.0  0.69948  0.37394999999999995  0.74451  1.0000
  O   O2        1.0  0.8918699999999999  0.3043  0.6104699999999998  1.0000
  O   O3        1.0  0.80052  0.12605  0.74451  1.0000
  O   O4        1.0  0.60813  0.1957  0.6104699999999998  1.0000
  O   O5        1.0  0.62605  0.19948  0.24451  1.0000
  O   O6        1.0  0.6957  0.39187  0.11047  1.0000
  O   O7        1.0  0.87395  0.30052  0.24451  1.0000
  O   O8        1.0  0.8042999999999999  0.10812999999999999  0.11047  1.0000
  Co  Co3       1.0  0.25  0.25  0.07739999999999998  1.0000
  Co  Co4       1.0  0.75  0.75  0.5774  1.0000
  H   H53       1.0  0.41799999999999987  0.4255  0.1226  1.0000
  H   H54       1.0  0.43549999999999994  0.564  0.18449999999999997  1.0000
  H   H55       1.0  0.1355  0.4833  0.2423  1.0000
  H   H56       1.0  0.1279  0.3496  0.1765  1.0000
  H   H57       1.0  0.19539999999999993  0.589  0.3154  1.0000
  H   H58       1.0  0.1454  0.6711  0.2719  1.0000
  H   H59       1.0  0.1812  0.8437999999999999  0.3891999999999999  1.0000
  H   H60       1.0  0.0981  0.8268999999999999  0.3404  1.0000
  H   H61       1.0  0.9023  0.8876  0.5022999999999999  1.0000
  H   H62       1.0  0.0337  0.8774999999999997  0.4342  1.0000
  H   H63       1.0  0.9859  0.5564  0.4337999999999999  1.0000
  H   H64       1.0  0.8775999999999999  0.5753  0.5091  1.0000
  H   H65       1.0  0.4712  0.1341  0.1  1.0000
  H   H66       1.0  0.082  0.0745  0.1226  1.0000
  H   H67       1.0  0.0645  0.936  0.18449999999999997  1.0000
  H   H68       1.0  0.36449999999999994  0.0167  0.2423  1.0000
  H   H69       1.0  0.3721  0.1504  0.1765  1.0000
  H   H70       1.0  0.3046  0.911  0.3154  1.0000
  H   H71       1.0  0.35459999999999997  0.8288999999999999  0.2719  1.0000
  H   H72       1.0  0.3188  0.6562  0.3891999999999999  1.0000
  H   H73       1.0  0.4019  0.6731  0.3404  1.0000
  H   H74       1.0  0.5977  0.6124  0.5022999999999999  1.0000
  H   H75       1.0  0.4663  0.6225  0.4342  1.0000
  H   H76       1.0  0.5141  0.9436  0.4337999999999999  1.0000
  H   H77       1.0  0.6224  0.9247  0.5091  1.0000
  H   H78       1.0  0.028799999999999992  0.36589999999999995  0.1  1.0000
  H   H79       1.0  0.5745  0.918  0.6225999999999999  1.0000
  H   H80       1.0  0.43599999999999994  0.9354999999999998  0.6844999999999999  1.0000
  H   H81       1.0  0.5167  0.6355  0.7422999999999997  1.0000
  H   H82       1.0  0.6504  0.6279  0.6765  1.0000
  H   H83       1.0  0.411  0.6954  0.8153999999999999  1.0000
  H   H84       1.0  0.3289  0.6454  0.7718999999999999  1.0000
  H   H85       1.0  0.1562  0.6811999999999999  0.8891999999999998  1.0000
  H   H86       1.0  0.1731  0.5981  0.8403999999999999  1.0000
  H   H87       1.0  0.11239999999999999  0.4023  0.0023  1.0000
  H   H88       1.0  0.12249999999999998  0.5337  0.9342  1.0000
  H   H89       1.0  0.4436  0.4859  0.9337999999999997  1.0000
  H   H90       1.0  0.42469999999999997  0.3775999999999999  0.0091  1.0000
  H   H91       1.0  0.8659  0.9712  0.5999999999999999  1.0000
  H   H92       1.0  0.9255  0.582  0.6225999999999999  1.0000
  H   H93       1.0  0.064  0.5645  0.6844999999999999  1.0000
  H   H94       1.0  0.9833  0.8645  0.7422999999999997  1.0000
  H   H95       1.0  0.8496  0.8721  0.6765  1.0000
  H   H96       1.0  0.089  0.8046  0.8153999999999999  1.0000
  H   H97       1.0  0.1711  0.8546  0.7718999999999999  1.0000
  H   H98       1.0  0.3438  0.8188  0.8891999999999998  1.0000
  H   H99       1.0  0.3269  0.9019  0.8403999999999999  1.0000
  H   H100      1.0  0.3876  0.09769999999999997  0.0023  1.0000
  H   H101      1.0  0.3774999999999999  0.9662999999999998  0.9342  1.0000
  H   H102      1.0  0.0564  0.0141  0.9337999999999997  1.0000
  H   H103      1.0  0.0753  0.12239999999999998  0.0091  1.0000
  H   H104      1.0  0.6341  0.5288  0.5999999999999999  1.0000
  C   C51       1.0  0.3596  0.4386  0.14646  1.0000
  C   C52       1.0  0.3714  0.5214  0.1837  1.0000
  C   C53       1.0  0.286  0.5413  0.22058  1.0000
  C   C54       1.0  0.1938  0.4744999999999999  0.21797  1.0000
  C   C55       1.0  0.19079999999999997  0.39399999999999996  0.17802999999999994  1.0000
  C   C56       1.0  0.21169999999999997  0.652  0.29217999999999994  1.0000
  C   C57       1.0  0.1541  0.7909999999999999  0.36254999999999993  1.0000
  C   C58       1.0  0.9231999999999998  0.818  0.48982  1.0000
  C   C59       1.0  0.0022  0.8131999999999998  0.4481599999999999  1.0000
  C   C60       1.0  0.0312  0.7135  0.4290099999999999  1.0000
  C   C61       1.0  0.9761999999999997  0.626  0.44931999999999994  1.0000
  C   C62       1.0  0.9059  0.6389  0.4928099999999999  1.0000
  C   C63       1.0  0.14039999999999997  0.06139999999999999  0.14646  1.0000
  C   C64       1.0  0.1286  0.9785999999999998  0.1837  1.0000
  C   C65       1.0  0.214  0.9587  0.22058  1.0000
  C   C66       1.0  0.3062  0.025499999999999995  0.21797  1.0000
  C   C67       1.0  0.3092  0.106  0.17802999999999994  1.0000
  C   C68       1.0  0.2883  0.848  0.29217999999999994  1.0000
  C   C69       1.0  0.3459  0.709  0.36254999999999993  1.0000
  C   C70       1.0  0.5768  0.6819999999999999  0.48982  1.0000
  C   C71       1.0  0.4978  0.6868  0.4481599999999999  1.0000
  C   C72       1.0  0.4688  0.7865  0.4290099999999999  1.0000
  C   C73       1.0  0.5238  0.8739999999999999  0.44931999999999994  1.0000
  C   C74       1.0  0.5941  0.8611  0.4928099999999999  1.0000
  C   C75       1.0  0.5614  0.8596  0.64646  1.0000
  C   C76       1.0  0.47859999999999997  0.8713999999999998  0.6837  1.0000
  C   C77       1.0  0.4587  0.7859999999999998  0.72058  1.0000
  C   C78       1.0  0.5255  0.6938  0.71797  1.0000
  C   C79       1.0  0.606  0.6908  0.6780299999999999  1.0000
  C   C80       1.0  0.348  0.7117  0.79218  1.0000
  C   C81       1.0  0.20899999999999994  0.6541  0.8625499999999998  1.0000
  C   C82       1.0  0.18199999999999994  0.42319999999999997  0.98982  1.0000
  C   C83       1.0  0.1868  0.5022  0.9481599999999999  1.0000
  C   C84       1.0  0.2864999999999999  0.5312  0.9290099999999998  1.0000
  C   C85       1.0  0.374  0.4761999999999999  0.9493199999999998  1.0000
  C   C86       1.0  0.3611  0.4058999999999999  0.99281  1.0000
  C   C87       1.0  0.9386  0.6404  0.64646  1.0000
  C   C88       1.0  0.0214  0.6286  0.6837  1.0000
  C   C89       1.0  0.0413  0.714  0.72058  1.0000
  C   C90       1.0  0.9745  0.8062  0.71797  1.0000
  C   C91       1.0  0.8939999999999998  0.8092  0.6780299999999999  1.0000
  C   C92       1.0  0.152  0.7883  0.79218  1.0000
  C   C93       1.0  0.291  0.8459  0.8625499999999998  1.0000
  C   C94       1.0  0.318  0.07679999999999998  0.98982  1.0000
  C   C95       1.0  0.3132  0.9978  0.9481599999999999  1.0000
  C   C96       1.0  0.2135  0.9688  0.9290099999999998  1.0000
  C   C97       1.0  0.126  0.023799999999999998  0.9493199999999998  1.0000
  C   C98       1.0  0.1389  0.0941  0.99281  1.0000
  C   C99       1.0  0.25  0.75  0.32638  1.0000
  C   C100      1.0  0.25  0.75  0.82638  1.0000
  S   S5        1.0  0.4508  0.22122  0.07879  1.0000
  S   S6        1.0  0.049199999999999994  0.27878  0.07879  1.0000
  S   S7        1.0  0.7787799999999999  0.9507999999999999  0.57879  1.0000
  S   S8        1.0  0.72122  0.5491999999999999  0.57879  1.0000
  N   N9        1.0  0.2689  0.3744  0.14185  1.0000
  N   N10       1.0  0.8769  0.7323  0.51241  1.0000
  N   N11       1.0  0.23109999999999997  0.1256  0.14185  1.0000
  N   N12       1.0  0.6231  0.7677  0.51241  1.0000
  N   N13       1.0  0.6256  0.7689  0.6418499999999999  1.0000
  N   N14       1.0  0.2677  0.3769  0.01241  1.0000
  N   N15       1.0  0.8744  0.7311  0.6418499999999999  1.0000
  N   N16       1.0  0.23229999999999998  0.12309999999999999  0.01241  1.0000
  O   O9        1.0  0.30052  0.62605  0.25549  1.0000
  O   O10       1.0  0.10812999999999999  0.6957  0.38953  1.0000
  O   O11       1.0  0.19948  0.87395  0.25549  1.0000
  O   O12       1.0  0.39187  0.8042999999999999  0.38953  1.0000
  O   O13       1.0  0.37394999999999995  0.80052  0.7554899999999999  1.0000
  O   O14       1.0  0.3043  0.60813  0.8895299999999999  1.0000
  O   O15       1.0  0.12605  0.69948  0.7554899999999999  1.0000
  O   O16       1.0  0.1957  0.8918699999999999  0.8895299999999999  1.0000
