data_image0
_chemical_formula_structural       Mn6H24C60S12O24
_chemical_formula_sum              "Mn6 H24 C60 S12 O24"
_cell_length_a       12.0178
_cell_length_b       12.017800000000001
_cell_length_c       19.425
_cell_angle_alpha    77.4186
_cell_angle_beta     77.4186
_cell_angle_gamma    77.6894

_symmetry_space_group_name_H-M    'P 1'
_symmetry_Int_Tables_number       1

loop_
  _symmetry_equiv_pos_as_xyz
  'x,y,z'

loop_
  _atom_site_type_symbol
  _atom_site_label
  _atom_site_symmetry_multiplicity
  _atom_site_fract_x
  _atom_site_fract_y
  _atom_site_fract_z
  _atom_site_occupancy
  Mn  Mn1       1.0  0.6757  0.01804  0.32219  1.0000
  Mn  Mn2       1.0  0.9819600000000002  0.3242999999999999  0.17781  1.0000
  Mn  Mn3       1.0  0.3242999999999998  0.9819600000000002  0.6778100000000001  1.0000
  Mn  Mn4       1.0  0.018040000000000035  0.6757  0.82219  1.0000
  Mn  Mn5       1.0  0.49999999999999994  0.0  0.5  1.0000
  Mn  Mn6       1.0  0.0  0.5  0.0  1.0000
  H   H1        1.0  0.7895000000000001  0.3423  0.4055  1.0000
  H   H2        1.0  0.6979  0.5143  0.4575000000000001  1.0000
  H   H3        1.0  0.29849999999999993  0.7663  0.43750000000000006  1.0000
  H   H4        1.0  0.20399999999999996  0.6726  0.373  1.0000
  H   H5        1.0  0.7517000000000004  0.7149000000000001  0.5895  1.0000
  H   H6        1.0  0.8931  0.5357  0.6092  1.0000
  H   H7        1.0  0.6577000000000001  0.2105  0.0945  1.0000
  H   H8        1.0  0.4857  0.3021  0.0425  1.0000
  H   H9        1.0  0.23370000000000002  0.7015  0.0625  1.0000
  H   H10       1.0  0.32739999999999997  0.796  0.127  1.0000
  H   H11       1.0  0.2851000000000001  0.2483  0.9105  1.0000
  H   H12       1.0  0.4643000000000001  0.1069  0.8908  1.0000
  H   H13       1.0  0.2105  0.6577  0.5945  1.0000
  H   H14       1.0  0.3021000000000002  0.4857  0.5425  1.0000
  H   H15       1.0  0.7015  0.2337  0.5625  1.0000
  H   H16       1.0  0.796  0.3274  0.627  1.0000
  H   H17       1.0  0.2483  0.2851  0.4105  1.0000
  H   H18       1.0  0.10689999999999998  0.4643  0.39080000000000004  1.0000
  H   H19       1.0  0.34229999999999994  0.7895  0.9055000000000001  1.0000
  H   H20       1.0  0.5143  0.6979  0.9575000000000001  1.0000
  H   H21       1.0  0.7663  0.29849999999999993  0.9375  1.0000
  H   H22       1.0  0.6726  0.20399999999999996  0.873  1.0000
  H   H23       1.0  0.7149  0.7517  0.0895  1.0000
  H   H24       1.0  0.5357000000000001  0.8931  0.1092  1.0000
  C   C1        1.0  0.6594000000000002  0.17900000000000002  0.3957  1.0000
  C   C2        1.0  0.6333  0.2881  0.4267  1.0000
  C   C3        1.0  0.711  0.35819999999999996  0.4248  1.0000
  C   C4        1.0  0.6584000000000001  0.4569999999999999  0.4552  1.0000
  C   C5        1.0  0.5406000000000002  0.4592  0.4815  1.0000
  C   C6        1.0  0.46219999999999994  0.9042000000000001  0.3658  1.0000
  C   C7        1.0  0.38539999999999996  0.8412  0.3449  1.0000
  C   C8        1.0  0.3118000000000001  0.7756000000000001  0.3878  1.0000
  C   C9        1.0  0.25610000000000005  0.7221  0.3504  1.0000
  C   C10       1.0  0.2865000000000001  0.7503  0.2784  1.0000
  C   C11       1.0  0.7393  0.8379  0.4495  1.0000
  C   C12       1.0  0.8117  0.7295  0.48120000000000007  1.0000
  C   C13       1.0  0.8039  0.6830999999999999  0.553  1.0000
  C   C14       1.0  0.8869000000000001  0.5791000000000001  0.5638  1.0000
  C   C15       1.0  0.9554000000000002  0.5486000000000001  0.504  1.0000
  C   C16       1.0  0.8210000000000001  0.3406  0.1043  1.0000
  C   C17       1.0  0.7119  0.3667  0.07330000000000002  1.0000
  C   C18       1.0  0.6418  0.289  0.0752  1.0000
  C   C19       1.0  0.543  0.3416  0.0448  1.0000
  C   C20       1.0  0.5408  0.4594  0.018500000000000006  1.0000
  C   C21       1.0  0.0958  0.5378  0.1342  1.0000
  C   C22       1.0  0.1588  0.6146  0.1551  1.0000
  C   C23       1.0  0.2244  0.6882  0.11220000000000001  1.0000
  C   C24       1.0  0.2779  0.7439  0.1496  1.0000
  C   C25       1.0  0.24969999999999998  0.7135  0.2216  1.0000
  C   C26       1.0  0.1621  0.2607  0.05050000000000002  1.0000
  C   C27       1.0  0.27050000000000013  0.1883  0.0188  1.0000
  C   C28       1.0  0.3169  0.19609999999999994  0.9470000000000001  1.0000
  C   C29       1.0  0.4208999999999999  0.11309999999999999  0.9362000000000001  1.0000
  C   C30       1.0  0.4514000000000001  0.044600000000000015  0.996  1.0000
  C   C31       1.0  0.3405999999999999  0.821  0.6043  1.0000
  C   C32       1.0  0.3667000000000001  0.7119000000000001  0.5733000000000001  1.0000
  C   C33       1.0  0.289  0.6418  0.5752000000000002  1.0000
  C   C34       1.0  0.34160000000000007  0.543  0.5448  1.0000
  C   C35       1.0  0.4594  0.5408  0.5185  1.0000
  C   C36       1.0  0.5378000000000002  0.09580000000000001  0.6342  1.0000
  C   C37       1.0  0.6146  0.15879999999999997  0.6551  1.0000
  C   C38       1.0  0.6882  0.22439999999999996  0.6122  1.0000
  C   C39       1.0  0.7439000000000002  0.2778999999999999  0.6496  1.0000
  C   C40       1.0  0.7135  0.24969999999999998  0.7216  1.0000
  C   C41       1.0  0.26070000000000004  0.16210000000000002  0.5505  1.0000
  C   C42       1.0  0.1883  0.2705  0.5188  1.0000
  C   C43       1.0  0.19610000000000002  0.3169  0.447  1.0000
  C   C44       1.0  0.11310000000000003  0.42089999999999994  0.43620000000000003  1.0000
  C   C45       1.0  0.044600000000000015  0.4514  0.496  1.0000
  C   C46       1.0  0.179  0.6594  0.8957  1.0000
  C   C47       1.0  0.2881  0.6333000000000001  0.9267000000000001  1.0000
  C   C48       1.0  0.3582  0.711  0.9248000000000001  1.0000
  C   C49       1.0  0.457  0.6584  0.9552  1.0000
  C   C50       1.0  0.45919999999999994  0.5406  0.9815000000000003  1.0000
  C   C51       1.0  0.9042000000000002  0.4622  0.8658  1.0000
  C   C52       1.0  0.8412000000000001  0.38539999999999996  0.8449  1.0000
  C   C53       1.0  0.7756  0.31179999999999997  0.8878000000000001  1.0000
  C   C54       1.0  0.7221000000000001  0.25609999999999994  0.8504  1.0000
  C   C55       1.0  0.7503  0.2865  0.7784  1.0000
  C   C56       1.0  0.8379  0.7393  0.9495  1.0000
  C   C57       1.0  0.7295  0.8117  0.9812000000000001  1.0000
  C   C58       1.0  0.6831  0.8039  0.05300000000000001  1.0000
  C   C59       1.0  0.5790999999999998  0.8869  0.0638  1.0000
  C   C60       1.0  0.5485999999999999  0.9554000000000001  0.004  1.0000
  S   S1        1.0  0.4980900000000001  0.33953  0.46582  1.0000
  S   S2        1.0  0.38793  0.83895  0.25749  1.0000
  S   S3        1.0  0.9174  0.64886  0.42996000000000006  1.0000
  S   S4        1.0  0.66047  0.50191  0.03418  1.0000
  S   S5        1.0  0.16105  0.61207  0.24251000000000003  1.0000
  S   S6        1.0  0.35114  0.08259999999999999  0.07004  1.0000
  S   S7        1.0  0.5019099999999999  0.66047  0.53418  1.0000
  S   S8        1.0  0.61207  0.16104999999999997  0.74251  1.0000
  S   S9        1.0  0.08259999999999998  0.35114  0.57004  1.0000
  S   S10       1.0  0.33952999999999983  0.49809000000000003  0.9658200000000001  1.0000
  S   S11       1.0  0.83895  0.38793  0.7574900000000001  1.0000
  S   S12       1.0  0.6488600000000002  0.9174  0.92996  1.0000
  O   O1        1.0  0.5772  0.1228  0.4082  1.0000
  O   O2        1.0  0.7532  0.151  0.358  1.0000
  O   O3        1.0  0.5392  0.9396  0.3174  1.0000
  O   O4        1.0  0.4438  0.9194  0.4287000000000001  1.0000
  O   O5        1.0  0.7611  0.8675  0.3843000000000001  1.0000
  O   O6        1.0  0.662  0.886  0.49390000000000006  1.0000
  O   O7        1.0  0.8772  0.4227999999999999  0.0918  1.0000
  O   O8        1.0  0.8490000000000002  0.2468  0.142  1.0000
  O   O9        1.0  0.0604  0.4608  0.18260000000000007  1.0000
  O   O10       1.0  0.08060000000000002  0.5562  0.0713  1.0000
  O   O11       1.0  0.1325  0.2389  0.11570000000000001  1.0000
  O   O12       1.0  0.11400000000000003  0.338  0.006100000000000002  1.0000
  O   O13       1.0  0.4227999999999999  0.8772  0.5918  1.0000
  O   O14       1.0  0.24679999999999996  0.8490000000000001  0.642  1.0000
  O   O15       1.0  0.4608  0.06039999999999999  0.6826000000000001  1.0000
  O   O16       1.0  0.5562  0.0806  0.5713  1.0000
  O   O17       1.0  0.23889999999999997  0.1325  0.6157  1.0000
  O   O18       1.0  0.338  0.11399999999999998  0.5061  1.0000
  O   O19       1.0  0.12279999999999998  0.5772  0.9082000000000001  1.0000
  O   O20       1.0  0.15100000000000005  0.7531999999999998  0.858  1.0000
  O   O21       1.0  0.9395999999999999  0.5392  0.8174  1.0000
  O   O22       1.0  0.9194000000000001  0.4438  0.9287000000000001  1.0000
  O   O23       1.0  0.8675  0.7611000000000001  0.8843  1.0000
  O   O24       1.0  0.8860000000000003  0.662  0.9939  1.0000
