data_image0
_chemical_formula_structural       Mn5CN8C2N8CN16Cl2C4Mn5CN8C2N8CN16Cl2C4Mn5CN8C2N8CN16Cl2C4Mn5CN8C2N8CN16Cl2C9FCFC2FCFH6C5FCFC2FCFH6C5FCFC2FCFH6C5FCFC2FCFH6C5FCFC2FCFH6C5FCFC2FCFH6C5FCFC2FCFH6C5FCFC2FCFH6C5FCFC2FCFH6C5FCFC2FCFH6C5FCFC2FCFH6C5FCFC2FCFH6C5FCFC2FCFH6C5FCFC2FCFH6C5FCFC2FCFH6C5FCFC2FCFH6
_chemical_formula_sum              "Mn20 C176 N128 Cl8 F64 H96"
_cell_length_a       13.0479
_cell_length_b       30.1108
_cell_length_c       32.6547
_cell_angle_alpha    128.3323
_cell_angle_beta     91.6495
_cell_angle_gamma    92.1824

_symmetry_space_group_name_H-M    'P 1'
_symmetry_Int_Tables_number       1

loop_
  _symmetry_equiv_pos_as_xyz
  'x,y,z'

loop_
  _atom_site_type_symbol
  _atom_site_label
  _atom_site_symmetry_multiplicity
  _atom_site_fract_x
  _atom_site_fract_y
  _atom_site_fract_z
  _atom_site_occupancy
  Mn  Mn1       1.0  0.5748  0.07545999999999999  0.31381  1.0000
  Mn  Mn2       1.0  0.8029800000000002  0.13853  0.38915  1.0000
  Mn  Mn3       1.0  0.9350200000000001  0.4455300000000001  0.73903  1.0000
  Mn  Mn4       1.0  0.7144800000000003  0.3808600000000001  0.65826  1.0000
  Mn  Mn5       1.0  0.76348  0.25861  0.52502  1.0000
  C   C1        1.0  0.6830800000000002  0.12358000000000001  0.26449  1.0000
  N   N1        1.0  0.6807  0.11451000000000003  0.29989  1.0000
  N   N2        1.0  0.77032  0.13571  0.32673  1.0000
  N   N3        1.0  0.8279  0.15599000000000005  0.30831  1.0000
  N   N4        1.0  0.77476  0.14949  0.26946  1.0000
  N   N5        1.0  0.9368300000000002  0.23059  0.40672  1.0000
  N   N6        1.0  0.8753800000000002  0.21567  0.42841  1.0000
  N   N7        1.0  0.8573600000000001  0.26026000000000005  0.47626000000000007  1.0000
  N   N8        1.0  0.90556  0.3062900000000001  0.48692  1.0000
  C   C2        1.0  0.9538400000000002  0.28712  0.4431  1.0000
  C   C3        1.0  0.8778100000000002  0.11538000000000004  0.49556000000000006  1.0000
  N   N9        1.0  0.83216  0.14038  0.45081  1.0000
  N   N10       1.0  0.8703100000000001  0.09781999999999998  0.44638  1.0000
  N   N11       1.0  0.6499000000000003  0.21476000000000006  0.46554  1.0000
  N   N12       1.0  0.668  0.17184  0.41701  1.0000
  N   N13       1.0  0.58095  0.14766000000000007  0.3880500000000001  1.0000
  N   N14       1.0  0.50237  0.17432  0.41595  1.0000
  N   N15       1.0  0.8175000000000001  0.18265999999999996  0.50033  1.0000
  N   N16       1.0  0.84438  0.16819999999999993  0.53  1.0000
  C   C4        1.0  0.54564  0.21683  0.46417  1.0000
  N   N17       1.0  0.82352  0.40857000000000016  0.7520200000000001  1.0000
  N   N18       1.0  0.7370500000000002  0.3849900000000001  0.72247  1.0000
  N   N19       1.0  0.6864600000000001  0.3555200000000001  0.73403  1.0000
  N   N20       1.0  0.7413100000000002  0.3585  0.77063  1.0000
  N   N21       1.0  0.57801  0.29206000000000015  0.6407500000000002  1.0000
  N   N22       1.0  0.63961  0.3044000000000001  0.61761  1.0000
  N   N23       1.0  0.66953  0.2576100000000001  0.57426  1.0000
  N   N24       1.0  0.6315100000000002  0.2128200000000001  0.56959  1.0000
  N   N25       1.0  0.7121800000000001  0.34756  0.51654  1.0000
  N   N26       1.0  0.71087  0.33285  0.54719  1.0000
  N   N27       1.0  0.6982000000000002  0.3779200000000001  0.59568  1.0000
  N   N28       1.0  0.69266  0.4234  0.59857  1.0000
  N   N29       1.0  0.87492  0.30473  0.58613  1.0000
  N   N30       1.0  0.8504800000000001  0.3454800000000001  0.63461  1.0000
  N   N31       1.0  0.9340300000000002  0.37088000000000015  0.66636  1.0000
  N   N32       1.0  0.016110000000000017  0.34871000000000013  0.6402600000000002  1.0000
  Cl  Cl1       1.0  0.7103800000000002  0.05385000000000005  0.34375  1.0000
  Cl  Cl2       1.0  0.8066300000000002  0.4659  0.70522  1.0000
  C   C5        1.0  0.82716  0.3914800000000001  0.7813400000000001  1.0000
  C   C6        1.0  0.57349  0.23546000000000006  0.61163  1.0000
  C   C7        1.0  0.7008400000000001  0.40372000000000013  0.54897  1.0000
  C   C8        1.0  0.9800600000000002  0.30764000000000014  0.59023  1.0000
  Mn  Mn6       1.0  0.0644499999999999  0.5721900000000001  0.30879  1.0000
  Mn  Mn7       1.0  0.2764000000000001  0.6553800000000001  0.39164000000000004  1.0000
  Mn  Mn8       1.0  0.3676100000000001  0.92278  0.74857  1.0000
  Mn  Mn9       1.0  0.15281000000000006  0.8496200000000003  0.66377  1.0000
  Mn  Mn10      1.0  0.21407000000000004  0.7539400000000003  0.52751  1.0000
  C   C9        1.0  0.14808  0.62868  0.26321  1.0000
  N   N33       1.0  0.14797  0.6247500000000001  0.30182  1.0000
  N   N34       1.0  0.22737  0.65795  0.33408  1.0000
  N   N35       1.0  0.27533  0.68216  0.31661  1.0000
  N   N36       1.0  0.22679  0.66479  0.27213  1.0000
  N   N37       1.0  0.35533  0.76816  0.42455000000000004  1.0000
  N   N38       1.0  0.31778000000000006  0.7396800000000001  0.44005  1.0000
  N   N39       1.0  0.29263  0.77539  0.48902  1.0000
  N   N40       1.0  0.31107  0.8282000000000003  0.50678  1.0000
  C   C10       1.0  0.35118  0.8231800000000002  0.46667  1.0000
  C   C11       1.0  0.3680100000000001  0.6179900000000003  0.48652  1.0000
  N   N41       1.0  0.31931  0.64988  0.44767  1.0000
  N   N42       1.0  0.36608  0.6072300000000003  0.43970000000000004  1.0000
  N   N43       1.0  0.10734000000000002  0.7072500000000003  0.465  1.0000
  N   N44       1.0  0.13394000000000006  0.6699100000000002  0.41661  1.0000
  N   N45       1.0  0.05239  0.63942  0.38479  1.0000
  N   N46       1.0  0.9682300000000003  0.6566200000000002  0.41073  1.0000
  N   N47       1.0  0.29397  0.68484  0.49647  1.0000
  N   N48       1.0  0.32361  0.66648  0.52229  1.0000
  C   C12       1.0  0.002899999999999996  0.69942  0.4608  1.0000
  N   N49       1.0  0.27765  0.86737  0.7496  1.0000
  N   N50       1.0  0.19352000000000005  0.8411900000000002  0.71843  1.0000
  N   N51       1.0  0.14832000000000006  0.8069600000000002  0.72586  1.0000
  N   N52       1.0  0.20443000000000003  0.80916  0.76158  1.0000
  N   N53       1.0  0.04629000000000002  0.7390600000000003  0.62379  1.0000
  N   N54       1.0  0.10432000000000005  0.7668000000000003  0.61272  1.0000
  N   N55       1.0  0.13357  0.73138  0.56465  1.0000
  N   N56       1.0  0.09567000000000002  0.67914  0.54252  1.0000
  N   N57       1.0  0.09692  0.8421500000000002  0.53517  1.0000
  N   N58       1.0  0.13398  0.8240900000000002  0.56019  1.0000
  N   N59       1.0  0.11517  0.85976  0.61011  1.0000
  N   N60       1.0  0.06649000000000002  0.9027400000000002  0.61977  1.0000
  N   N61       1.0  0.32199  0.80009  0.58989  1.0000
  N   N62       1.0  0.29569  0.83268  0.63879  1.0000
  N   N63       1.0  0.37768  0.8604700000000002  0.67135  1.0000
  N   N64       1.0  0.46141  0.8469200000000002  0.64539  1.0000
  Cl  Cl3       1.0  0.21816000000000002  0.5622100000000001  0.33674000000000004  1.0000
  Cl  Cl4       1.0  0.22012000000000012  0.9400900000000001  0.72148  1.0000
  C   C13       1.0  0.2854  0.84651  0.7759  1.0000
  C   C14       1.0  0.042310000000000014  0.6845800000000001  0.57998  1.0000
  C   C15       1.0  0.055860000000000035  0.8912000000000002  0.57278  1.0000
  C   C16       1.0  0.4266800000000001  0.8088900000000002  0.59461  1.0000
  Mn  Mn11      1.0  0.0781400000000001  0.4286700000000001  0.21123000000000003  1.0000
  Mn  Mn12      1.0  0.2999700000000001  0.37379  0.147  1.0000
  Mn  Mn13      1.0  0.41970000000000013  0.06380000000000008  0.81429  1.0000
  Mn  Mn14      1.0  0.1955  0.11501999999999996  0.87815  1.0000
  Mn  Mn15      1.0  0.24633  0.24460000000000004  0.01238  1.0000
  C   C17       1.0  0.17411  0.37868  0.26179  1.0000
  N   N65       1.0  0.17838  0.39475  0.23139000000000004  1.0000
  N   N66       1.0  0.26738  0.37901  0.20997  1.0000
  N   N67       1.0  0.3183800000000001  0.3562400000000001  0.22755  1.0000
  N   N68       1.0  0.26182  0.35537000000000013  0.26003  1.0000
  N   N69       1.0  0.43137  0.29058  0.13907  1.0000
  N   N70       1.0  0.3631  0.29929  0.11449000000000001  1.0000
  N   N71       1.0  0.33644  0.25132  0.06761  1.0000
  N   N72       1.0  0.3859200000000001  0.2094  0.06002  1.0000
  C   C18       1.0  0.44371  0.2345  0.10509000000000002  1.0000
  C   C19       1.0  0.37479000000000007  0.38344  0.03192  1.0000
  N   N73       1.0  0.32866  0.3675500000000001  0.08328  1.0000
  N   N74       1.0  0.37062  0.40836  0.08336  1.0000
  N   N75       1.0  0.13768000000000002  0.2861100000000001  0.06583  1.0000
  N   N76       1.0  0.16044000000000003  0.33444  0.11314  1.0000
  N   N77       1.0  0.07651000000000002  0.35511  0.13836  1.0000
  N   N78       1.0  0.9959400000000003  0.32005000000000006  0.11003  1.0000
  N   N79       1.0  0.3093  0.3203900000000001  0.03476  1.0000
  N   N80       1.0  0.33741  0.3288400000000001  0.0014300000000000003  1.0000
  C   C20       1.0  0.03446000000000001  0.27683  0.06502  1.0000
  N   N81       1.0  0.31095  0.09131000000000009  0.79123  1.0000
  N   N82       1.0  0.22303  0.10774999999999989  0.81344  1.0000
  N   N83       1.0  0.16709  0.12484  0.79177  1.0000
  N   N84       1.0  0.21984  0.12160999999999998  0.75603  1.0000
  N   N85       1.0  0.07989  0.19765999999999995  0.88073  1.0000
  N   N86       1.0  0.127  0.18816  0.9105  1.0000
  N   N87       1.0  0.15688000000000002  0.23708000000000018  0.9562500000000002  1.0000
  N   N88       1.0  0.13408  0.2797900000000002  0.95639  1.0000
  N   N89       1.0  0.18184000000000006  0.15803  0.023400000000000004  1.0000
  N   N90       1.0  0.18539  0.16915999999999998  0.99021  1.0000
  N   N91       1.0  0.17231  0.12121999999999997  0.94188  1.0000
  N   N92       1.0  0.16081000000000006  0.07746000000000006  0.94187  1.0000
  N   N93       1.0  0.3552800000000001  0.20353  0.95946  1.0000
  N   N94       1.0  0.33335  0.15780000000000008  0.9107200000000001  1.0000
  N   N95       1.0  0.41815  0.1393700000000002  0.8857200000000002  1.0000
  N   N96       1.0  0.4985  0.17333000000000018  0.9165100000000002  1.0000
  Cl  Cl5       1.0  0.21676  0.4547000000000001  0.18604  1.0000
  Cl  Cl6       1.0  0.28676000000000007  0.03731000000000017  0.8418000000000001  1.0000
  C   C21       1.0  0.30965  0.10082999999999999  0.75611  1.0000
  C   C22       1.0  0.08489  0.25434  0.90894  1.0000
  C   C23       1.0  0.16525000000000004  0.10129999999999996  0.99312  1.0000
  C   C24       1.0  0.45879000000000003  0.21315000000000003  0.96278  1.0000
  Mn  Mn16      1.0  0.63201  0.9265599999999999  0.24447  1.0000
  Mn  Mn17      1.0  0.8361800000000004  0.8707700000000003  0.16603  1.0000
  Mn  Mn18      1.0  0.86029  0.5975400000000002  0.80958  1.0000
  Mn  Mn19      1.0  0.6619  0.6612500000000001  0.8903300000000001  1.0000
  Mn  Mn20      1.0  0.7515700000000001  0.7636000000000002  0.02815  1.0000
  C   C25       1.0  0.7244  0.85165  0.2689  1.0000
  N   N97       1.0  0.73003  0.8784100000000002  0.24788  1.0000
  N   N98       1.0  0.8132600000000001  0.8615  0.22148  1.0000
  N   N99       1.0  0.8611700000000001  0.82835  0.22819  1.0000
  N   N100      1.0  0.80733  0.82133  0.25774  1.0000
  N   N101      1.0  0.94378  0.77398  0.13678  1.0000
  N   N102      1.0  0.88989  0.7938  0.11754  1.0000
  N   N103      1.0  0.84598  0.7516000000000003  0.07117  1.0000
  N   N104      1.0  0.8644400000000001  0.70262  0.06081  1.0000
  C   C26       1.0  0.92641  0.71761  0.10217  1.0000
  C   C27       1.0  0.8985100000000003  0.9142900000000002  0.07515  1.0000
  N   N105      1.0  0.85509  0.8795100000000002  0.11169  1.0000
  N   N106      1.0  0.8990000000000001  0.9255  0.12183  1.0000
  N   N107      1.0  0.6549200000000001  0.8016000000000002  0.08798000000000002  1.0000
  N   N108      1.0  0.6894600000000001  0.8405200000000002  0.13725  1.0000
  N   N109      1.0  0.61193  0.8620700000000001  0.16758  1.0000
  N   N110      1.0  0.52372  0.837  0.14005  1.0000
  N   N111      1.0  0.829  0.84095  0.06128  1.0000
  N   N112      1.0  0.8545100000000001  0.8615900000000002  0.03663  1.0000
  C   C28       1.0  0.55064  0.7987900000000002  0.09038  1.0000
  N   N113      1.0  0.76904  0.6477400000000002  0.80568  1.0000
  N   N114      1.0  0.69105  0.67046  0.83555  1.0000
  N   N115      1.0  0.6484800000000002  0.7050600000000004  0.82927  1.0000
  N   N116      1.0  0.69907  0.7059700000000004  0.79524  1.0000
  N   N117      1.0  0.5616900000000002  0.7649000000000005  0.92499  1.0000
  N   N118      1.0  0.6191500000000002  0.74088  0.93936  1.0000
  N   N119      1.0  0.65641  0.7788500000000004  0.9881600000000001  1.0000
  N   N120      1.0  0.6258500000000002  0.8294800000000002  0.007169999999999899  1.0000
  N   N121      1.0  0.6686800000000002  0.66094  0.01538  1.0000
  N   N122      1.0  0.6751600000000002  0.6863500000000002  0.99382  1.0000
  N   N123      1.0  0.6383000000000002  0.6507300000000003  0.9445  1.0000
  N   N124      1.0  0.60539  0.6016500000000002  0.93254  1.0000
  N   N125      1.0  0.84713  0.72361  0.96735  1.0000
  N   N126      1.0  0.8100200000000001  0.6874000000000001  0.9180200000000001  1.0000
  N   N127      1.0  0.8852300000000001  0.66239  0.88669  1.0000
  N   N128      1.0  0.9745400000000001  0.6811100000000002  0.9138200000000001  1.0000
  Cl  Cl7       1.0  0.76771  0.9555799999999999  0.22093  1.0000
  Cl  Cl8       1.0  0.7192500000000002  0.57329  0.83376  1.0000
  C   C29       1.0  0.775  0.6706  0.78098  1.0000
  C   C30       1.0  0.56704  0.8200100000000002  0.96735  1.0000
  C   C31       1.0  0.62393  0.6087600000000001  0.97714  1.0000
  C   C32       1.0  0.9510400000000002  0.7191600000000002  0.96413  1.0000
  C   C33       1.0  0.4822700000000001  0.2585600000000001  0.50877  1.0000
  C   C34       1.0  0.4189300000000001  0.29191  0.49692  1.0000
  C   C35       1.0  0.31894999999999996  0.25927  0.46192  1.0000
  C   C36       1.0  0.22571000000000005  0.27025  0.49268  1.0000
  C   C37       1.0  0.16818000000000002  0.22541000000000008  0.48613  1.0000
  F   F1        1.0  0.19721000000000005  0.17142000000000002  0.4532900000000001  1.0000
  C   C38       1.0  0.08198  0.23615000000000003  0.51482  1.0000
  F   F2        1.0  0.035260000000000014  0.1934700000000001  0.51183  1.0000
  C   C39       1.0  0.049910000000000045  0.29126000000000024  0.54912  1.0000
  C   C40       1.0  0.10447  0.33551  0.55366  1.0000
  F   F3        1.0  0.07409  0.3893  0.58605  1.0000
  C   C41       1.0  0.19173  0.32533  0.52617  1.0000
  F   F4        1.0  0.24236000000000005  0.36931000000000014  0.53186  1.0000
  H   H1        1.0  0.43077  0.23542000000000007  0.51738  1.0000
  H   H2        1.0  0.53258  0.2899100000000001  0.5441  1.0000
  H   H3        1.0  0.46718  0.30431000000000014  0.47753  1.0000
  H   H4        1.0  0.4012100000000001  0.33208000000000004  0.53487  1.0000
  H   H5        1.0  0.32926000000000005  0.21320000000000008  0.43386  1.0000
  H   H6        1.0  0.30313000000000007  0.27306000000000014  0.43784  1.0000
  C   C42       1.0  0.9318000000000002  0.7332500000000002  0.50416  1.0000
  C   C43       1.0  0.8616500000000002  0.76625  0.49432  1.0000
  C   C44       1.0  0.7635200000000001  0.73074  0.45898  1.0000
  C   C45       1.0  0.66921  0.7479500000000002  0.49021  1.0000
  C   C46       1.0  0.6320600000000001  0.71761  0.507  1.0000
  F   F5        1.0  0.68026  0.6722800000000002  0.49546  1.0000
  C   C47       1.0  0.54901  0.73599  0.5388  1.0000
  F   F6        1.0  0.5252  0.7110800000000003  0.56072  1.0000
  C   C48       1.0  0.4985  0.78346  0.5526  1.0000
  C   C49       1.0  0.53884  0.81533  0.53791  1.0000
  F   F7        1.0  0.50399  0.8667900000000001  0.55838  1.0000
  C   C50       1.0  0.6219600000000001  0.79712  0.50607  1.0000
  F   F8        1.0  0.6601600000000001  0.82922  0.49313  1.0000
  H   H7        1.0  0.88541  0.70447  0.50801  1.0000
  H   H8        1.0  0.9762900000000002  0.7639300000000002  0.54192  1.0000
  H   H9        1.0  0.9053800000000001  0.7814900000000002  0.47594  1.0000
  H   H10       1.0  0.84128  0.80518  0.53283  1.0000
  H   H11       1.0  0.7719  0.6845600000000001  0.43653000000000003  1.0000
  H   H12       1.0  0.75214  0.7367000000000004  0.4288100000000001  1.0000
  C   C51       1.0  0.52276  0.26115  0.01047  1.0000
  C   C52       1.0  0.63439  0.24854000000000007  0.01295  1.0000
  C   C53       1.0  0.6514  0.1901200000000001  0.99983  1.0000
  C   C54       1.0  0.7651500000000001  0.18185000000000007  0.99771  1.0000
  C   C55       1.0  0.82254  0.18853000000000011  0.96591  1.0000
  F   F9        1.0  0.77595  0.1821500000000001  0.92462  1.0000
  C   C56       1.0  0.92033  0.21597999999999998  0.9847  1.0000
  F   F10       1.0  0.95195  0.24680000000000005  0.9698100000000001  1.0000
  C   C57       1.0  0.96975  0.22446000000000005  0.027910000000000004  1.0000
  C   C58       1.0  0.9218600000000001  0.20077  0.04909000000000001  1.0000
  F   F11       1.0  0.9675800000000002  0.20910000000000004  0.09141  1.0000
  C   C59       1.0  0.818  0.18151  0.03555  1.0000
  F   F12       1.0  0.76707  0.16975  0.06382  1.0000
  H   H13       1.0  0.52329  0.29796  0.01044  1.0000
  H   H14       1.0  0.48984000000000005  0.27499  0.04673000000000001  1.0000
  H   H15       1.0  0.66874  0.28257  0.05331  1.0000
  H   H16       1.0  0.67524  0.25387  0.98684  1.0000
  H   H17       1.0  0.6133700000000001  0.1539000000000002  0.9619600000000001  1.0000
  H   H18       1.0  0.61804  0.18977  0.030490000000000007  1.0000
  C   C60       1.0  0.03335000000000001  0.7487100000000002  0.00821  1.0000
  C   C61       1.0  0.09265  0.70592  0.00963  1.0000
  C   C62       1.0  0.17382  0.67396  0.96778  1.0000
  C   C63       1.0  0.28306  0.69923  0.9903  1.0000
  C   C64       1.0  0.34667000000000003  0.6779900000000002  0.00933  1.0000
  F   F13       1.0  0.31755000000000005  0.62909  0.0011  1.0000
  C   C65       1.0  0.43847  0.70876  0.03938  1.0000
  F   F14       1.0  0.48827  0.69322  0.06533  1.0000
  C   C66       1.0  0.4719800000000001  0.75894  0.0477  1.0000
  C   C67       1.0  0.41013  0.77845  0.026730000000000004  1.0000
  F   F15       1.0  0.43054  0.8310200000000002  0.04116  1.0000
  C   C68       1.0  0.31901  0.7478200000000003  0.99665  1.0000
  F   F16       1.0  0.26267000000000007  0.7677600000000002  0.97638  1.0000
  H   H19       1.0  0.08730000000000003  0.7739000000000003  0.0030699999999999066  1.0000
  H   H20       1.0  0.00036000000000001195  0.7797600000000002  0.0462499999999999  1.0000
  H   H21       1.0  0.03576000000000003  0.6743100000000002  0.00481  1.0000
  H   H22       1.0  0.13016000000000005  0.7291100000000003  0.04952  1.0000
  H   H23       1.0  0.15708  0.67364  0.93414  1.0000
  H   H24       1.0  0.16767000000000004  0.6282500000000003  0.9504800000000001  1.0000
  C   C69       1.0  0.00511000000000001  0.9282800000000002  0.56344  1.0000
  C   C70       1.0  0.07473000000000002  0.94229  0.53473  1.0000
  C   C71       1.0  0.01877000000000003  0.9315500000000002  0.4867600000000001  1.0000
  C   C72       1.0  0.9843200000000001  0.98565  0.49873000000000006  1.0000
  C   C73       1.0  0.88068  0.9982600000000005  0.50606  1.0000
  F   F17       1.0  0.81053  0.96459  0.50715  1.0000
  C   C74       1.0  0.84753  0.04421  0.50974  1.0000
  F   F18       1.0  0.74566  0.05126  0.51031  1.0000
  C   C75       1.0  0.91732  0.07921999999999997  0.50764  1.0000
  C   C76       1.0  0.022130000000000007  0.06857  0.50335  1.0000
  F   F19       1.0  0.09160000000000001  0.10091000000000001  0.50019  1.0000
  C   C77       1.0  0.05527  0.022089999999999995  0.49883  1.0000
  F   F20       1.0  0.15577  0.010570000000000053  0.49145000000000005  1.0000
  H   H25       1.0  0.9306599999999999  0.9059700000000003  0.54104  1.0000
  H   H26       1.0  0.9869800000000001  0.96838  0.60156  1.0000
  H   H27       1.0  0.14272  0.9164100000000001  0.52098  1.0000
  H   H28       1.0  0.10696999999999998  0.98709  0.56295  1.0000
  H   H29       1.0  0.9536300000000001  0.89873  0.47002000000000005  1.0000
  H   H30       1.0  0.07204000000000003  0.9126000000000002  0.45465  1.0000
  C   C78       1.0  0.18071  0.06919000000000003  0.01363  1.0000
  C   C79       1.0  0.1424  0.10118  0.06876  1.0000
  C   C80       1.0  0.02421  0.09522  0.06734  1.0000
  C   C81       1.0  0.99049  0.047130000000000005  0.06755  1.0000
  C   C82       1.0  0.94261  0.99591  0.02282  1.0000
  F   F21       1.0  0.9243200000000003  0.9887400000000001  0.9778400000000002  1.0000
  C   C83       1.0  0.9145800000000001  0.9513300000000001  0.02406  1.0000
  F   F22       1.0  0.8685200000000004  0.90235  0.98049  1.0000
  C   C84       1.0  0.9344000000000001  0.9576900000000003  0.07009  1.0000
  C   C85       1.0  0.98465  0.008820000000000059  0.11424000000000002  1.0000
  F   F23       1.0  0.009660000000000002  0.01651000000000004  0.15903  1.0000
  C   C86       1.0  0.010660000000000011  0.053160000000000096  0.11316  1.0000
  F   F24       1.0  0.05702000000000001  0.10223000000000004  0.15682  1.0000
  H   H31       1.0  0.14197  0.025780000000000046  0.9864  1.0000
  H   H32       1.0  0.26458000000000004  0.06463000000000005  0.015449999999999964  1.0000
  H   H33       1.0  0.16930000000000006  0.14692  0.09395  1.0000
  H   H34       1.0  0.17934000000000003  0.08457000000000003  0.08746000000000001  1.0000
  H   H35       1.0  0.9880200000000001  0.08977000000000002  0.03308  1.0000
  H   H36       1.0  0.99603  0.13467000000000007  0.10254  1.0000
  C   C87       1.0  0.72503  0.4414700000000001  0.53519  1.0000
  C   C88       1.0  0.6326800000000001  0.47407  0.54098  1.0000
  C   C89       1.0  0.66573  0.52065  0.53725  1.0000
  C   C90       1.0  0.57484  0.53998  0.52414  1.0000
  C   C91       1.0  0.54308  0.5126700000000001  0.47157000000000004  1.0000
  F   F25       1.0  0.58701  0.4652  0.43228  1.0000
  C   C92       1.0  0.4688  0.53544  0.4590700000000001  1.0000
  F   F26       1.0  0.4417500000000002  0.5089100000000001  0.40785000000000005  1.0000
  C   C93       1.0  0.42571  0.58604  0.49907  1.0000
  C   C94       1.0  0.44857  0.60914  0.5516  1.0000
  F   F27       1.0  0.4028100000000001  0.65537  0.59129  1.0000
  C   C95       1.0  0.52376  0.58674  0.56403  1.0000
  F   F28       1.0  0.54952  0.61207  0.61509  1.0000
  H   H37       1.0  0.79114  0.47149000000000013  0.56177  1.0000
  H   H38       1.0  0.7492000000000002  0.41596  0.49439  1.0000
  H   H39       1.0  0.6003000000000001  0.49402000000000007  0.57959  1.0000
  H   H40       1.0  0.5725500000000001  0.44375999999999993  0.50961  1.0000
  H   H41       1.0  0.7222900000000002  0.50516  0.50687  1.0000
  H   H42       1.0  0.70634  0.55691  0.575  1.0000
  C   C96       1.0  0.4202600000000001  0.4108700000000001  0.010200000000000002  1.0000
  C   C97       1.0  0.53695  0.42392000000000013  0.023690000000000003  1.0000
  C   C98       1.0  0.5966600000000001  0.41823000000000005  0.98075  1.0000
  C   C99       1.0  0.59841  0.4708200000000001  0.9842500000000001  1.0000
  C   C100      1.0  0.51765  0.47906000000000015  0.9605300000000002  1.0000
  F   F29       1.0  0.4338  0.4417000000000001  0.9368600000000001  1.0000
  C   C101      1.0  0.52478  0.5245300000000002  0.9589200000000001  1.0000
  F   F30       1.0  0.4465000000000001  0.5309100000000001  0.93505  1.0000
  C   C102      1.0  0.6128700000000002  0.5624100000000003  0.9808800000000001  1.0000
  C   C103      1.0  0.6940200000000003  0.5537100000000003  0.00383  1.0000
  F   F31       1.0  0.7845300000000001  0.58539  0.019610000000000002  1.0000
  C   C104      1.0  0.6862800000000001  0.5090600000000001  0.00638  1.0000
  F   F32       1.0  0.76705  0.5017100000000001  0.02834  1.0000
  H   H43       1.0  0.4041  0.3809699999999999  0.96707  1.0000
  H   H44       1.0  0.38194  0.45024  0.02532  1.0000
  H   H45       1.0  0.56747  0.39342  0.0287  1.0000
  H   H46       1.0  0.5525  0.4670700000000001  0.06179  1.0000
  H   H47       1.0  0.5663300000000001  0.3804500000000002  0.9410800000000001  1.0000
  H   H48       1.0  0.67693  0.40916  0.98431  1.0000
  C   C105      1.0  0.026839999999999975  0.3228200000000001  0.43767000000000006  1.0000
  C   C106      1.0  0.022370000000000008  0.3064500000000001  0.38253  1.0000
  C   C107      1.0  0.93143  0.32934000000000013  0.37081  1.0000
  C   C108      1.0  0.9649300000000001  0.34482000000000007  0.33674000000000004  1.0000
  C   C109      1.0  0.9950900000000001  0.40163  0.35948  1.0000
  F   F33       1.0  0.977  0.4443  0.41001  1.0000
  C   C110      1.0  0.05308000000000002  0.41427000000000014  0.33196  1.0000
  F   F34       1.0  0.09047000000000005  0.46854000000000007  0.35652  1.0000
  C   C111      1.0  0.08135000000000005  0.37043  0.28156  1.0000
  C   C112      1.0  0.04107000000000017  0.31452000000000013  0.25666  1.0000
  F   F35       1.0  0.0667500000000001  0.27142  0.20761  1.0000
  C   C113      1.0  0.9829300000000001  0.3017700000000001  0.28397  1.0000
  F   F36       1.0  0.9522600000000002  0.24678000000000008  0.26046  1.0000
  H   H49       1.0  0.015619999999999966  0.3686400000000001  0.46791000000000005  1.0000
  H   H50       1.0  0.10569999999999993  0.3161000000000001  0.44544000000000006  1.0000
  H   H51       1.0  0.021300000000000097  0.25961000000000006  0.35197000000000006  1.0000
  H   H52       1.0  0.09619000000000001  0.32379000000000013  0.37947  1.0000
  H   H53       1.0  0.90355  0.36693000000000003  0.40780000000000005  1.0000
  H   H54       1.0  0.86591  0.2965600000000001  0.3506  1.0000
  C   C114      1.0  0.08075999999999996  0.59163  0.21371  1.0000
  C   C115      1.0  0.96712  0.6037300000000002  0.2232  1.0000
  C   C116      1.0  0.94336  0.6624400000000003  0.24033  1.0000
  C   C117      1.0  0.94121  0.6648100000000002  0.19533000000000003  1.0000
  C   C118      1.0  0.03130000000000011  0.68091  0.18356000000000003  1.0000
  F   F37       1.0  0.12198000000000003  0.6921900000000002  0.21072000000000005  1.0000
  C   C119      1.0  0.02770000000000007  0.6899800000000003  0.14655  1.0000
  F   F38       1.0  0.11471000000000005  0.7099300000000002  0.13928  1.0000
  C   C120      1.0  0.9335800000000001  0.68531  0.12189  1.0000
  C   C121      1.0  0.8430800000000004  0.6691200000000004  0.13346  1.0000
  F   F39       1.0  0.74942  0.6720800000000001  0.11629  1.0000
  C   C122      1.0  0.8474300000000001  0.6569799999999999  0.16847  1.0000
  F   F40       1.0  0.75883  0.64178  0.17906  1.0000
  H   H55       1.0  0.10742000000000008  0.59619  0.18451  1.0000
  H   H56       1.0  0.08945000000000003  0.54695  0.19728  1.0000
  H   H57       1.0  0.9445300000000002  0.60044  0.25386  1.0000
  H   H58       1.0  0.91952  0.5703200000000003  0.18686  1.0000
  H   H59       1.0  0.9992  0.6958500000000002  0.27246  1.0000
  H   H60       1.0  0.8676700000000002  0.67284  0.25785  1.0000
  C   C123      1.0  0.92498  0.39123000000000024  0.8062600000000001  1.0000
  C   C124      1.0  0.9809500000000002  0.33846  0.76502  1.0000
  C   C125      1.0  0.08234  0.33395  0.78697  1.0000
  C   C126      1.0  0.06858  0.3179699999999999  0.82246  1.0000
  C   C127      1.0  0.11377000000000002  0.35289000000000004  0.87407  1.0000
  F   F41       1.0  0.16429000000000005  0.40346  0.89417  1.0000
  C   C128      1.0  0.11300000000000006  0.3344800000000002  0.9044200000000001  1.0000
  F   F42       1.0  0.16447  0.3672400000000001  0.95229  1.0000
  C   C129      1.0  0.06558  0.28113  0.88394  1.0000
  C   C130      1.0  0.014229999999999993  0.2482299999999999  0.83379  1.0000
  F   F43       1.0  0.96447  0.19730000000000017  0.8131100000000001  1.0000
  C   C131      1.0  0.018780000000000012  0.2654300000000001  0.80283  1.0000
  F   F44       1.0  0.9795900000000003  0.2288100000000001  0.7524700000000001  1.0000
  H   H61       1.0  0.90699  0.3911800000000001  0.8393  1.0000
  H   H62       1.0  0.9740400000000001  0.43029  0.82166  1.0000
  H   H63       1.0  0.99918  0.34036  0.73304  1.0000
  H   H64       1.0  0.9288  0.29984  0.74684  1.0000
  H   H65       1.0  0.12994  0.37451000000000007  0.80711  1.0000
  H   H66       1.0  0.12555999999999992  0.3009  0.75346  1.0000
  C   C132      1.0  0.51916  0.2052700000000001  0.11476000000000001  1.0000
  C   C133      1.0  0.50456  0.21515  0.16626000000000002  1.0000
  C   C134      1.0  0.41836000000000007  0.17567000000000008  0.16242000000000004  1.0000
  C   C135      1.0  0.46046  0.14829  0.18495  1.0000
  C   C136      1.0  0.52741  0.10454  0.15593  1.0000
  F   F45       1.0  0.53511  0.07807000000000001  0.10417000000000001  1.0000
  C   C137      1.0  0.59467  0.09224  0.18127  1.0000
  F   F46       1.0  0.66662  0.05448999999999999  0.15376  1.0000
  C   C138      1.0  0.59306  0.12191000000000005  0.2354  1.0000
  C   C139      1.0  0.51765  0.16054000000000002  0.26317  1.0000
  F   F47       1.0  0.51524  0.18991000000000005  0.31564  1.0000
  C   C140      1.0  0.4522400000000001  0.1741  0.23821  1.0000
  F   F48       1.0  0.38836  0.21641  0.26718  1.0000
  H   H67       1.0  0.51597  0.15916000000000005  0.08124  1.0000
  H   H68       1.0  0.59705  0.22369  0.11777000000000001  1.0000
  H   H69       1.0  0.49042  0.26027  0.19806  1.0000
  H   H70       1.0  0.5799400000000001  0.20873  0.17813  1.0000
  H   H71       1.0  0.38705  0.14229  0.12143000000000002  1.0000
  H   H72       1.0  0.35314000000000006  0.20144000000000006  0.18454  1.0000
  C   C141      1.0  0.51419  0.86489  0.96962  1.0000
  C   C142      1.0  0.5896500000000001  0.9021700000000005  0.96535  1.0000
  C   C143      1.0  0.62446  0.8716000000000005  0.90945  1.0000
  C   C144      1.0  0.53961  0.86504  0.87304  1.0000
  C   C145      1.0  0.48524  0.8122400000000002  0.83591  1.0000
  F   F49       1.0  0.50588  0.76626  0.83218  1.0000
  C   C146      1.0  0.4055400000000001  0.8065000000000002  0.80338  1.0000
  F   F50       1.0  0.3572000000000001  0.75423  0.76695  1.0000
  C   C147      1.0  0.3762000000000001  0.8537200000000003  0.80796  1.0000
  C   C148      1.0  0.43176  0.9064300000000001  0.84398  1.0000
  F   F51       1.0  0.40537  0.95276  0.84922  1.0000
  C   C149      1.0  0.51304  0.91201  0.87629  1.0000
  F   F52       1.0  0.56493  0.9634400000000004  0.9113500000000001  1.0000
  H   H73       1.0  0.4518  0.84471  0.93791  1.0000
  H   H74       1.0  0.47746  0.8921300000000002  0.007409999999999917  1.0000
  H   H75       1.0  0.6577800000000004  0.9165800000000002  0.9931  1.0000
  H   H76       1.0  0.5523700000000001  0.9411700000000001  0.9781900000000001  1.0000
  H   H77       1.0  0.65242  0.82979  0.89425  1.0000
  H   H78       1.0  0.69168  0.8963100000000004  0.91068  1.0000
  C   C150      1.0  0.38048  0.8734400000000001  0.46909  1.0000
  C   C151      1.0  0.45041000000000003  0.8602899999999999  0.4263  1.0000
  C   C152      1.0  0.39101  0.84098  0.37587  1.0000
  C   C153      1.0  0.46606  0.8394500000000003  0.34073  1.0000
  C   C154      1.0  0.4815600000000001  0.88623  0.34113  1.0000
  F   F53       1.0  0.4186500000000001  0.9295300000000004  0.36669  1.0000
  C   C155      1.0  0.5645100000000002  0.8898100000000002  0.31691  1.0000
  F   F54       1.0  0.5803000000000003  0.93676  0.32024  1.0000
  C   C156      1.0  0.63337  0.8468  0.292  1.0000
  C   C157      1.0  0.61467  0.79859  0.28927  1.0000
  F   F55       1.0  0.6783  0.7555400000000002  0.26459  1.0000
  C   C158      1.0  0.53132  0.7948000000000002  0.31307  1.0000
  F   F56       1.0  0.51697  0.74864  0.31119  1.0000
  H   H79       1.0  0.30994  0.8931000000000003  0.46909  1.0000
  H   H80       1.0  0.42381  0.90523  0.50733  1.0000
  H   H81       1.0  0.50425  0.828  0.41744  1.0000
  H   H82       1.0  0.49809  0.8999300000000002  0.44206  1.0000
  H   H83       1.0  0.33147  0.87119  0.38586000000000004  1.0000
  H   H84       1.0  0.35109  0.7983400000000002  0.35577  1.0000
  C   C159      1.0  0.40303  0.10484000000000002  0.73286  1.0000
  C   C160      1.0  0.44296000000000013  0.16739000000000007  0.76639  1.0000
  C   C161      1.0  0.5423100000000001  0.17690000000000003  0.74788  1.0000
  C   C162      1.0  0.52617  0.18237000000000003  0.70495  1.0000
  C   C163      1.0  0.57415  0.14664000000000002  0.65752  1.0000
  F   F57       1.0  0.62291  0.10176000000000004  0.64665  1.0000
  C   C164      1.0  0.58141  0.16008000000000006  0.62338  1.0000
  F   F58       1.0  0.6389400000000001  0.12893000000000004  0.58164  1.0000
  C   C165      1.0  0.5386499999999999  0.20868999999999993  0.63538  1.0000
  C   C166      1.0  0.48041  0.24051999999999996  0.67992  1.0000
  F   F59       1.0  0.43459  0.28695  0.6925  1.0000
  C   C167      1.0  0.47702000000000017  0.22870000000000004  0.71504  1.0000
  F   F60       1.0  0.43391  0.2659200000000001  0.76125  1.0000
  H   H85       1.0  0.38275  0.08792000000000001  0.692  1.0000
  H   H86       1.0  0.4624700000000001  0.07933000000000012  0.7327700000000003  1.0000
  H   H87       1.0  0.45966  0.18288000000000001  0.80713  1.0000
  H   H88       1.0  0.3816700000000001  0.19287  0.76793  1.0000
  H   H89       1.0  0.59395  0.14291000000000006  0.7363600000000001  1.0000
  H   H90       1.0  0.58313  0.21712000000000004  0.78211  1.0000
  C   C168      1.0  0.98159  0.63661  0.57288  1.0000
  C   C169      1.0  0.04655999999999994  0.60445  0.58548  1.0000
  C   C170      1.0  0.08753000000000002  0.64005  0.64308  1.0000
  C   C171      1.0  0.006110000000000028  0.6478900000000003  0.6787800000000002  1.0000
  C   C172      1.0  0.94341  0.69373  0.70222  1.0000
  F   F61       1.0  0.9540500000000002  0.7320700000000001  0.6935000000000001  1.0000
  C   C173      1.0  0.8686800000000001  0.70087  0.73521  1.0000
  F   F62       1.0  0.8092699999999999  0.74549  0.75623  1.0000
  C   C174      1.0  0.85624  0.6629900000000001  0.7466800000000001  1.0000
  C   C175      1.0  0.9210600000000002  0.61809  0.72444  1.0000
  F   F63       1.0  0.91244  0.58072  0.73438  1.0000
  C   C176      1.0  0.99439  0.61028  0.69045  1.0000
  F   F64       1.0  0.053720000000000004  0.5655600000000002  0.66866  1.0000
  H   H91       1.0  0.91426  0.65267  0.59711  1.0000
  H   H92       1.0  0.9512100000000001  0.6062800000000003  0.53136  1.0000
  H   H93       1.0  0.11305000000000012  0.5886900000000003  0.56045  1.0000
  H   H94       1.0  0.99947  0.56657  0.57472  1.0000
  H   H95       1.0  0.12350000000000001  0.68154  0.65692  1.0000
  H   H96       1.0  0.15094000000000007  0.61775  0.64509  1.0000
