data_image0
_chemical_formula_structural       Mn5CN8C2N8CN16Cl2C4Mn5CN8C2N8CN16Cl2C4Mn5CN8C2N8CN16Cl2C4Mn5CN8C2N8CN16Cl2C10NH13C6NH13C6NH13C6NH13C6NH13C6NH13C6NH13C6NH13C6NH13C6NH13C6NH13C6NH13C6NH13C6NH13C6NH13C6NH13
_chemical_formula_sum              "Mn20 C128 N144 Cl8 H208"
_cell_length_a       12.8726
_cell_length_b       28.872200000000003
_cell_length_c       32.7329
_cell_angle_alpha    111.3176
_cell_angle_beta     89.49760000000002
_cell_angle_gamma    93.5205

_space_group_name_H-M_alt    "P 1"
_space_group_IT_number       1

loop_
  _space_group_symop_operation_xyz
  'x, y, z'

loop_
  _atom_site_type_symbol
  _atom_site_label
  _atom_site_symmetry_multiplicity
  _atom_site_fract_x
  _atom_site_fract_y
  _atom_site_fract_z
  _atom_site_occupancy
  Mn  Mn1       1.0  0.54466  0.11260999999999999  0.37224  1.0000
  Mn  Mn2       1.0  0.78131  0.17681999999999995  0.40847  1.0000
  Mn  Mn3       1.0  0.0031199999999999986  0.39413  0.6815600000000003  1.0000
  Mn  Mn4       1.0  0.76756  0.3331900000000001  0.6390500000000002  1.0000
  Mn  Mn5       1.0  0.77887  0.25598  0.5236600000000002  1.0000
  C   C1        1.0  0.58989  0.16583  0.3078500000000001  1.0000
  N   N1        1.0  0.6109  0.15985  0.3455  1.0000
  N   N2        1.0  0.69897  0.18629  0.3602700000000001  1.0000
  N   N3        1.0  0.73177  0.20836  0.3331  1.0000
  N   N4        1.0  0.6644200000000001  0.1964  0.29982  1.0000
  N   N5        1.0  0.8631  0.2768199999999999  0.40972  1.0000
  N   N6        1.0  0.83005  0.25001  0.4330900000000001  1.0000
  N   N7        1.0  0.82929  0.2784099999999999  0.4751100000000001  1.0000
  N   N8        1.0  0.86119  0.32473  0.48076000000000013  1.0000
  C   C2        1.0  0.88226  0.32313999999999987  0.4399500000000001  1.0000
  C   C3        1.0  0.94283  0.13185  0.4921200000000001  1.0000
  N   N9        1.0  0.85835  0.16492000000000004  0.4564300000000001  1.0000
  N   N10       1.0  0.91343  0.12600000000000006  0.4509800000000001  1.0000
  N   N11       1.0  0.6493799999999996  0.22174999999999995  0.48656  1.0000
  N   N12       1.0  0.65489  0.19070000000000006  0.4457100000000001  1.0000
  N   N13       1.0  0.56286  0.1687  0.43120000000000014  1.0000
  N   N14       1.0  0.49195  0.18602  0.4614700000000001  1.0000
  N   N15       1.0  0.85353  0.19253999999999993  0.49843  1.0000
  N   N16       1.0  0.90583  0.17303  0.52206  1.0000
  C   C4        1.0  0.54654  0.21932999999999997  0.4960600000000001  1.0000
  N   N17       1.0  0.9323  0.3436299999999999  0.70355  1.0000
  N   N18       1.0  0.84215  0.32031999999999994  0.6875400000000002  1.0000
  N   N19       1.0  0.80909  0.29228  0.7097800000000002  1.0000
  N   N20       1.0  0.8787099999999998  0.29687999999999987  0.74092  1.0000
  N   N21       1.0  0.67864  0.23388999999999996  0.63557  1.0000
  N   N22       1.0  0.71471  0.26113000000000003  0.6129600000000002  1.0000
  N   N23       1.0  0.7249100000000002  0.23272000000000007  0.5715000000000002  1.0000
  N   N24       1.0  0.69579  0.18595999999999993  0.56539  1.0000
  N   N25       1.0  0.6586100000000003  0.3409000000000001  0.5244800000000002  1.0000
  N   N26       1.0  0.7044900000000001  0.31987  0.54866  1.0000
  N   N27       1.0  0.69782  0.34751  0.59058  1.0000
  N   N28       1.0  0.6485000000000001  0.3879899999999999  0.59541  1.0000
  N   N29       1.0  0.9094  0.2903799999999999  0.56171  1.0000
  N   N30       1.0  0.89868  0.3193799999999999  0.60332  1.0000
  N   N31       1.0  0.9887899999999998  0.34162999999999993  0.6205800000000001  1.0000
  N   N32       1.0  0.06345999999999997  0.3268199999999999  0.59192  1.0000
  Cl  Cl1       1.0  0.7131400000000001  0.09666000000000002  0.3819800000000001  1.0000
  Cl  Cl2       1.0  0.83871  0.41249  0.66905  1.0000
  C   C5        1.0  0.95538  0.32888  0.7366400000000002  1.0000
  C   C6        1.0  0.66707  0.18718999999999994  0.60549  1.0000
  C   C7        1.0  0.62407  0.38302  0.55392  1.0000
  C   C8        1.0  0.015039999999999944  0.29448000000000013  0.5551800000000002  1.0000
  Mn  Mn6       1.0  0.1207800000000001  0.6033099999999998  0.3547000000000001  1.0000
  Mn  Mn7       1.0  0.33219  0.66822  0.4182800000000001  1.0000
  Mn  Mn8       1.0  0.39268999999999993  0.90449  0.6959800000000002  1.0000
  Mn  Mn9       1.0  0.18126  0.8405999999999998  0.6317  1.0000
  Mn  Mn10      1.0  0.25687  0.75393  0.5252100000000001  1.0000
  C   C9        1.0  0.21249  0.66618  0.3030000000000001  1.0000
  N   N33       1.0  0.21687000000000003  0.65016  0.3365700000000001  1.0000
  N   N34       1.0  0.29791  0.67512  0.36059000000000013  1.0000
  N   N35       1.0  0.34337000000000006  0.70531  0.3426800000000001  1.0000
  N   N36       1.0  0.29129  0.70063  0.30639  1.0000
  N   N37       1.0  0.43725  0.7654699999999999  0.42426000000000014  1.0000
  N   N38       1.0  0.38239999999999996  0.74082  0.44504  1.0000
  N   N39       1.0  0.3541  0.7718700000000001  0.4836100000000001  1.0000
  N   N40       1.0  0.3897  0.8177999999999999  0.4894300000000001  1.0000
  C   C10       1.0  0.44231000000000004  0.8132  0.4524900000000001  1.0000
  C   C11       1.0  0.40066  0.6315799999999998  0.52376  1.0000
  N   N41       1.0  0.35936  0.65992  0.4757000000000001  1.0000
  N   N42       1.0  0.40578  0.6224399999999998  0.4802800000000001  1.0000
  N   N43       1.0  0.15484  0.71672  0.4744500000000001  1.0000
  N   N44       1.0  0.18567999999999998  0.6844099999999999  0.4369200000000001  1.0000
  N   N45       1.0  0.10484  0.6601899999999998  0.41238  1.0000
  N   N46       1.0  0.017379999999999955  0.67641  0.43229  1.0000
  N   N47       1.0  0.3281  0.69013  0.51416  1.0000
  N   N48       1.0  0.35246000000000005  0.6735500000000001  0.5451900000000002  1.0000
  C   C12       1.0  0.048809999999999985  0.7122  0.4709100000000001  1.0000
  N   N49       1.0  0.29501  0.8581300000000001  0.7137600000000002  1.0000
  N   N50       1.0  0.21306  0.83425  0.68982  1.0000
  N   N51       1.0  0.15871  0.8090999999999999  0.7102800000000002  1.0000
  N   N52       1.0  0.2064  0.81565  0.74797  1.0000
  N   N53       1.0  0.08152999999999998  0.7436199999999997  0.62747  1.0000
  N   N54       1.0  0.13127  0.7679799999999999  0.6052600000000002  1.0000
  N   N55       1.0  0.16077999999999998  0.7362499999999997  0.56716  1.0000
  N   N56       1.0  0.1314  0.6901599999999999  0.5633100000000002  1.0000
  N   N57       1.0  0.15862  0.8335399999999997  0.50452  1.0000
  N   N58       1.0  0.18403999999999998  0.81747  0.53578  1.0000
  N   N59       1.0  0.15469  0.8484500000000001  0.5742500000000003  1.0000
  N   N60       1.0  0.10982999999999997  0.8862699999999998  0.56956  1.0000
  N   N61       1.0  0.35923  0.7912099999999997  0.5761700000000002  1.0000
  N   N62       1.0  0.3279900000000001  0.8241600000000001  0.6133200000000002  1.0000
  N   N63       1.0  0.40842  0.8473100000000001  0.6386500000000003  1.0000
  N   N64       1.0  0.49582  0.8293299999999999  0.62001  1.0000
  Cl  Cl3       1.0  0.26578999999999997  0.5882099999999998  0.38685000000000014  1.0000
  Cl  Cl4       1.0  0.24905  0.9203099999999997  0.66317  1.0000
  C   C13       1.0  0.29155999999999993  0.8460799999999999  0.7496800000000002  1.0000
  C   C14       1.0  0.08063  0.69541  0.6007700000000002  1.0000
  C   C15       1.0  0.11219999999999998  0.8761599999999998  0.52595  1.0000
  C   C16       1.0  0.4652  0.79412  0.5809900000000002  1.0000
  Mn  Mn11      1.0  0.99362  0.34957999999999995  0.17479  1.0000
  Mn  Mn12      1.0  0.23466  0.3095699999999999  0.13714000000000007  1.0000
  Mn  Mn13      1.0  0.48325000000000007  0.13213000000000003  0.8651800000000002  1.0000
  Mn  Mn14      1.0  0.23677000000000004  0.16223999999999994  0.90279  1.0000
  Mn  Mn15      1.0  0.23223  0.2348  0.02021  1.0000
  C   C17       1.0  0.04262  0.28437  0.22717000000000007  1.0000
  N   N65       1.0  0.06885  0.3043899999999999  0.19722000000000006  1.0000
  N   N66       1.0  0.16149  0.28899999999999987  0.18345000000000006  1.0000
  N   N67       1.0  0.19387  0.2614  0.20475000000000004  1.0000
  N   N68       1.0  0.12082  0.25788  0.23266000000000006  1.0000
  N   N69       1.0  0.33847  0.21851000000000004  0.13262  1.0000
  N   N70       1.0  0.29730000000000006  0.24295000000000003  0.11025000000000003  1.0000
  N   N71       1.0  0.29524  0.21570999999999996  0.06796000000000003  1.0000
  N   N72       1.0  0.33453  0.17235999999999996  0.06133  1.0000
  C   C18       1.0  0.3616  0.17465  0.10173000000000003  1.0000
  C   C19       1.0  0.36345  0.37749  0.058610000000000016  1.0000
  N   N73       1.0  0.3003  0.33178  0.09122  1.0000
  N   N74       1.0  0.34287  0.3769899999999999  0.09887000000000003  1.0000
  N   N75       1.0  0.09868  0.25371  0.057250000000000016  1.0000
  N   N76       1.0  0.10654000000000001  0.28459  0.09875000000000003  1.0000
  N   N77       1.0  0.01450999999999999  0.2986699999999999  0.11446  1.0000
  N   N78       1.0  0.94153  0.27598999999999996  0.08511000000000003  1.0000
  N   N79       1.0  0.29335  0.30617  0.048660000000000016  1.0000
  N   N80       1.0  0.33233  0.3337599999999999  0.026890000000000008  1.0000
  C   C20       1.0  0.9927000000000001  0.24782999999999997  0.04928000000000001  1.0000
  N   N81       1.0  0.39652  0.17454  0.8430800000000003  1.0000
  N   N82       1.0  0.302  0.18603000000000006  0.8572600000000002  1.0000
  N   N83       1.0  0.25674  0.20762000000000005  0.8333400000000002  1.0000
  N   N84       1.0  0.32277  0.21118000000000006  0.8031000000000003  1.0000
  N   N85       1.0  0.12045  0.24993  0.9083600000000002  1.0000
  N   N86       1.0  0.16761  0.22691  0.93049  1.0000
  N   N87       1.0  0.16854000000000002  0.25398  0.97278  1.0000
  N   N88       1.0  0.12248  0.2958800000000001  0.9797400000000003  1.0000
  N   N89       1.0  0.14034  0.13374999999999998  0.01196  1.0000
  N   N90       1.0  0.17600999999999997  0.16281999999999996  0.9909800000000001  1.0000
  N   N91       1.0  0.17732000000000003  0.13699000000000006  0.9483500000000002  1.0000
  N   N92       1.0  0.14284  0.09041000000000007  0.9399600000000002  1.0000
  N   N93       1.0  0.36437  0.21687000000000006  0.98357  1.0000
  N   N94       1.0  0.36237  0.19035000000000002  0.9411500000000003  1.0000
  N   N95       1.0  0.457  0.1793000000000001  0.9269100000000002  1.0000
  N   N96       1.0  0.52548  0.19896000000000005  0.9593200000000002  1.0000
  Cl  Cl5       1.0  0.15488  0.38221  0.16702000000000006  1.0000
  Cl  Cl6       1.0  0.3273200000000001  0.09293000000000007  0.8717400000000002  1.0000
  C   C21       1.0  0.4097  0.19066000000000008  0.8096800000000002  1.0000
  C   C22       1.0  0.09247000000000001  0.2927400000000001  0.9393500000000002  1.0000
  C   C23       1.0  0.1198  0.08898000000000002  0.9797200000000001  1.0000
  C   C24       1.0  0.46724  0.22315000000000002  0.9944700000000002  1.0000
  Mn  Mn16      1.0  0.50289  0.8750299999999998  0.17163000000000003  1.0000
  Mn  Mn17      1.0  0.74395  0.83852  0.13105000000000006  1.0000
  Mn  Mn18      1.0  0.9889800000000001  0.6295399999999999  0.87005  1.0000
  Mn  Mn19      1.0  0.7428900000000002  0.66482  0.90381  1.0000
  Mn  Mn20      1.0  0.7364200000000001  0.75197  0.01723  1.0000
  C   C25       1.0  0.57954  0.8254299999999998  0.23373000000000005  1.0000
  N   N97       1.0  0.59215  0.8384699999999998  0.19849000000000006  1.0000
  N   N98       1.0  0.68373  0.8235399999999998  0.18269000000000005  1.0000
  N   N99       1.0  0.72795  0.8024299999999998  0.20724000000000006  1.0000
  N   N100      1.0  0.66409  0.8027699999999998  0.23944000000000004  1.0000
  N   N101      1.0  0.8561800000000002  0.75389  0.13495  1.0000
  N   N102      1.0  0.81204  0.7733799999999998  0.10916000000000002  1.0000
  N   N103      1.0  0.8042800000000001  0.7406999999999999  0.06866  1.0000
  N   N104      1.0  0.8443700000000001  0.69872  0.06658000000000003  1.0000
  C   C26       1.0  0.87696  0.7076299999999998  0.10808  1.0000
  C   C27       1.0  0.8387099999999997  0.8961499999999998  0.040000000000000015  1.0000
  N   N105      1.0  0.79855  0.8549799999999999  0.07999  1.0000
  N   N106      1.0  0.8255  0.9007199999999997  0.08214000000000002  1.0000
  N   N107      1.0  0.60371  0.77451  0.05485000000000002  1.0000
  N   N108      1.0  0.61344  0.80657  0.09604000000000003  1.0000
  N   N109      1.0  0.52179  0.8196299999999997  0.11300000000000003  1.0000
  N   N110      1.0  0.44757  0.7959099999999999  0.08456000000000002  1.0000
  N   N111      1.0  0.7935999999999999  0.8240899999999998  0.03872  1.0000
  N   N112      1.0  0.8185099999999997  0.8486  0.012550000000000004  1.0000
  C   C28       1.0  0.49717  0.76768  0.04828000000000002  1.0000
  N   N113      1.0  0.90242  0.6636900000000001  0.8394500000000001  1.0000
  N   N114      1.0  0.8098800000000002  0.6792199999999999  0.8534000000000003  1.0000
  N   N115      1.0  0.76363  0.6934999999999999  0.8244400000000002  1.0000
  N   N116      1.0  0.8263199999999999  0.68731  0.7907100000000002  1.0000
  N   N117      1.0  0.63152  0.74807  0.89667  1.0000
  N   N118      1.0  0.67448  0.7300799999999998  0.9237600000000002  1.0000
  N   N119      1.0  0.67075  0.7620199999999999  0.9646400000000003  1.0000
  N   N120      1.0  0.62496  0.8022500000000001  0.9654700000000003  1.0000
  N   N121      1.0  0.62899  0.6583599999999998  0.019440000000000006  1.0000
  N   N122      1.0  0.68054  0.67987  0.9952900000000001  1.0000
  N   N123      1.0  0.68081  0.6490499999999998  0.9540000000000002  1.0000
  N   N124      1.0  0.62895  0.6066199999999998  0.9495100000000002  1.0000
  N   N125      1.0  0.8687200000000002  0.7306000000000001  0.9811000000000002  1.0000
  N   N126      1.0  0.8673  0.6975399999999998  0.94075  1.0000
  N   N127      1.0  0.96217  0.6854500000000001  0.9276200000000002  1.0000
  N   N128      1.0  0.03053  0.71103  0.95865  1.0000
  Cl  Cl7       1.0  0.65639  0.9093399999999998  0.15642  1.0000
  Cl  Cl8       1.0  0.83253  0.59452  0.8817400000000001  1.0000
  C   C29       1.0  0.9124300000000001  0.66838  0.8002100000000002  1.0000
  C   C30       1.0  0.6018800000000001  0.7930099999999999  0.9228400000000002  1.0000
  C   C31       1.0  0.5977  0.6128299999999998  0.9904400000000001  1.0000
  C   C32       1.0  0.9717700000000001  0.7398500000000001  0.9916400000000002  1.0000
  C   C33       1.0  0.49657  0.25053  0.5379500000000003  1.0000
  C   C34       1.0  0.43032000000000004  0.21918  0.5589100000000002  1.0000
  C   C35       1.0  0.32084  0.20185000000000008  0.5386300000000003  1.0000
  C   C36       1.0  0.25  0.24505999999999994  0.54586  1.0000
  C   C37       1.0  0.14005  0.22581000000000004  0.5267600000000002  1.0000
  C   C38       1.0  0.08123999999999999  0.26604000000000005  0.5165500000000002  1.0000
  N   N129      1.0  0.02336  0.24509  0.47504000000000013  1.0000
  H   H1        1.0  0.45143  0.27867999999999993  0.5315800000000002  1.0000
  H   H2        1.0  0.55658  0.27170000000000005  0.5623700000000001  1.0000
  H   H3        1.0  0.42267000000000005  0.24102000000000004  0.5945200000000002  1.0000
  H   H4        1.0  0.47264  0.18578  0.55587  1.0000
  H   H5        1.0  0.32676  0.18011999999999995  0.50303  1.0000
  H   H6        1.0  0.28447  0.17626000000000006  0.5538800000000003  1.0000
  H   H7        1.0  0.24485  0.2673999999999999  0.58147  1.0000
  H   H8        1.0  0.28465  0.26948000000000005  0.5293300000000002  1.0000
  H   H9        1.0  0.14769  0.19257  0.4964900000000001  1.0000
  H   H10       1.0  0.09582  0.21261000000000005  0.5501700000000003  1.0000
  H   H11       1.0  0.13980999999999996  0.29440999999999995  0.5130400000000002  1.0000
  H   H12       1.0  0.06122000000000001  0.21550000000000005  0.45267000000000013  1.0000
  H   H13       1.0  0.02907  0.27186  0.4604600000000001  1.0000
  C   C39       1.0  0.97216  0.7418599999999997  0.5036600000000002  1.0000
  C   C40       1.0  0.9018399999999998  0.7681199999999998  0.48203  1.0000
  C   C41       1.0  0.8155500000000001  0.79631  0.51206  1.0000
  C   C42       1.0  0.7222000000000001  0.76179  0.5151600000000002  1.0000
  C   C43       1.0  0.63147  0.7924099999999997  0.53973  1.0000
  C   C44       1.0  0.5424499999999998  0.7606699999999997  0.55098  1.0000
  N   N130      1.0  0.5854299999999999  0.72951  0.5727300000000002  1.0000
  H   H14       1.0  0.012309999999999998  0.76983  0.53263  1.0000
  H   H15       1.0  0.92396  0.7158199999999998  0.5150500000000002  1.0000
  H   H16       1.0  0.8656000000000001  0.74076  0.4513500000000001  1.0000
  H   H17       1.0  0.9514700000000001  0.79537  0.4725600000000001  1.0000
  H   H18       1.0  0.84831  0.8180599999999996  0.54536  1.0000
  H   H19       1.0  0.78687  0.82329  0.4983400000000001  1.0000
  H   H20       1.0  0.6944899999999999  0.7373199999999999  0.4817500000000001  1.0000
  H   H21       1.0  0.74854  0.73791  0.53256  1.0000
  H   H22       1.0  0.66281  0.8216399999999998  0.5705100000000002  1.0000
  H   H23       1.0  0.59892  0.81147  0.5191300000000002  1.0000
  H   H24       1.0  0.50382  0.7361699999999999  0.5199700000000003  1.0000
  H   H25       1.0  0.52491  0.7113699999999997  0.5836100000000002  1.0000
  H   H26       1.0  0.62768  0.75213  0.60079  1.0000
  C   C45       1.0  0.51308  0.25086  0.03935  1.0000
  C   C46       1.0  0.5834  0.2967  0.04168  1.0000
  C   C47       1.0  0.6799699999999999  0.2860199999999999  0.01275000000000004  1.0000
  C   C48       1.0  0.74689  0.24814999999999995  0.02099  1.0000
  C   C49       1.0  0.84915  0.24404999999999996  0.9959300000000001  1.0000
  C   C50       1.0  0.92879  0.21397999999999998  0.009620000000000004  1.0000
  N   N131      1.0  0.99172  0.18669000000000002  0.9724600000000001  1.0000
  H   H27       1.0  0.55546  0.22510999999999998  0.05039  1.0000
  H   H28       1.0  0.45114  0.26484  0.06312000000000029  1.0000
  H   H29       1.0  0.60904  0.31680999999999987  0.07634000000000003  1.0000
  H   H30       1.0  0.53714  0.3220900000000001  0.03195000000000015  1.0000
  H   H31       1.0  0.65734  0.27319999999999994  0.9775500000000003  1.0000
  H   H32       1.0  0.72695  0.32191  0.020390000000000134  1.0000
  H   H33       1.0  0.76115  0.25962  0.056730000000000017  1.0000
  H   H34       1.0  0.70496  0.21078  0.009430000000000003  1.0000
  H   H35       1.0  0.82863  0.22579000000000005  0.9604800000000002  1.0000
  H   H36       1.0  0.88513  0.28172999999999987  0.0009800000000000004  1.0000
  H   H37       1.0  0.88486  0.18624  0.02067  1.0000
  H   H38       1.0  0.9895199999999998  0.20182  0.9480300000000002  1.0000
  H   H39       1.0  0.95801  0.15041000000000002  0.9580800000000002  1.0000
  C   C51       1.0  0.017470000000000024  0.7758700000000001  0.03409000000000018  1.0000
  C   C52       1.0  0.08391999999999998  0.8191399999999999  0.02819000000000016  1.0000
  C   C53       1.0  0.18392000000000003  0.80477  0.0013800000000001589  1.0000
  C   C54       1.0  0.2561  0.7756899999999998  0.01905  1.0000
  C   C55       1.0  0.3579799999999999  0.76551  0.9931000000000002  1.0000
  C   C56       1.0  0.43164  0.73446  0.008990000000000003  1.0000
  N   N132      1.0  0.49354  0.7033900000000001  0.9730800000000001  1.0000
  H   H40       1.0  0.06224999999999992  0.75576  0.05045000000000011  1.0000
  H   H41       1.0  0.9548  0.7924900000000001  0.05671000000000027  1.0000
  H   H42       1.0  0.10549  0.84669  0.06128000000000001  1.0000
  H   H43       1.0  0.03522999999999998  0.8382699999999998  0.012070000000000025  1.0000
  H   H44       1.0  0.16386999999999996  0.7832099999999997  0.9664200000000002  1.0000
  H   H45       1.0  0.22665  0.8399199999999998  0.002560000000000118  1.0000
  H   H46       1.0  0.27245999999999987  0.7974299999999998  0.054230000000000014  1.0000
  H   H47       1.0  0.21644999999999998  0.7392899999999998  0.01593  1.0000
  H   H48       1.0  0.33585  0.74475  0.9581200000000002  1.0000
  H   H49       1.0  0.39952  0.8012199999999999  0.9950300000000002  1.0000
  H   H50       1.0  0.38248  0.7091  0.021120000000000007  1.0000
  H   H51       1.0  0.49238999999999994  0.7151399999999997  0.94654  1.0000
  H   H52       1.0  0.45803  0.66732  0.9611900000000001  1.0000
  C   C57       1.0  0.07825999999999997  0.9104899999999998  0.50449  1.0000
  C   C58       1.0  0.96559  0.9244899999999999  0.5157300000000002  1.0000
  C   C59       1.0  0.92818  0.9583699999999998  0.4926300000000001  1.0000
  C   C60       1.0  0.99262  0.008380000000000073  0.50617  1.0000
  C   C61       1.0  0.94174  0.04502000000000002  0.4897100000000001  1.0000
  C   C62       1.0  0.00428000000000006  0.09583999999999994  0.50356  1.0000
  N   N133      1.0  0.10596  0.09245  0.48251  1.0000
  H   H53       1.0  0.08557  0.8924400000000001  0.4683700000000001  1.0000
  H   H54       1.0  0.13203999999999996  0.9443199999999998  0.5161500000000002  1.0000
  H   H55       1.0  0.95794  0.9433699999999999  0.5518000000000002  1.0000
  H   H56       1.0  0.9136099999999998  0.8899799999999997  0.50524  1.0000
  H   H57       1.0  0.9316299999999998  0.9388799999999999  0.4564700000000001  1.0000
  H   H58       1.0  0.84526  0.9652899999999998  0.50122  1.0000
  H   H59       1.0  0.0007099999999999891  0.024949999999999813  0.54251  1.0000
  H   H60       1.0  0.07109999999999997  0.0016699999999998736  0.4917200000000001  1.0000
  H   H61       1.0  0.93303  0.028620000000000038  0.4533700000000001  1.0000
  H   H62       1.0  0.86239  0.05108000000000001  0.50376  1.0000
  H   H63       1.0  0.016359999999999937  0.11060000000000009  0.5398100000000002  1.0000
  H   H64       1.0  0.09871000000000008  0.06957999999999998  0.44937  1.0000
  H   H65       1.0  0.15690000000000004  0.07660000000000004  0.4976700000000001  1.0000
  C   C63       1.0  0.08212  0.04246000000000006  0.9868600000000002  1.0000
  C   C64       1.0  0.16347  0.02649999999999998  0.012350000000000085  1.0000
  C   C65       1.0  0.14299999999999996  0.9724399999999997  0.010180000000000078  1.0000
  C   C66       1.0  0.04244999999999998  0.9638399999999999  0.03321  1.0000
  C   C67       1.0  0.9497600000000002  0.9420699999999997  0.00105  1.0000
  C   C68       1.0  0.8471800000000002  0.9398199999999999  0.02531  1.0000
  N   N134      1.0  0.75647  0.9368799999999998  0.99757  1.0000
  H   H66       1.0  0.008109999999999997  0.049409999999999996  0.005170000000000002  1.0000
  H   H67       1.0  0.06686  0.01239000000000009  0.9543000000000003  1.0000
  H   H68       1.0  0.16644  0.0525  0.04716000000000001  1.0000
  H   H69       1.0  0.24172  0.02930000000000006  0.9983200000000002  1.0000
  H   H70       1.0  0.14380000000000004  0.9461600000000001  0.9755100000000002  1.0000
  H   H71       1.0  0.21001999999999996  0.9639499999999998  0.02699000000000007  1.0000
  H   H72       1.0  0.05718999999999996  0.9371399999999998  0.04957000000000002  1.0000
  H   H73       1.0  0.022829999999999982  0.9993699999999999  0.05936000000000002  1.0000
  H   H74       1.0  0.94016  0.9657900000000001  0.9814200000000002  1.0000
  H   H75       1.0  0.9662  0.9043  0.9776700000000003  1.0000
  H   H76       1.0  0.8439000000000001  0.9745499999999998  0.05483000000000001  1.0000
  H   H77       1.0  0.76239  0.9072999999999998  0.9676500000000001  1.0000
  H   H78       1.0  0.75547  0.96968  0.9909900000000001  1.0000
  C   C69       1.0  0.578  0.42227000000000003  0.5413800000000002  1.0000
  C   C70       1.0  0.46657  0.43157999999999996  0.55804  1.0000
  C   C71       1.0  0.41216  0.46439  0.5379300000000002  1.0000
  C   C72       1.0  0.46242000000000005  0.5175699999999998  0.55256  1.0000
  C   C73       1.0  0.40917000000000003  0.5482  0.5300400000000002  1.0000
  C   C74       1.0  0.45336  0.6027900000000002  0.5465500000000002  1.0000
  N   N135      1.0  0.56575  0.6072199999999998  0.53998  1.0000
  H   H79       1.0  0.578  0.41053  0.50503  1.0000
  H   H80       1.0  0.6291400000000001  0.45681999999999995  0.5553600000000002  1.0000
  H   H81       1.0  0.46728999999999987  0.44924999999999987  0.59442  1.0000
  H   H82       1.0  0.42043  0.39528999999999986  0.54867  1.0000
  H   H83       1.0  0.41364  0.44684999999999997  0.5015600000000002  1.0000
  H   H84       1.0  0.32933000000000007  0.46611  0.54799  1.0000
  H   H85       1.0  0.45745999999999987  0.5358499999999998  0.5888000000000001  1.0000
  H   H86       1.0  0.54555  0.51605  0.54335  1.0000
  H   H87       1.0  0.41914  0.53076  0.4939500000000001  1.0000
  H   H88       1.0  0.32433  0.54757  0.5368700000000002  1.0000
  H   H89       1.0  0.43744  0.6199999999999999  0.58227  1.0000
  H   H90       1.0  0.5849700000000002  0.58229  0.509  1.0000
  H   H91       1.0  0.6052600000000002  0.5984700000000001  0.5637400000000002  1.0000
  C   C75       1.0  0.40425  0.42293999999999987  0.05042000000000001  1.0000
  C   C76       1.0  0.5222899999999999  0.4228699999999999  0.04307000000000001  1.0000
  C   C77       1.0  0.57128  0.47485999999999995  0.04933000000000001  1.0000
  C   C78       1.0  0.52404  0.4974999999999999  0.01856  1.0000
  C   C79       1.0  0.58457  0.5464099999999997  0.022280000000000008  1.0000
  C   C80       1.0  0.5247499999999999  0.57632  0.0006800000000000002  1.0000
  N   N136      1.0  0.44114  0.603  0.028420000000000008  1.0000
  H   H92       1.0  0.38579  0.4563599999999999  0.07921  1.0000
  H   H93       1.0  0.36322  0.4244199999999999  0.021190000000000004  1.0000
  H   H94       1.0  0.53869  0.39643999999999996  0.009540000000000328  1.0000
  H   H95       1.0  0.56068  0.4102399999999999  0.06717000000000001  1.0000
  H   H96       1.0  0.56102  0.50001  0.08390000000000003  1.0000
  H   H97       1.0  0.65616  0.47187  0.0434  1.0000
  H   H98       1.0  0.52609  0.47082  0.9840600000000003  1.0000
  H   H99       1.0  0.44148  0.5043899999999998  0.027340000000000007  1.0000
  H   H100      1.0  0.60222  0.56965  0.05721000000000001  1.0000
  H   H101      1.0  0.66025  0.5366  0.0055400000000000015  1.0000
  H   H102      1.0  0.49001000000000006  0.5502  0.9690300000000002  1.0000
  H   H103      1.0  0.4701000000000001  0.62329  0.060100000000000015  1.0000
  H   H104      1.0  0.38268  0.5774399999999998  0.030820000000000007  1.0000
  C   C81       1.0  0.9178000000000001  0.368  0.42977  1.0000
  C   C82       1.0  0.03304999999999998  0.36670999999999987  0.4160500000000001  1.0000
  C   C83       1.0  0.047020000000000006  0.37612  0.3730700000000001  1.0000
  C   C84       1.0  0.011609999999999888  0.3295299999999999  0.33352  1.0000
  C   C85       1.0  0.96943  0.34289  0.2959000000000001  1.0000
  C   C86       1.0  0.94682  0.29550000000000004  0.2547500000000001  1.0000
  N   N137      1.0  0.8590299999999998  0.30119999999999997  0.22910000000000005  1.0000
  H   H105      1.0  0.90835  0.40204000000000006  0.4593800000000001  1.0000
  H   H106      1.0  0.86479  0.37032  0.4040300000000001  1.0000
  H   H107      1.0  0.06603000000000003  0.33065  0.41243000000000013  1.0000
  H   H108      1.0  0.07969  0.39621  0.4422800000000001  1.0000
  H   H109      1.0  0.0034000000000000757  0.40887000000000007  0.3747000000000001  1.0000
  H   H110      1.0  0.13067  0.38573999999999997  0.3693  1.0000
  H   H111      1.0  0.07855  0.3056399999999999  0.32236  1.0000
  H   H112      1.0  0.94881  0.30732000000000004  0.3429700000000001  1.0000
  H   H113      1.0  0.89679  0.3625499999999999  0.30703000000000014  1.0000
  H   H114      1.0  0.026029999999999994  0.36932  0.28829  1.0000
  H   H115      1.0  0.92599  0.26297  0.26453  1.0000
  H   H116      1.0  0.87131  0.33410000000000006  0.22279000000000004  1.0000
  H   H117      1.0  0.7919700000000001  0.30499000000000004  0.24810000000000004  1.0000
  C   C87       1.0  0.13013  0.6495799999999998  0.2676300000000001  1.0000
  C   C88       1.0  0.17795999999999995  0.6302399999999998  0.22139000000000006  1.0000
  C   C89       1.0  0.154  0.6622299999999999  0.19422000000000003  1.0000
  C   C90       1.0  0.04466  0.64901  0.17313000000000006  1.0000
  C   C91       1.0  0.014159999999999956  0.68635  0.15221000000000007  1.0000
  C   C92       1.0  0.9135  0.6683099999999998  0.12407000000000003  1.0000
  N   N138      1.0  0.8310800000000002  0.65389  0.14911000000000005  1.0000
  H   H118      1.0  0.08120000000000001  0.6814000000000001  0.27203  1.0000
  H   H119      1.0  0.07842  0.61951  0.27208  1.0000
  H   H120      1.0  0.14897  0.5909299999999997  0.20358000000000007  1.0000
  H   H121      1.0  0.26403  0.6294799999999998  0.22374000000000005  1.0000
  H   H122      1.0  0.16282  0.7024099999999998  0.21527000000000004  1.0000
  H   H123      1.0  0.21211  0.6556099999999998  0.16768  1.0000
  H   H124      1.0  0.04280999999999999  0.61086  0.14771  1.0000
  H   H125      1.0  0.9869799999999999  0.64892  0.19858000000000006  1.0000
  H   H126      1.0  0.003500000000000051  0.72284  0.17887  1.0000
  H   H127      1.0  0.07833999999999998  0.6917299999999997  0.13108  1.0000
  H   H128      1.0  0.9305  0.63489  0.09505  1.0000
  H   H129      1.0  0.7679  0.63668  0.12808  1.0000
  H   H130      1.0  0.8054300000000001  0.6856600000000002  0.17378000000000005  1.0000
  C   C93       1.0  0.04796000000000001  0.3485600000000001  0.7668700000000003  1.0000
  C   C94       1.0  0.1128499999999999  0.30667  0.76973  1.0000
  C   C95       1.0  0.06929000000000007  0.28441  0.803  1.0000
  C   C96       1.0  0.0946  0.31824  0.85101  1.0000
  C   C97       1.0  0.003979999999999991  0.31626  0.8814800000000003  1.0000
  C   C98       1.0  0.03928  0.3331200000000001  0.9300700000000002  1.0000
  N   N139      1.0  0.95029  0.3478400000000001  0.9591200000000002  1.0000
  H   H131      1.0  0.09826000000000001  0.37343  0.7548100000000002  1.0000
  H   H132      1.0  0.020019999999999927  0.37167999999999995  0.7997100000000003  1.0000
  H   H133      1.0  0.19455  0.3214200000000001  0.7791700000000003  1.0000
  H   H134      1.0  0.11569999999999991  0.27654  0.73684  1.0000
  H   H135      1.0  0.98414  0.27605000000000013  0.7975200000000002  1.0000
  H   H136      1.0  0.10384999999999998  0.24809000000000006  0.7965200000000002  1.0000
  H   H137      1.0  0.16690999999999998  0.3062499999999999  0.86149  1.0000
  H   H138      1.0  0.11123999999999999  0.35766999999999993  0.8542900000000002  1.0000
  H   H139      1.0  0.94427  0.34092  0.8779900000000003  1.0000
  H   H140      1.0  0.96591  0.2779999999999999  0.87107  1.0000
  H   H141      1.0  0.09588000000000003  0.3660100000000001  0.9378500000000002  1.0000
  H   H142      1.0  0.88884  0.32069999999999993  0.9477500000000002  1.0000
  H   H143      1.0  0.92479  0.38093000000000005  0.9576500000000002  1.0000
  C   C99       1.0  0.39820000000000005  0.13067  0.11055000000000002  1.0000
  C   C100      1.0  0.42999  0.14166  0.15849  1.0000
  C   C101      1.0  0.33699  0.15435000000000001  0.19001000000000007  1.0000
  C   C102      1.0  0.35029  0.13990999999999998  0.23030000000000006  1.0000
  C   C103      1.0  0.44218  0.16939000000000007  0.2604700000000001  1.0000
  C   C104      1.0  0.5069  0.13552  0.27566  1.0000
  N   N140      1.0  0.55407  0.09817999999999999  0.23805000000000007  1.0000
  H   H144      1.0  0.4658900000000001  0.11668  0.08936000000000002  1.0000
  H   H145      1.0  0.33529  0.10041  0.10051  1.0000
  H   H146      1.0  0.49132000000000003  0.17267  0.16888000000000006  1.0000
  H   H147      1.0  0.46534000000000003  0.10797  0.15968  1.0000
  H   H148      1.0  0.32602  0.19483  0.20142000000000004  1.0000
  H   H149      1.0  0.2645  0.13424999999999995  0.17257  1.0000
  H   H150      1.0  0.27754  0.14746000000000004  0.24960000000000004  1.0000
  H   H151      1.0  0.35764  0.099  0.21904000000000007  1.0000
  H   H152      1.0  0.4943  0.18909999999999996  0.24402000000000004  1.0000
  H   H153      1.0  0.4109  0.19862999999999995  0.28973  1.0000
  H   H154      1.0  0.45444  0.11577999999999997  0.29211  1.0000
  H   H155      1.0  0.60794  0.11584999999999994  0.22351  1.0000
  H   H156      1.0  0.59494  0.0747  0.24918000000000007  1.0000
  C   C105      1.0  0.54971  0.8275899999999998  0.90582  1.0000
  C   C106      1.0  0.62423  0.8463999999999999  0.8772400000000002  1.0000
  C   C107      1.0  0.56623  0.8655100000000001  0.8460700000000002  1.0000
  C   C108      1.0  0.53069  0.82263  0.80352  1.0000
  C   C109      1.0  0.47730000000000006  0.8402600000000001  0.7703400000000002  1.0000
  C   C110      1.0  0.37141  0.86271  0.7863800000000002  1.0000
  N   N141      1.0  0.38418  0.9171799999999998  0.8054300000000002  1.0000
  H   H157      1.0  0.47996  0.8069100000000001  0.8864000000000002  1.0000
  H   H158      1.0  0.52294  0.85991  0.9336600000000003  1.0000
  H   H159      1.0  0.67569  0.81677  0.8578500000000002  1.0000
  H   H160      1.0  0.67602  0.87744  0.8992700000000002  1.0000
  H   H161      1.0  0.49867  0.88616  0.8631000000000002  1.0000
  H   H162      1.0  0.61993  0.8921599999999997  0.83747  1.0000
  H   H163      1.0  0.60004  0.80274  0.7874900000000002  1.0000
  H   H164      1.0  0.47711  0.79533  0.8111700000000002  1.0000
  H   H165      1.0  0.53087  0.8672499999999997  0.7621100000000002  1.0000
  H   H166      1.0  0.46564999999999995  0.8071099999999999  0.7395200000000002  1.0000
  H   H167      1.0  0.34113  0.84906  0.81224  1.0000
  H   H168      1.0  0.4081  0.9309699999999997  0.7811500000000002  1.0000
  H   H169      1.0  0.31185  0.93122  0.8164000000000002  1.0000
  C   C111      1.0  0.47923  0.85676  0.4403800000000001  1.0000
  C   C112      1.0  0.58829  0.8511999999999998  0.4198500000000001  1.0000
  C   C113      1.0  0.5987499999999999  0.8745499999999999  0.3844100000000001  1.0000
  C   C114      1.0  0.54902  0.84059  0.34012  1.0000
  C   C115      1.0  0.52553  0.8707799999999998  0.31143  1.0000
  C   C116      1.0  0.48853  0.8371799999999999  0.26440000000000013  1.0000
  N   N142      1.0  0.41005999999999987  0.8611499999999997  0.24806000000000006  1.0000
  H   H170      1.0  0.48022  0.8914599999999998  0.47005000000000013  1.0000
  H   H171      1.0  0.42031  0.86064  0.41743000000000013  1.0000
  H   H172      1.0  0.60798  0.8116  0.4055600000000001  1.0000
  H   H173      1.0  0.64668  0.87066  0.4463600000000001  1.0000
  H   H174      1.0  0.56375  0.91133  0.3964700000000001  1.0000
  H   H175      1.0  0.68279  0.8815  0.3790900000000001  1.0000
  H   H176      1.0  0.6031  0.8112799999999998  0.3229700000000001  1.0000
  H   H177      1.0  0.47509  0.8216  0.3452900000000001  1.0000
  H   H178      1.0  0.46418  0.8964099999999998  0.3279800000000001  1.0000
  H   H179      1.0  0.59574  0.8945999999999997  0.3099200000000001  1.0000
  H   H180      1.0  0.45238  0.8012300000000001  0.26456000000000013  1.0000
  H   H181      1.0  0.43832000000000004  0.8972099999999997  0.2516200000000001  1.0000
  H   H182      1.0  0.34391  0.86463  0.2675400000000001  1.0000
  C   C117      1.0  0.49895000000000006  0.17933999999999997  0.77898  1.0000
  C   C118      1.0  0.47531  0.12934000000000012  0.7412700000000002  1.0000
  C   C119      1.0  0.53902  0.12472  0.7003  1.0000
  C   C120      1.0  0.50098  0.15844000000000005  0.6768300000000003  1.0000
  C   C121      1.0  0.5221  0.13787000000000005  0.6274800000000003  1.0000
  C   C122      1.0  0.63896  0.14150999999999997  0.61634  1.0000
  N   N143      1.0  0.6660199999999997  0.09680999999999995  0.57971  1.0000
  H   H183      1.0  0.51159  0.21029000000000003  0.76667  1.0000
  H   H184      1.0  0.57088  0.17759  0.79678  1.0000
  H   H185      1.0  0.39107  0.12391000000000012  0.7321900000000002  1.0000
  H   H186      1.0  0.49311999999999995  0.09870000000000007  0.7525900000000002  1.0000
  H   H187      1.0  0.62276  0.13402999999999995  0.70948  1.0000
  H   H188      1.0  0.53113  0.08503000000000008  0.6779100000000002  1.0000
  H   H189      1.0  0.41539  0.16131  0.6806000000000002  1.0000
  H   H190      1.0  0.5379399999999998  0.19671000000000002  0.6919400000000002  1.0000
  H   H191      1.0  0.48988  0.09854  0.61368  1.0000
  H   H192      1.0  0.47614000000000006  0.15830000000000002  0.6118400000000003  1.0000
  H   H193      1.0  0.68848  0.14424000000000006  0.6448900000000002  1.0000
  H   H194      1.0  0.61492  0.09060999999999997  0.5533  1.0000
  H   H195      1.0  0.6557799999999999  0.06610000000000008  0.5894300000000002  1.0000
  C   C123      1.0  0.05544999999999997  0.6534399999999999  0.6163800000000003  1.0000
  C   C124      1.0  0.15035  0.64493  0.64092  1.0000
  C   C125      1.0  0.12100000000000001  0.6370400000000002  0.6836600000000003  1.0000
  C   C126      1.0  0.09627  0.68621  0.72067  1.0000
  C   C127      1.0  0.08280999999999997  0.6810299999999998  0.76562  1.0000
  C   C128      1.0  0.99175  0.6436799999999999  0.7665000000000002  1.0000
  N   N144      1.0  0.031770000000000055  0.6014699999999997  0.7748700000000001  1.0000
  H   H196      1.0  0.033759999999999964  0.6189199999999998  0.58786  1.0000
  H   H197      1.0  0.98622  0.6624700000000001  0.6376200000000002  1.0000
  H   H198      1.0  0.21087  0.67628  0.6485700000000002  1.0000
  H   H199      1.0  0.18787999999999996  0.6113  0.6189  1.0000
  H   H200      1.0  0.053929999999999985  0.6091099999999999  0.6768200000000002  1.0000
  H   H201      1.0  0.18778  0.6212299999999997  0.6942500000000003  1.0000
  H   H202      1.0  0.16186  0.71424  0.72386  1.0000
  H   H203      1.0  0.02503999999999997  0.7009999999999997  0.7124000000000003  1.0000
  H   H204      1.0  0.15738  0.66991  0.7751800000000001  1.0000
  H   H205      1.0  0.07093999999999999  0.71875  0.7902200000000003  1.0000
  H   H206      1.0  0.9491  0.6290500000000001  0.7345100000000002  1.0000
  H   H207      1.0  0.9689500000000001  0.5772300000000001  0.7760500000000002  1.0000
  H   H208      1.0  0.07530999999999997  0.58136  0.7477700000000003  1.0000
