data_image0
_chemical_formula_structural       Mn5CN8C2N8CN16Cl2C4Mn5CN8C2N8CN16Cl2C7NC6NC2H8C3NC6NC2H8C3NC6NC2H8C3NC6NC2H8C3NC6NC2H8C3NC6NC2H8C3NC6NC2H8C3NC6NC2H8
_chemical_formula_sum              "Mn10 C104 N80 Cl4 H64"
_cell_length_a       16.2615
_cell_length_b       16.4998
_cell_length_c       24.963100000000004
_cell_angle_alpha    97.21069999999999
_cell_angle_beta     108.83899999999998
_cell_angle_gamma    60.765800000000006

_space_group_name_H-M_alt    "P 1"
_space_group_IT_number       1

loop_
  _space_group_symop_operation_xyz
  'x, y, z'

loop_
  _atom_site_type_symbol
  _atom_site_label
  _atom_site_symmetry_multiplicity
  _atom_site_fract_x
  _atom_site_fract_y
  _atom_site_fract_z
  _atom_site_occupancy
  Mn  Mn1       1.0  0.81711  0.8547700000000003  0.07473  1.0000
  Mn  Mn2       1.0  0.7775799999999999  0.051879999999999926  0.012360000000000001  1.0000
  Mn  Mn3       1.0  0.17036999999999994  0.19799  0.89916  1.0000
  Mn  Mn4       1.0  0.2225000000000001  0.006719999999999989  0.9727200000000001  1.0000
  Mn  Mn5       1.0  0.0031400000000000178  0.019629999999999995  0.99208  1.0000
  C   C1        1.0  0.7988599999999999  0.9929700000000002  0.16943000000000003  1.0000
  N   N1        1.0  0.7849099999999997  0.97577  0.11432000000000002  1.0000
  N   N2        1.0  0.7621599999999998  0.05316999999999994  0.08979000000000001  1.0000
  N   N3        1.0  0.75793  0.11705999999999996  0.12794  1.0000
  N   N4        1.0  0.78108  0.08129999999999993  0.17868  1.0000
  N   N5        1.0  0.7999499999999999  0.20734  0.07069000000000002  1.0000
  N   N6        1.0  0.82916  0.14262000000000002  0.03419  1.0000
  N   N7        1.0  0.91389  0.1288  0.03023  1.0000
  N   N8        1.0  0.94404  0.18198  0.06617000000000002  1.0000
  C   C2        1.0  0.8725299999999997  0.23032  0.0915  1.0000
  C   C3        1.0  0.79957  0.96686  0.86327  1.0000
  N   N9        1.0  0.79658  0.04533999999999993  0.9368400000000002  1.0000
  N   N10       1.0  0.7418599999999999  0.019390000000000015  0.8953000000000001  1.0000
  N   N11       1.0  8.999999999989514e-05  0.9313200000000003  0.04079  1.0000
  N   N12       1.0  0.9141499999999999  0.94062  0.03999  1.0000
  N   N13       1.0  0.9278099999999998  0.8668100000000002  0.06416000000000001  1.0000
  N   N14       1.0  0.022660000000000034  0.80935  0.08495000000000003  1.0000
  N   N15       1.0  0.8840000000000001  0.015589999999999998  0.9298100000000001  1.0000
  N   N16       1.0  0.88939  0.9633000000000002  0.8844500000000002  1.0000
  C   C4        1.0  0.06844  0.84944  0.07065000000000002  1.0000
  N   N17       1.0  0.22444000000000003  0.06949  0.86828  1.0000
  N   N18       1.0  0.24747999999999992  0.9964600000000001  0.89766  1.0000
  N   N19       1.0  0.28873000000000004  0.91952  0.8712500000000001  1.0000
  N   N20       1.0  0.2907100000000001  0.94143  0.8227000000000001  1.0000
  N   N21       1.0  0.21925000000000003  0.83878  0.9205800000000001  1.0000
  N   N22       1.0  0.18015999999999993  0.90749  0.9526300000000001  1.0000
  N   N23       1.0  0.09868999999999993  0.91237  0.9565700000000003  1.0000
  N   N24       1.0  0.08276999999999995  0.8461200000000001  0.9268000000000002  1.0000
  N   N25       1.0  0.12815  0.031170000000000003  0.10973000000000001  1.0000
  N   N26       1.0  0.12159999999999999  0.02007  0.055120000000000016  1.0000
  N   N27       1.0  0.19824999999999995  0.01883  0.04685000000000001  1.0000
  N   N28       1.0  0.25617  0.030330000000000003  0.09452000000000003  1.0000
  N   N29       1.0  0.0011600000000000616  0.11085999999999999  0.9414000000000001  1.0000
  N   N30       1.0  0.08358000000000017  0.10666999999999997  0.9398100000000003  1.0000
  N   N31       1.0  0.06401  0.17711  0.90945  1.0000
  N   N32       1.0  0.9680600000000001  0.22766000000000003  0.8869100000000002  1.0000
  Cl  Cl1       1.0  0.7249000000000001  0.94324  0.9924600000000001  1.0000
  Cl  Cl2       1.0  0.25952  0.12572  0.98744  1.0000
  C   C5        1.0  0.25008  0.03503  0.82098  1.0000
  C   C6        1.0  0.15850999999999993  0.8012500000000001  0.90442  1.0000
  C   C7        1.0  0.21213  0.03771000000000001  0.1334  1.0000
  C   C8        1.0  0.92845  0.18595  0.90614  1.0000
  Mn  Mn6       1.0  0.30824  0.28987  0.4744700000000001  1.0000
  Mn  Mn7       1.0  0.26821999999999996  0.51165  0.45456  1.0000
  Mn  Mn8       1.0  0.68334  0.7448  0.48325  1.0000
  Mn  Mn9       1.0  0.7296399999999998  0.5272  0.51846  1.0000
  Mn  Mn10      1.0  0.5014  0.51576  0.4906100000000001  1.0000
  C   C9        1.0  0.19124999999999998  0.40284  0.5557  1.0000
  N   N33       1.0  0.23883999999999994  0.39786000000000005  0.51965  1.0000
  N   N34       1.0  0.2250099999999999  0.4823100000000001  0.5142600000000002  1.0000
  N   N35       1.0  0.17171  0.53858  0.54683  1.0000
  N   N36       1.0  0.14939  0.49051  0.57357  1.0000
  N   N37       1.0  0.24465000000000006  0.65972  0.53454  1.0000
  N   N38       1.0  0.29819999999999997  0.6070500000000001  0.50175  1.0000
  N   N39       1.0  0.3834299999999999  0.6077800000000001  0.5169  1.0000
  N   N40       1.0  0.3895700000000001  0.6578100000000001  0.5625900000000001  1.0000
  C   C10       1.0  0.3016399999999999  0.6913700000000002  0.57215  1.0000
  C   C11       1.0  0.36911  0.46371  0.32756  1.0000
  N   N41       1.0  0.3170099999999999  0.5321700000000003  0.39691  1.0000
  N   N42       1.0  0.28894000000000003  0.50456  0.34552  1.0000
  N   N43       1.0  0.4853899999999998  0.41257000000000005  0.51634  1.0000
  N   N44       1.0  0.40481999999999996  0.40583000000000014  0.4894400000000001  1.0000
  N   N45       1.0  0.41944  0.32212  0.4979  1.0000
  N   N46       1.0  0.50786  0.27338999999999997  0.53368  1.0000
  N   N47       1.0  0.40985  0.51456  0.4099  1.0000
  N   N48       1.0  0.4442400000000001  0.4708700000000001  0.36738  1.0000
  C   C12       1.0  0.5487200000000001  0.33071  0.5469900000000001  1.0000
  N   N49       1.0  0.7436  0.63186  0.4381100000000001  1.0000
  N   N50       1.0  0.7652899999999999  0.54808  0.4528900000000001  1.0000
  N   N51       1.0  0.7853000000000001  0.49087  0.41128  1.0000
  N   N52       1.0  0.7778199999999998  0.5363900000000003  0.3684500000000001  1.0000
  N   N53       1.0  0.7654700000000001  0.36148  0.4532300000000001  1.0000
  N   N54       1.0  0.70514  0.42438  0.47965  1.0000
  N   N55       1.0  0.6214999999999999  0.42129  0.4654300000000001  1.0000
  N   N56       1.0  0.6237099999999999  0.35832  0.42627  1.0000
  N   N57       1.0  0.5779600000000004  0.53437  0.6204700000000001  1.0000
  N   N58       1.0  0.5968200000000001  0.5175  0.5709700000000001  1.0000
  N   N59       1.0  0.68466  0.51099  0.57896  1.0000
  N   N60       1.0  0.72642  0.5196400000000001  0.63228  1.0000
  N   N61       1.0  0.5116  0.62093  0.463  1.0000
  N   N62       1.0  0.5919300000000003  0.62962  0.4839100000000001  1.0000
  N   N63       1.0  0.57391  0.71247  0.4702300000000001  1.0000
  N   N64       1.0  0.4829099999999999  0.75822  0.43655  1.0000
  Cl  Cl3       1.0  0.23763999999999996  0.399  0.40363  1.0000
  Cl  Cl4       1.0  0.7576599999999997  0.64553  0.56049  1.0000
  C   C13       1.0  0.75031  0.62442  0.38520000000000004  1.0000
  C   C14       1.0  0.71404  0.32167000000000007  0.41912  1.0000
  C   C15       1.0  0.66051  0.5332599999999998  0.6580600000000001  1.0000
  C   C16       1.0  0.44391  0.70019  0.43067  1.0000
  C   C17       1.0  0.825  0.20711000000000004  0.8765600000000001  1.0000
  C   C18       1.0  0.753  0.24113  0.9046500000000002  1.0000
  C   C19       1.0  0.6524999999999999  0.2759599999999999  0.8736800000000002  1.0000
  N   N65       1.0  0.57894  0.30794  0.90222  1.0000
  C   C20       1.0  0.6234500000000001  0.28444  0.81438  1.0000
  C   C21       1.0  0.6939100000000001  0.25688  0.7854100000000003  1.0000
  C   C22       1.0  0.66258  0.28144  0.72369  1.0000
  C   C23       1.0  0.5781200000000001  0.3652  0.7004500000000002  1.0000
  C   C24       1.0  0.5461500000000001  0.38714  0.6427200000000001  1.0000
  C   C25       1.0  0.6010699999999998  0.3269800000000001  0.6076100000000001  1.0000
  N   N66       1.0  0.6840099999999998  0.24675  0.6309600000000001  1.0000
  C   C26       1.0  0.71671  0.22384999999999997  0.6873100000000002  1.0000
  C   C27       1.0  0.7943699999999998  0.21449  0.81691  1.0000
  H   H1        1.0  0.7739799999999999  0.24470999999999998  0.9500300000000003  1.0000
  H   H2        1.0  0.5979500000000001  0.305  0.9463700000000003  1.0000
  H   H3        1.0  0.5040699999999999  0.33517000000000025  0.87917  1.0000
  H   H4        1.0  0.54553  0.31484000000000006  0.7911300000000001  1.0000
  H   H5        1.0  0.5366099999999999  0.4134  0.7271500000000001  1.0000
  H   H6        1.0  0.4758599999999998  0.44805  0.62516  1.0000
  H   H7        1.0  0.78162  0.15809  0.7028  1.0000
  H   H8        1.0  0.8493699999999995  0.19352  0.79533  1.0000
  C   C28       1.0  0.8898499999999999  0.2685  0.14861  1.0000
  C   C29       1.0  0.9710099999999999  0.28491  0.17209  1.0000
  C   C30       1.0  0.9961  0.3065  0.22926  1.0000
  N   N67       1.0  0.07955000000000002  0.32202  0.25293  1.0000
  C   C31       1.0  0.9419300000000002  0.30879  0.26366  1.0000
  C   C32       1.0  0.8615999999999999  0.29124000000000005  0.24113  1.0000
  C   C33       1.0  0.8133099999999999  0.28269000000000005  0.27955  1.0000
  C   C34       1.0  0.86972  0.21698000000000006  0.32481  1.0000
  C   C35       1.0  0.8305499999999998  0.21984  0.36753  1.0000
  C   C36       1.0  0.73455  0.28925  0.3651  1.0000
  N   N68       1.0  0.67896  0.34955  0.31905  1.0000
  C   C37       1.0  0.71498  0.34624  0.27603  1.0000
  C   C38       1.0  0.83395  0.2743  0.18344  1.0000
  H   H9        1.0  0.016899999999999915  0.27779  0.14667  1.0000
  H   H10       1.0  0.11490999999999996  0.3283100000000001  0.22671000000000002  1.0000
  H   H11       1.0  0.10979  0.32244  0.29674000000000006  1.0000
  H   H12       1.0  0.9633599999999996  0.32254  0.30827  1.0000
  H   H13       1.0  0.94663  0.1677  0.32927  1.0000
  H   H14       1.0  0.8788399999999995  0.17511  0.40527  1.0000
  H   H15       1.0  0.67073  0.39886  0.24220000000000005  1.0000
  H   H16       1.0  0.7734699999999998  0.25871  0.16713  1.0000
  C   C39       1.0  0.8486599999999999  0.9213800000000001  0.21389  1.0000
  C   C40       1.0  0.9509099999999998  0.8616400000000001  0.22640000000000005  1.0000
  C   C41       1.0  0.9984599999999997  0.7910100000000002  0.2683400000000001  1.0000
  N   N69       1.0  0.10214000000000001  0.7283  0.2806  1.0000
  C   C42       1.0  0.9423799999999999  0.7791200000000003  0.296  1.0000
  C   C43       1.0  0.8392499999999998  0.8355600000000001  0.28093000000000007  1.0000
  C   C44       1.0  0.7810100000000002  0.8047899999999999  0.29862  1.0000
  C   C45       1.0  0.7555799999999997  0.83456  0.34875  1.0000
  C   C46       1.0  0.7337199999999997  0.78085  0.37516  1.0000
  C   C47       1.0  0.74075  0.6968  0.35162000000000004  1.0000
  N   N70       1.0  0.7549699999999996  0.67514  0.29980000000000007  1.0000
  C   C48       1.0  0.7710099999999999  0.7289000000000002  0.2719500000000001  1.0000
  C   C49       1.0  0.7929799999999999  0.9090900000000002  0.2414  1.0000
  H   H17       1.0  0.9931900000000001  0.86931  0.20337000000000002  1.0000
  H   H18       1.0  0.14182000000000003  0.72759  0.25483  1.0000
  H   H19       1.0  0.1392799999999997  0.6788900000000004  0.31399  1.0000
  H   H20       1.0  0.97806  0.72226  0.32681000000000004  1.0000
  H   H21       1.0  0.7595499999999997  0.8949000000000003  0.36939000000000005  1.0000
  H   H22       1.0  0.71993  0.8005  0.41565000000000013  1.0000
  H   H23       1.0  0.7849100000000002  0.70777  0.23145000000000004  1.0000
  H   H24       1.0  0.71346  0.9533100000000002  0.22966  1.0000
  C   C50       1.0  0.17191000000000004  0.8226  0.10390000000000002  1.0000
  C   C51       1.0  0.24720000000000003  0.79343  0.07895  1.0000
  C   C52       1.0  0.3466699999999999  0.75147  0.11225  1.0000
  N   N71       1.0  0.42317999999999983  0.72127  0.08637000000000002  1.0000
  C   C53       1.0  0.37111  0.7346  0.17046000000000006  1.0000
  C   C54       1.0  0.29664999999999997  0.76025  0.19583  1.0000
  C   C55       1.0  0.3213999999999998  0.7359800000000001  0.2564  1.0000
  C   C56       1.0  0.26702000000000004  0.79919  0.29094  1.0000
  C   C57       1.0  0.29763999999999996  0.78042  0.34911  1.0000
  C   C58       1.0  0.38368999999999986  0.6987200000000002  0.3729700000000001  1.0000
  N   N72       1.0  0.43201999999999996  0.6363  0.33826000000000006  1.0000
  C   C59       1.0  0.40123  0.6506900000000002  0.28124000000000005  1.0000
  C   C60       1.0  0.19775000000000012  0.80665  0.16251000000000002  1.0000
  H   H25       1.0  0.23009000000000002  0.79782  0.0338  1.0000
  H   H26       1.0  0.40553  0.73324  0.04303  1.0000
  H   H27       1.0  0.49775999999999987  0.68666  0.11011000000000003  1.0000
  H   H28       1.0  0.44798  0.70111  0.19579000000000005  1.0000
  H   H29       1.0  0.20405  0.86546  0.27373000000000003  1.0000
  H   H30       1.0  0.26023  0.83291  0.3759900000000001  1.0000
  H   H31       1.0  0.44289  0.59793  0.2561  1.0000
  H   H32       1.0  0.13990999999999995  0.82551  0.18159  1.0000
  C   C61       1.0  0.24340999999999996  0.06651  0.19145000000000004  1.0000
  C   C62       1.0  0.22453000000000006  0.04229  0.23632000000000006  1.0000
  C   C63       1.0  0.2550899999999999  0.07076  0.29113000000000006  1.0000
  N   N73       1.0  0.2355300000000001  0.046419999999999906  0.33696  1.0000
  C   C64       1.0  0.30159  0.12621  0.30053  1.0000
  C   C65       1.0  0.31853999999999993  0.1535  0.2556  1.0000
  C   C66       1.0  0.35607  0.22221  0.26504  1.0000
  C   C67       1.0  0.42929  0.21745  0.31522000000000006  1.0000
  C   C68       1.0  0.44515000000000005  0.2939  0.33148  1.0000
  C   C69       1.0  0.38693  0.37631  0.29783  1.0000
  N   N74       1.0  0.3214000000000001  0.37722999999999995  0.24713000000000002  1.0000
  C   C70       1.0  0.30867  0.30146000000000006  0.22886  1.0000
  C   C71       1.0  0.29052  0.12185  0.20137000000000005  1.0000
  H   H33       1.0  0.18663  0.0012199999999999997  0.22879000000000002  1.0000
  H   H34       1.0  0.18982000000000004  0.016000000000000014  0.32952  1.0000
  H   H35       1.0  0.26522999999999997  0.0601100000000001  0.37867  1.0000
  H   H36       1.0  0.3192399999999999  0.15245  0.34239  1.0000
  H   H37       1.0  0.46866999999999986  0.1574  0.34408000000000005  1.0000
  H   H38       1.0  0.49276999999999993  0.29271000000000014  0.3736400000000001  1.0000
  H   H39       1.0  0.25364  0.30723  0.18890000000000007  1.0000
  H   H40       1.0  0.30284999999999995  0.14261000000000004  0.16642  1.0000
  C   C72       1.0  0.6734300000000001  0.56368  0.7166800000000001  1.0000
  C   C73       1.0  0.7019099999999996  0.5019  0.76105  1.0000
  C   C74       1.0  0.7487199999999995  0.5155900000000002  0.81683  1.0000
  N   N75       1.0  0.7753599999999999  0.45324  0.86193  1.0000
  C   C75       1.0  0.77105  0.58933  0.8277800000000001  1.0000
  C   C76       1.0  0.7402399999999996  0.6533  0.78401  1.0000
  C   C77       1.0  0.7526399999999995  0.73729  0.79705  1.0000
  C   C78       1.0  0.8208299999999998  0.75044  0.78082  1.0000
  C   C79       1.0  0.8354600000000002  0.8281500000000003  0.7991500000000002  1.0000
  C   C80       1.0  0.7807499999999999  0.89176  0.8332  1.0000
  N   N76       1.0  0.7119  0.8788800000000002  0.8453000000000003  1.0000
  C   C81       1.0  0.6959000000000002  0.80546  0.8279800000000003  1.0000
  C   C82       1.0  0.6904699999999997  0.64076  0.72896  1.0000
  H   H41       1.0  0.6974399999999997  0.4381800000000001  0.7520700000000002  1.0000
  H   H42       1.0  0.7396799999999999  0.41328  0.8569500000000001  1.0000
  H   H43       1.0  0.8246300000000001  0.45152  0.9015900000000001  1.0000
  H   H44       1.0  0.8116599999999999  0.59737  0.8703100000000001  1.0000
  H   H45       1.0  0.8642199999999999  0.6995100000000002  0.75561  1.0000
  H   H46       1.0  0.8887999999999997  0.8378900000000002  0.7876000000000002  1.0000
  H   H47       1.0  0.6405099999999997  0.7992700000000003  0.83971  1.0000
  H   H48       1.0  0.6698899999999999  0.6882300000000002  0.6949  1.0000
  C   C83       1.0  0.15724000000000005  0.74421  0.8541500000000001  1.0000
  C   C84       1.0  0.11447000000000011  0.68563  0.8444800000000002  1.0000
  C   C85       1.0  0.11013999999999986  0.6361400000000003  0.79444  1.0000
  N   N77       1.0  0.06817999999999998  0.57508  0.7848900000000002  1.0000
  C   C86       1.0  0.14679000000000003  0.6471700000000002  0.7536600000000002  1.0000
  C   C87       1.0  0.18934999999999994  0.70583  0.7631300000000002  1.0000
  C   C88       1.0  0.22506000000000015  0.71933  0.7196200000000001  1.0000
  C   C89       1.0  0.15844999999999998  0.78219  0.6739100000000001  1.0000
  C   C90       1.0  0.18877999999999998  0.78315  0.6278800000000001  1.0000
  C   C91       1.0  0.28501000000000015  0.71953  0.6272500000000001  1.0000
  N   N78       1.0  0.35044  0.66282  0.67373  1.0000
  C   C92       1.0  0.32363000000000003  0.66353  0.7202  1.0000
  C   C93       1.0  0.19484  0.7536  0.8131900000000002  1.0000
  H   H49       1.0  0.08452999999999998  0.67873  0.87555  1.0000
  H   H50       1.0  0.048459999999999955  0.56039  0.81693  1.0000
  H   H51       1.0  0.05684000000000002  0.54436  0.74583  1.0000
  H   H52       1.0  0.1425099999999999  0.6101000000000002  0.71465  1.0000
  H   H53       1.0  0.08176000000000004  0.82623  0.6723600000000001  1.0000
  H   H54       1.0  0.13531999999999997  0.8274000000000002  0.5908300000000001  1.0000
  H   H55       1.0  0.3770999999999999  0.6157800000000001  0.75569  1.0000
  H   H56       1.0  0.22562999999999983  0.8004900000000003  0.81907  1.0000
  C   C94       1.0  0.16713000000000003  0.32984  0.5611300000000001  1.0000
  C   C95       1.0  0.15122999999999998  0.27871  0.51303  1.0000
  C   C96       1.0  0.13570999999999994  0.20376000000000005  0.51616  1.0000
  N   N79       1.0  0.12762  0.14756000000000002  0.46820000000000006  1.0000
  C   C97       1.0  0.13605999999999985  0.17962000000000006  0.56776  1.0000
  C   C98       1.0  0.15705000000000002  0.22664999999999996  0.6170700000000001  1.0000
  C   C99       1.0  0.18548000000000006  0.18167000000000003  0.6723200000000001  1.0000
  C   C100      1.0  0.2514799999999999  0.08626  0.68012  1.0000
  C   C101      1.0  0.2745  0.03949  0.7293600000000002  1.0000
  C   C102      1.0  0.23237999999999995  0.08814000000000001  0.7718200000000001  1.0000
  N   N80       1.0  0.17135999999999998  0.18183000000000002  0.7650400000000003  1.0000
  C   C103      1.0  0.14831000000000005  0.22963  0.7169000000000001  1.0000
  C   C104      1.0  0.16809000000000004  0.30496000000000006  0.6132600000000001  1.0000
  H   H57       1.0  0.15262000000000003  0.29628  0.4730500000000001  1.0000
  H   H58       1.0  0.13335000000000002  0.16193  0.43034  1.0000
  H   H59       1.0  0.12688000000000002  0.0856  0.47222  1.0000
  H   H60       1.0  0.12605999999999995  0.12011  0.57029  1.0000
  H   H61       1.0  0.28484000000000004  0.04742000000000001  0.6476700000000001  1.0000
  H   H62       1.0  0.3240399999999999  0.9653100000000001  0.7337000000000001  1.0000
  H   H63       1.0  0.09928000000000006  0.3039200000000001  0.7128200000000002  1.0000
  H   H64       1.0  0.18509  0.34123  0.65111  1.0000
