data_image0
_chemical_formula_structural       Mn5CN8C2N8CN16Cl2C4Mn5CN8C2N8CN16Cl2C12FCFC7H14C8FCFC7H14C8FCFC7H14C8FCFC7H14C8FCFC7H14C8FCFC7H14C8FCFC7H14C8FCFC7H14
_chemical_formula_sum              "Mn10 C144 N64 Cl4 F16 H112"
_cell_length_a       19.8621
_cell_length_b       17.6077
_cell_length_c       21.9772
_cell_angle_alpha    98.96349999999998
_cell_angle_beta     110.0754
_cell_angle_gamma    70.5173

_symmetry_space_group_name_H-M    'P 1'
_symmetry_Int_Tables_number       1

loop_
  _symmetry_equiv_pos_as_xyz
  'x,y,z'

loop_
  _atom_site_type_symbol
  _atom_site_label
  _atom_site_symmetry_multiplicity
  _atom_site_fract_x
  _atom_site_fract_y
  _atom_site_fract_z
  _atom_site_occupancy
  Mn  Mn1       1.0  0.86994  0.76404  0.015820000000000004  1.0000
  Mn  Mn2       1.0  0.8305100000000001  0.96393  0.9951400000000001  1.0000
  Mn  Mn3       1.0  0.052980000000000055  0.28487  0.9063500000000001  1.0000
  Mn  Mn4       1.0  0.12302000000000005  0.09687999999999997  0.96613  1.0000
  Mn  Mn5       1.0  0.9883300000000002  0.017690000000000004  0.9902600000000001  1.0000
  C   C1        1.0  0.77929  0.85476  0.10822000000000001  1.0000
  N   N1        1.0  0.8246300000000003  0.85268  0.07417  1.0000
  N   N2        1.0  0.8205899999999999  0.92848  0.07255  1.0000
  N   N3        1.0  0.7772899999999999  0.9755500000000001  0.10624000000000003  1.0000
  N   N4        1.0  0.7513  0.9307899999999999  0.13013000000000002  1.0000
  N   N5        1.0  0.8328400000000001  0.10333  0.08762  1.0000
  N   N6        1.0  0.8658400000000007  0.05437  0.04766  1.0000
  N   N7        1.0  0.9184800000000003  0.07970999999999998  0.0415  1.0000
  N   N8        1.0  0.9216700000000001  0.14678  0.07742  1.0000
  C   C2        1.0  0.86773  0.16048  0.10577  1.0000
  C   C3        1.0  0.8370300000000002  0.9671800000000002  0.82059  1.0000
  N   N9        1.0  0.8390200000000005  0.9961499999999999  0.91752  1.0000
  N   N10       1.0  0.7957599999999999  0.9797500000000001  0.86027  1.0000
  N   N11       1.0  0.99789  0.9137699999999997  0.03307000000000001  1.0000
  N   N12       1.0  0.93656  0.8906  0.01453  1.0000
  N   N13       1.0  0.9524900000000002  0.8154699999999998  0.02787  1.0000
  N   N14       1.0  0.02460999999999998  0.78817  0.06041  1.0000
  N   N15       1.0  0.9038699999999997  0.99477  0.91391  1.0000
  N   N16       1.0  0.9058700000000001  0.9748299999999999  0.85364  1.0000
  C   C4        1.0  0.05229000000000002  0.85201  0.07011  1.0000
  N   N17       1.0  0.09797000000000007  0.18573000000000003  0.8560100000000002  1.0000
  N   N18       1.0  0.12307000000000007  0.11320000000000001  0.8783800000000002  1.0000
  N   N19       1.0  0.15562  0.06009  0.83983  1.0000
  N   N20       1.0  0.15398000000000003  0.09848  0.792  1.0000
  N   N21       1.0  0.14689999999999998  0.93848  0.89589  1.0000
  N   N22       1.0  0.11073000000000008  0.98665  0.9344100000000001  1.0000
  N   N23       1.0  0.061030000000000056  0.95698  0.9407600000000002  1.0000
  N   N24       1.0  0.06300999999999997  0.88761  0.90634  1.0000
  N   N25       1.0  0.12182000000000003  0.007270000000000001  0.11934000000000002  1.0000
  N   N26       1.0  0.08038000000000002  0.04126  0.06282000000000001  1.0000
  N   N27       1.0  0.11444000000000001  0.0879  0.05169  1.0000
  N   N28       1.0  0.17125  0.09437  0.10191  1.0000
  N   N29       1.0  0.96304  0.12466  0.94447  1.0000
  N   N30       1.0  0.015430000000000044  0.15121  0.9399400000000001  1.0000
  N   N31       1.0  0.9879300000000001  0.22462999999999997  0.9187500000000001  1.0000
  N   N32       1.0  0.9146000000000001  0.24873999999999996  0.90535  1.0000
  Cl  Cl1       1.0  0.79601  0.85519  0.9391200000000001  1.0000
  Cl  Cl2       1.0  0.13757  0.22154  0.9965  1.0000
  C   C5        1.0  0.11945000000000001  0.17725999999999997  0.8031  1.0000
  C   C6        1.0  0.11681000000000007  0.87752  0.8783500000000001  1.0000
  C   C7        1.0  0.17744000000000001  0.04362999999999999  0.14395000000000002  1.0000
  C   C8        1.0  0.8978700000000002  0.18615  0.91958  1.0000
  Mn  Mn6       1.0  0.30404000000000003  0.32322  0.5236500000000001  1.0000
  Mn  Mn7       1.0  0.29673000000000005  0.4870300000000001  0.45003  1.0000
  Mn  Mn8       1.0  0.67005  0.68825  0.46191000000000004  1.0000
  Mn  Mn9       1.0  0.6761500000000004  0.51487  0.52223  1.0000
  Mn  Mn10      1.0  0.4864800000000001  0.50125  0.48549000000000003  1.0000
  C   C9        1.0  0.26613  0.47087  0.6149800000000001  1.0000
  N   N33       1.0  0.2653500000000001  0.43861999999999995  0.5553  1.0000
  N   N34       1.0  0.24970000000000003  0.50079  0.52073  1.0000
  N   N35       1.0  0.23383  0.56855  0.55559  1.0000
  N   N36       1.0  0.24353000000000005  0.55189  0.61502  1.0000
  N   N37       1.0  0.27854  0.65181  0.49851  1.0000
  N   N38       1.0  0.32456  0.58869  0.47766000000000003  1.0000
  N   N39       1.0  0.39417000000000013  0.59179  0.50156  1.0000
  N   N40       1.0  0.3951  0.65533  0.54319  1.0000
  C   C10       1.0  0.3224600000000001  0.69219  0.54109  1.0000
  C   C11       1.0  0.38282  0.38965  0.3115  1.0000
  N   N41       1.0  0.34574999999999995  0.47114  0.3827900000000001  1.0000
  N   N42       1.0  0.32234  0.42753  0.33038  1.0000
  N   N43       1.0  0.46352  0.42306  0.5282  1.0000
  N   N44       1.0  0.39469  0.41687  0.51029  1.0000
  N   N45       1.0  0.3963800000000001  0.35205  0.53441  1.0000
  N   N46       1.0  0.46477  0.31468  0.5699600000000001  1.0000
  N   N47       1.0  0.41766000000000003  0.46486  0.39574000000000004  1.0000
  N   N48       1.0  0.4426499999999999  0.412  0.35206  1.0000
  C   C12       1.0  0.5070600000000002  0.35851  0.5658100000000001  1.0000
  N   N49       1.0  0.7161600000000002  0.57754  0.42791000000000007  1.0000
  N   N50       1.0  0.72211  0.51041  0.4517  1.0000
  N   N51       1.0  0.7377300000000001  0.44891  0.41061000000000003  1.0000
  N   N52       1.0  0.7401300000000001  0.47565  0.35850000000000004  1.0000
  N   N53       1.0  0.6906900000000001  0.3567  0.4612900000000001  1.0000
  N   N54       1.0  0.6477800000000001  0.41509  0.4888700000000001  1.0000
  N   N55       1.0  0.5784400000000001  0.41083  0.46893000000000007  1.0000
  N   N56       1.0  0.57487  0.35087  0.4243  1.0000
  N   N57       1.0  0.53091  0.5921  0.61735  1.0000
  N   N58       1.0  0.55503  0.53622  0.57493  1.0000
  N   N59       1.0  0.6283300000000003  0.52304  0.5895800000000001  1.0000
  N   N60       1.0  0.65353  0.56394  0.64306  1.0000
  N   N61       1.0  0.51043  0.57969  0.44336000000000003  1.0000
  N   N62       1.0  0.5790799999999999  0.5871  0.46384000000000003  1.0000
  N   N63       1.0  0.5785600000000001  0.6520499999999999  0.4408  1.0000
  N   N64       1.0  0.51113  0.68839  0.40295000000000003  1.0000
  Cl  Cl3       1.0  0.26503000000000004  0.37066  0.42212000000000005  1.0000
  Cl  Cl4       1.0  0.70755  0.63053  0.5581700000000002  1.0000
  C   C13       1.0  0.7253600000000003  0.556  0.36968  1.0000
  C   C14       1.0  0.64479  0.31831  0.419  1.0000
  C   C15       1.0  0.5928400000000003  0.60945  0.65926  1.0000
  C   C16       1.0  0.46871  0.64302  0.40421  1.0000
  C   C17       1.0  0.8216100000000001  0.17897  0.88297  1.0000
  C   C18       1.0  0.7925000000000003  0.2015  0.8180100000000001  1.0000
  C   C19       1.0  0.7165600000000001  0.21554  0.78363  1.0000
  C   C20       1.0  0.6827000000000001  0.26183  0.7242  1.0000
  C   C21       1.0  0.68225  0.22422  0.66307  1.0000
  C   C22       1.0  0.63381  0.26511  0.60681  1.0000
  C   C23       1.0  0.58407  0.34311  0.6112200000000001  1.0000
  C   C24       1.0  0.5920100000000001  0.38371  0.67256  1.0000
  F   F1        1.0  0.54206  0.45656  0.67938  1.0000
  C   C25       1.0  0.6417700000000002  0.34338  0.7285000000000001  1.0000
  F   F2        1.0  0.6441100000000001  0.3809  0.7876800000000002  1.0000
  C   C26       1.0  0.66939  0.19984  0.81174  1.0000
  C   C27       1.0  0.6963300000000001  0.17405  0.8758100000000001  1.0000
  C   C28       1.0  0.6414000000000001  0.15661  0.90382  1.0000
  C   C29       1.0  0.67778  0.1312  0.9746600000000001  1.0000
  C   C30       1.0  0.6119300000000001  0.08764  0.8631  1.0000
  C   C31       1.0  0.57386  0.23265  0.9023  1.0000
  C   C32       1.0  0.7722800000000002  0.16919999999999996  0.9123200000000001  1.0000
  H   H1        1.0  0.8273800000000001  0.21638  0.7958700000000001  1.0000
  H   H2        1.0  0.7140600000000001  0.16142  0.65885  1.0000
  H   H3        1.0  0.62724  0.23156  0.5604  1.0000
  H   H4        1.0  0.6102700000000001  0.21225000000000002  0.7841600000000001  1.0000
  H   H5        1.0  0.6976100000000001  0.17985  0.006809999999999983  1.0000
  H   H6        1.0  0.63648  0.11951000000000002  0.99282  1.0000
  H   H7        1.0  0.7249200000000002  0.0746  0.9784  1.0000
  H   H8        1.0  0.56991  0.07729  0.88112  1.0000
  H   H9        1.0  0.65836  0.030380000000000015  0.8660800000000002  1.0000
  H   H10       1.0  0.58407  0.10172  0.81125  1.0000
  H   H11       1.0  0.5938000000000001  0.28497  0.92659  1.0000
  H   H12       1.0  0.5373400000000002  0.22393  0.92763  1.0000
  H   H13       1.0  0.53785  0.24661  0.85182  1.0000
  H   H14       1.0  0.79281  0.16016  0.96339  1.0000
  C   C33       1.0  0.84464  0.23094  0.14764  1.0000
  C   C34       1.0  0.80015  0.22885  0.18452000000000002  1.0000
  C   C35       1.0  0.7737899999999999  0.29611000000000004  0.22227  1.0000
  C   C36       1.0  0.73008  0.29034  0.26367  1.0000
  C   C37       1.0  0.76072  0.2301  0.30926  1.0000
  C   C38       1.0  0.7257900000000002  0.2315  0.35525  1.0000
  C   C39       1.0  0.6590400000000001  0.29222  0.35604  1.0000
  C   C40       1.0  0.6241400000000001  0.34729  0.30587  1.0000
  F   F3        1.0  0.56093  0.40878  0.30594000000000005  1.0000
  C   C41       1.0  0.6595400000000001  0.34641  0.26026000000000005  1.0000
  F   F4        1.0  0.62669  0.40288  0.21476000000000003  1.0000
  C   C42       1.0  0.7918799999999999  0.36712  0.22231  1.0000
  C   C43       1.0  0.83798  0.37043  0.18614  1.0000
  C   C44       1.0  0.8602700000000001  0.4463  0.18511  1.0000
  C   C45       1.0  0.82317  0.4797  0.11656000000000001  1.0000
  C   C46       1.0  0.94677  0.42526  0.20361000000000004  1.0000
  C   C47       1.0  0.8345800000000001  0.5144  0.23293000000000003  1.0000
  C   C48       1.0  0.86299  0.30118  0.14837000000000003  1.0000
  H   H15       1.0  0.7849  0.1749  0.18339  1.0000
  H   H16       1.0  0.81431  0.18504  0.31216  1.0000
  H   H17       1.0  0.7543399999999999  0.18985  0.39402  1.0000
  H   H18       1.0  0.7703300000000001  0.41870999999999997  0.25124  1.0000
  H   H19       1.0  0.76114  0.49420000000000003  0.10297  1.0000
  H   H20       1.0  0.83633  0.53587  0.11474  1.0000
  H   H21       1.0  0.8425500000000001  0.43548  0.07957000000000002  1.0000
  H   H22       1.0  0.96372  0.48031  0.2069  1.0000
  H   H23       1.0  0.9692  0.3831  0.16715  1.0000
  H   H24       1.0  0.9746  0.39716  0.25142000000000003  1.0000
  H   H25       1.0  0.7724500000000001  0.53448  0.21932000000000001  1.0000
  H   H26       1.0  0.85242  0.56745  0.2314  1.0000
  H   H27       1.0  0.85895  0.49426999999999993  0.28351  1.0000
  H   H28       1.0  0.8955400000000001  0.30225  0.11808  1.0000
  C   C49       1.0  0.7442500000000001  0.79232  0.10357000000000002  1.0000
  C   C50       1.0  0.72603  0.7814  0.15663000000000002  1.0000
  C   C51       1.0  0.6924700000000003  0.72214  0.15414000000000003  1.0000
  C   C52       1.0  0.6893200000000003  0.69753  0.21499000000000001  1.0000
  C   C53       1.0  0.6351300000000001  0.66083  0.21236  1.0000
  C   C54       1.0  0.6447899999999999  0.61705  0.26413  1.0000
  C   C55       1.0  0.7063999999999999  0.61302  0.3204  1.0000
  C   C56       1.0  0.7536399999999999  0.65924  0.32731  1.0000
  F   F5        1.0  0.8117800000000001  0.65809  0.38267  1.0000
  C   C57       1.0  0.74653  0.69997  0.27494  1.0000
  F   F6        1.0  0.8016900000000007  0.73271  0.28176  1.0000
  C   C58       1.0  0.66787  0.6817  0.09376  1.0000
  C   C59       1.0  0.67899  0.69768  0.037340000000000005  1.0000
  C   C60       1.0  0.6432800000000002  0.65951  0.97079  1.0000
  C   C61       1.0  0.66042  0.6835899999999999  0.91399  1.0000
  C   C62       1.0  0.5569000000000002  0.68758  0.9556700000000001  1.0000
  C   C63       1.0  0.6732100000000003  0.56668  0.97255  1.0000
  C   C64       1.0  0.7206800000000001  0.75127  0.04415  1.0000
  H   H29       1.0  0.7393800000000003  0.81908  0.20008  1.0000
  H   H30       1.0  0.5875  0.66196  0.16914  1.0000
  H   H31       1.0  0.6054699999999998  0.58451  0.25937  1.0000
  H   H32       1.0  0.64053  0.63682  0.0903  1.0000
  H   H33       1.0  0.7220400000000003  0.66415  0.9217800000000002  1.0000
  H   H34       1.0  0.63412  0.65417  0.8673000000000002  1.0000
  H   H35       1.0  0.63752  0.74987  0.9083900000000001  1.0000
  H   H36       1.0  0.5292400000000002  0.66198  0.9077  1.0000
  H   H37       1.0  0.53489  0.75451  0.95468  1.0000
  H   H38       1.0  0.5401  0.66838  0.99271  1.0000
  H   H39       1.0  0.7357300000000001  0.5462899999999999  0.9880500000000001  1.0000
  H   H40       1.0  0.6526999999999998  0.53814  0.9237600000000001  1.0000
  H   H41       1.0  0.65431  0.54398  0.00621  1.0000
  H   H42       1.0  0.73183  0.7653299999999998  0.00308  1.0000
  C   C65       1.0  0.08444000000000002  0.86684  0.14145  1.0000
  C   C66       1.0  0.15887  0.82364  0.17619000000000004  1.0000
  C   C67       1.0  0.17818000000000006  0.81129  0.24305000000000002  1.0000
  C   C68       1.0  0.25364  0.76343  0.28345  1.0000
  C   C69       1.0  0.28214  0.7914  0.34779000000000004  1.0000
  C   C70       1.0  0.34709000000000007  0.74459  0.39068  1.0000
  C   C71       1.0  0.3876100000000002  0.6692799999999998  0.37021  1.0000
  C   C72       1.0  0.35932  0.63977  0.30627  1.0000
  F   F7        1.0  0.39959  0.56914  0.28392  1.0000
  C   C73       1.0  0.29196000000000005  0.68594  0.26343  1.0000
  F   F8        1.0  0.2639  0.65452  0.20317  1.0000
  C   C74       1.0  0.12227999999999999  0.83849  0.2733  1.0000
  C   C75       1.0  0.04744  0.87712  0.23979  1.0000
  C   C76       1.0  0.9843000000000001  0.88193  0.26761  1.0000
  C   C77       1.0  0.9483700000000002  0.8153  0.23251000000000002  1.0000
  C   C78       1.0  0.92476  0.9655099999999999  0.25734000000000007  1.0000
  C   C79       1.0  0.012400000000000216  0.8674  0.34133  1.0000
  C   C80       1.0  0.03072999999999997  0.89592  0.17505000000000004  1.0000
  H   H43       1.0  0.19996999999999998  0.79687  0.15078  1.0000
  H   H44       1.0  0.25382  0.85022  0.36529000000000006  1.0000
  H   H45       1.0  0.3688900000000001  0.77028  0.43875  1.0000
  H   H46       1.0  0.13767  0.82337  0.32295  1.0000
  H   H47       1.0  0.9898000000000002  0.75456  0.24447000000000002  1.0000
  H   H48       1.0  0.89859  0.8196699999999998  0.24681000000000006  1.0000
  H   H49       1.0  0.9308900000000001  0.81917  0.17936000000000002  1.0000
  H   H50       1.0  0.8797400000000001  0.96934  0.27781  1.0000
  H   H51       1.0  0.89741  0.97812  0.20545  1.0000
  H   H52       1.0  0.95093  0.013540000000000108  0.28167  1.0000
  H   H53       1.0  0.04838999999999991  0.80418  0.3517600000000001  1.0000
  H   H54       1.0  0.96446  0.87679  0.35977000000000003  1.0000
  H   H55       1.0  0.044409999999999984  0.90944  0.36928  1.0000
  H   H56       1.0  0.9728100000000001  0.9226599999999998  0.14721  1.0000
  C   C81       1.0  0.25597  0.006990000000000001  0.18322000000000002  1.0000
  C   C82       1.0  0.29006  0.06411  0.22208000000000003  1.0000
  C   C83       1.0  0.35075000000000006  0.07763  0.21071  1.0000
  C   C84       1.0  0.3654700000000002  0.15713  0.23086000000000004  1.0000
  C   C85       1.0  0.43496  0.16377  0.27345  1.0000
  C   C86       1.0  0.44481  0.24026  0.2955  1.0000
  C   C87       1.0  0.38569  0.31122999999999995  0.27385  1.0000
  C   C88       1.0  0.3189699999999999  0.3036900000000001  0.22659000000000007  1.0000
  F   F9        1.0  0.26114  0.37063999999999997  0.20373000000000005  1.0000
  C   C89       1.0  0.30882  0.22789  0.20576  1.0000
  F   F10       1.0  0.24249999999999997  0.22383  0.16174  1.0000
  C   C90       1.0  0.3830500000000001  0.02651  0.16589  1.0000
  C   C91       1.0  0.35474  0.9632699999999998  0.13092  1.0000
  C   C92       1.0  0.37619000000000014  0.9246399999999999  0.06912  1.0000
  C   C93       1.0  0.34133000000000013  0.85624  0.03610000000000002  1.0000
  C   C94       1.0  0.46235  0.88898  0.08547000000000002  1.0000
  C   C95       1.0  0.34729000000000004  0.9902399999999999  0.01894  1.0000
  C   C96       1.0  0.29660000000000003  0.9488  0.14673  1.0000
  H   H57       1.0  0.25916  0.11002  0.24986  1.0000
  H   H58       1.0  0.48024  0.10997000000000001  0.2918  1.0000
  H   H59       1.0  0.49651  0.24373  0.33262  1.0000
  H   H60       1.0  0.42527  0.04167  0.15381  1.0000
  H   H61       1.0  0.27901999999999993  0.88003  0.017179999999999973  1.0000
  H   H62       1.0  0.36088000000000003  0.82785  0.99385  1.0000
  H   H63       1.0  0.35763  0.8085100000000001  0.07055999999999997  1.0000
  H   H64       1.0  0.47783000000000014  0.86018  0.04144999999999999  1.0000
  H   H65       1.0  0.48493  0.8428  0.12233000000000002  1.0000
  H   H66       1.0  0.49084  0.9362  0.10403000000000003  1.0000
  H   H67       1.0  0.28545  0.01842  0.00725  1.0000
  H   H68       1.0  0.35955000000000004  0.9640199999999999  0.97308  1.0000
  H   H69       1.0  0.3742400000000001  0.03887  0.03722  1.0000
  H   H70       1.0  0.27030000000000004  0.90443  0.11875  1.0000
  C   C97       1.0  0.59267  0.69061  0.69129  1.0000
  C   C98       1.0  0.6546300000000002  0.71773  0.6988  1.0000
  C   C99       1.0  0.6525800000000003  0.79764  0.71768  1.0000
  C   C100      1.0  0.7145400000000001  0.82876  0.72044  1.0000
  C   C101      1.0  0.6970800000000003  0.90485  0.69651  1.0000
  C   C102      1.0  0.7498400000000001  0.94711  0.7169700000000001  1.0000
  C   C103      1.0  0.8195200000000001  0.91466  0.76302  1.0000
  C   C104      1.0  0.8425500000000001  0.83219  0.77523  1.0000
  F   F11       1.0  0.9103400000000005  0.7990599999999998  0.81911  1.0000
  C   C105      1.0  0.78947  0.78985  0.7555  1.0000
  F   F12       1.0  0.8083400000000001  0.71645  0.7794400000000001  1.0000
  C   C106      1.0  0.59103  0.84943  0.7353  1.0000
  C   C107      1.0  0.52823  0.82522  0.72941  1.0000
  C   C108      1.0  0.46179000000000003  0.88766  0.74806  1.0000
  C   C109      1.0  0.3941400000000001  0.8562  0.73418  1.0000
  C   C110      1.0  0.43415  0.96414  0.7089400000000001  1.0000
  C   C111      1.0  0.48767000000000027  0.91054  0.82126  1.0000
  C   C112      1.0  0.5295000000000001  0.74491  0.70609  1.0000
  H   H71       1.0  0.70346  0.67801  0.68657  1.0000
  H   H72       1.0  0.64002  0.93544  0.66837  1.0000
  H   H73       1.0  0.73102  0.010480000000000043  0.70694  1.0000
  H   H74       1.0  0.5922600000000001  0.90988  0.75332  1.0000
  H   H75       1.0  0.40997000000000006  0.80257  0.7626200000000001  1.0000
  H   H76       1.0  0.34751000000000004  0.90273  0.74821  1.0000
  H   H77       1.0  0.37266  0.84118  0.68157  1.0000
  H   H78       1.0  0.3822300000000001  0.0072700000000001045  0.71715  1.0000
  H   H79       1.0  0.42167  0.94765  0.6562  1.0000
  H   H80       1.0  0.47654  0.99706  0.72302  1.0000
  H   H81       1.0  0.50822  0.85606  0.8499600000000002  1.0000
  H   H82       1.0  0.44046999999999986  0.95475  0.83616  1.0000
  H   H83       1.0  0.53365  0.93838  0.83397  1.0000
  H   H84       1.0  0.48204  0.72405  0.69864  1.0000
  C   C113      1.0  0.13594000000000012  0.81298  0.8297100000000001  1.0000
  C   C114      1.0  0.1727  0.82245  0.78777  1.0000
  C   C115      1.0  0.18926  0.76147  0.74099  1.0000
  C   C116      1.0  0.2300000000000001  0.76666  0.69697  1.0000
  C   C117      1.0  0.30442000000000013  0.71782  0.7078  1.0000
  C   C118      1.0  0.33813000000000004  0.70048  0.6587800000000001  1.0000
  C   C119      1.0  0.29871000000000003  0.73419  0.59787  1.0000
  C   C120      1.0  0.22562000000000004  0.78864  0.5884700000000002  1.0000
  F   F13       1.0  0.18465000000000006  0.82036  0.52962  1.0000
  C   C121      1.0  0.19141000000000005  0.80428  0.63754  1.0000
  F   F14       1.0  0.11827000000000006  0.8495  0.6245800000000001  1.0000
  C   C122      1.0  0.16958  0.69105  0.73671  1.0000
  C   C123      1.0  0.13401000000000002  0.67935  0.7787000000000001  1.0000
  C   C124      1.0  0.11323999999999998  0.60158  0.77555  1.0000
  C   C125      1.0  0.027770000000000003  0.62274  0.76275  1.0000
  C   C126      1.0  0.15583000000000002  0.5594300000000001  0.8405200000000002  1.0000
  C   C127      1.0  0.13364  0.54073  0.72118  1.0000
  C   C128      1.0  0.11731000000000005  0.74177  0.8249000000000001  1.0000
  H   H85       1.0  0.18775000000000003  0.87707  0.7908300000000001  1.0000
  H   H86       1.0  0.33443  0.68892  0.7530700000000002  1.0000
  H   H87       1.0  0.39244  0.65499  0.66682  1.0000
  H   H88       1.0  0.18280000000000007  0.64592  0.69986  1.0000
  H   H89       1.0  0.9962500000000002  0.6589299999999998  0.71891  1.0000
  H   H90       1.0  0.010470000000000054  0.56712  0.75511  1.0000
  H   H91       1.0  0.011060000000000016  0.6581  0.80448  1.0000
  H   H92       1.0  0.14191999999999996  0.50276  0.83889  1.0000
  H   H93       1.0  0.14051  0.59851  0.88156  1.0000
  H   H94       1.0  0.21764000000000006  0.54394  0.85076  1.0000
  H   H95       1.0  0.10438000000000003  0.5673  0.6729200000000001  1.0000
  H   H96       1.0  0.11687000000000004  0.48625999999999997  0.7196200000000001  1.0000
  H   H97       1.0  0.19513  0.52156  0.72987  1.0000
  H   H98       1.0  0.09018000000000008  0.7348499999999999  0.85793  1.0000
  C   C129      1.0  0.30343000000000003  0.42803999999999987  0.67502  1.0000
  C   C130      1.0  0.2758900000000001  0.3703199999999999  0.68577  1.0000
  C   C131      1.0  0.2841699999999999  0.35619  0.74936  1.0000
  C   C132      1.0  0.23681000000000008  0.31341  0.76188  1.0000
  C   C133      1.0  0.26212  0.27553  0.82092  1.0000
  C   C134      1.0  0.2178900000000001  0.23987  0.8361100000000002  1.0000
  C   C135      1.0  0.14947  0.23596999999999996  0.79136  1.0000
  C   C136      1.0  0.12284000000000006  0.27174  0.7319900000000001  1.0000
  F   F15       1.0  0.05694  0.26629  0.68781  1.0000
  C   C137      1.0  0.16516000000000006  0.31197  0.7175500000000001  1.0000
  F   F16       1.0  0.13497  0.34867  0.66034  1.0000
  C   C138      1.0  0.33323  0.38971  0.80144  1.0000
  C   C139      1.0  0.37128000000000017  0.43877  0.79055  1.0000
  C   C140      1.0  0.42807000000000006  0.4727  0.84583  1.0000
  C   C141      1.0  0.5057600000000001  0.43953  0.83503  1.0000
  C   C142      1.0  0.4375200000000004  0.44957  0.9140400000000001  1.0000
  C   C143      1.0  0.40244  0.56571  0.84541  1.0000
  C   C144      1.0  0.35388  0.45883  0.7262600000000001  1.0000
  H   H99       1.0  0.24189000000000005  0.34342  0.6443  1.0000
  H   H100      1.0  0.31764999999999993  0.26964  0.85514  1.0000
  H   H101      1.0  0.24005000000000015  0.20895  0.8811300000000002  1.0000
  H   H102      1.0  0.3394400000000001  0.3801  0.85051  1.0000
  H   H103      1.0  0.50311  0.45817  0.7881000000000001  1.0000
  H   H104      1.0  0.54786  0.46293  0.87414  1.0000
  H   H105      1.0  0.52582  0.37272  0.83408  1.0000
  H   H106      1.0  0.48050000000000004  0.47357  0.95162  1.0000
  H   H107      1.0  0.45662  0.38297  0.9172800000000001  1.0000
  H   H108      1.0  0.3840000000000002  0.47559000000000007  0.9260200000000001  1.0000
  H   H109      1.0  0.41349  0.58502  0.80511  1.0000
  H   H110      1.0  0.43438  0.59214  0.89098  1.0000
  H   H111      1.0  0.34136  0.59117  0.83984  1.0000
  H   H112      1.0  0.37723  0.50091  0.71554  1.0000
