data_image0
_chemical_formula_structural       Mn5CN8C2N8CN16Cl2C4Mn5CN8C2N8CN16Cl2C5OC2IC6ClCClC2ClCClC2IH8COC2IC6ClCClC2ClCClC2IH8COC2IC6ClCClC2ClCClC2IH8COC2IC6ClCClC2ClCClC2IH8COC2IC6ClCClC2ClCClC2IH8COC2IC6ClCClC2ClCClC2IH8COC2IC6ClCClC2ClCClC2IH8COC2IC6ClCClC2ClCClC2IH8
_chemical_formula_sum              "Mn10 C136 N64 Cl36 O8 I16 H64"
_cell_length_a       21.7168
_cell_length_b       24.7144
_cell_length_c       29.333
_cell_angle_alpha    95.6712
_cell_angle_beta     107.6786
_cell_angle_gamma    69.71250000000002

_space_group_name_H-M_alt    "P 1"
_space_group_IT_number       1

loop_
  _space_group_symop_operation_xyz
  'x, y, z'

loop_
  _atom_site_type_symbol
  _atom_site_label
  _atom_site_symmetry_multiplicity
  _atom_site_fract_x
  _atom_site_fract_y
  _atom_site_fract_z
  _atom_site_occupancy
  Mn  Mn1       1.0  0.9192799999999999  0.8482  0.09155  1.0000
  Mn  Mn2       1.0  0.8605100000000001  0.97442  0.02718  1.0000
  Mn  Mn3       1.0  0.0771199999999999  0.16926000000000002  0.9157999999999997  1.0000
  Mn  Mn4       1.0  0.13600999999999994  0.04439  0.9823399999999998  1.0000
  Mn  Mn5       1.0  0.99805  0.01011  0.005309999999999998  1.0000
  C   C1        1.0  0.8442099999999999  0.93815  0.1537  1.0000
  N   N1        1.0  0.8697299999999999  0.9250100000000001  0.1163  1.0000
  N   N2        1.0  0.8484899999999999  0.9737099999999999  0.09258  1.0000
  N   N3        1.0  0.8115599999999998  0.016119999999999912  0.1144  1.0000
  N   N4        1.0  0.80789  0.99504  0.15306  1.0000
  N   N5        1.0  0.83467  0.09566999999999999  0.0586  1.0000
  N   N6        1.0  0.8739099999999999  0.05155  0.03983  1.0000
  N   N7        1.0  0.9244599999999998  0.06453  0.03302  1.0000
  N   N8        1.0  0.9201099999999999  0.11795  0.04723  1.0000
  C   C2        1.0  0.8639899999999999  0.13652  0.06302  1.0000
  C   C3        1.0  0.8785299999999998  0.9459700000000001  0.89272  1.0000
  N   N9        1.0  0.87585  0.97205  0.9628299999999999  1.0000
  N   N10       1.0  0.8448300000000001  0.94787  0.92487  1.0000
  N   N11       1.0  0.011999999999999969  0.94623  0.05075  1.0000
  N   N12       1.0  0.9606699999999999  0.9325699999999999  0.05525  1.0000
  N   N13       1.0  0.9837399999999998  0.88555  0.08145  1.0000
  N   N14       1.0  0.05148999999999998  0.8675  0.09679  1.0000
  N   N15       1.0  0.9269  0.98319  0.95489  1.0000
  N   N16       1.0  0.93067  0.9669  0.9111599999999997  1.0000
  C   C4        1.0  0.06889  0.90574  0.07743  1.0000
  N   N17       1.0  0.12654999999999983  0.09211999999999998  0.8918299999999998  1.0000
  N   N18       1.0  0.1480699999999999  0.044090000000000004  0.91657  1.0000
  N   N19       1.0  0.17987999999999998  0.00014000000000000012  0.89322  1.0000
  N   N20       1.0  0.17962  0.019280000000000002  0.8524  1.0000
  N   N21       1.0  0.15908999999999998  0.92411  0.94976  1.0000
  N   N22       1.0  0.12277999999999996  0.96736  0.9710599999999998  1.0000
  N   N23       1.0  0.07163999999999994  0.9550599999999999  0.9776699999999998  1.0000
  N   N24       1.0  0.07314999999999994  0.90308  0.9609399999999998  1.0000
  N   N25       1.0  0.06711999999999996  0.05244  0.09952  1.0000
  N   N26       1.0  0.06906999999999998  0.03752000000000001  0.05523  1.0000
  N   N27       1.0  0.12061999999999998  0.047700000000000006  0.04698  1.0000
  N   N28       1.0  0.15452999999999997  0.06883  0.08551  1.0000
  N   N29       1.0  0.9841899999999998  0.07372  0.95988  1.0000
  N   N30       1.0  0.03582999999999992  0.08575000000000002  0.9539199999999998  1.0000
  N   N31       1.0  0.013190000000000052  0.13202  0.92684  1.0000
  N   N32       1.0  0.94557  0.15103  0.9124  1.0000
  Cl  Cl1       1.0  0.85037  0.8851  0.01769  1.0000
  Cl  Cl2       1.0  0.14594999999999989  0.13358  0.9900899999999999  1.0000
  C   C5        1.0  0.14620999999999998  0.07671  0.85196  1.0000
  C   C6        1.0  0.12839  0.8841  0.94411  1.0000
  C   C7        1.0  0.12086999999999998  0.07147  0.1179  1.0000
  C   C8        1.0  0.9276699999999998  0.11465999999999998  0.93338  1.0000
  Mn  Mn6       1.0  0.41153999999999996  0.31314  0.55789  1.0000
  Mn  Mn7       1.0  0.3585399999999999  0.4485  0.50847  1.0000
  Mn  Mn8       1.0  0.6074199999999998  0.65751  0.45126  1.0000
  Mn  Mn9       1.0  0.6512799999999997  0.5237  0.50026  1.0000
  Mn  Mn10      1.0  0.50268  0.48985000000000006  0.50467  1.0000
  C   C9        1.0  0.35254999999999986  0.39357  0.63254  1.0000
  N   N33       1.0  0.36305  0.38502  0.58926  1.0000
  N   N34       1.0  0.34165999999999996  0.43683  0.5703599999999999  1.0000
  N   N35       1.0  0.31821999999999967  0.47638  0.6004199999999997  1.0000
  N   N36       1.0  0.3244999999999999  0.45048  0.6399599999999999  1.0000
  N   N37       1.0  0.33397  0.56273  0.55406  1.0000
  N   N38       1.0  0.37245  0.52434  0.53085  1.0000
  N   N39       1.0  0.42315999999999965  0.54096  0.52875  1.0000
  N   N40       1.0  0.41949000000000003  0.59043  0.55147  1.0000
  C   C10       1.0  0.3629  0.60413  0.56667  1.0000
  C   C11       1.0  0.38107  0.4476800000000001  0.37716  1.0000
  N   N41       1.0  0.37949  0.4568  0.44883  1.0000
  N   N42       1.0  0.3452299999999998  0.4442900000000001  0.4062999999999999  1.0000
  N   N43       1.0  0.5090600000000001  0.42309  0.54447  1.0000
  N   N44       1.0  0.45753  0.40354  0.5362199999999999  1.0000
  N   N45       1.0  0.47787999999999975  0.35316  0.55707  1.0000
  N   N46       1.0  0.54266  0.33947  0.58256  1.0000
  N   N47       1.0  0.43454  0.46684  0.44689  1.0000
  N   N48       1.0  0.4379599999999999  0.46052  0.40216999999999997  1.0000
  C   C12       1.0  0.56228  0.38363  0.5753  1.0000
  N   N49       1.0  0.6511999999999998  0.58375  0.41952  1.0000
  N   N50       1.0  0.6684099999999998  0.53236  0.4380799999999999  1.0000
  N   N51       1.0  0.69751  0.49187  0.4108799999999999  1.0000
  N   N52       1.0  0.6999099999999998  0.51685  0.37367999999999996  1.0000
  N   N53       1.0  0.6752599999999997  0.4066  0.46116  1.0000
  N   N54       1.0  0.6335899999999999  0.44979  0.47883  1.0000
  N   N55       1.0  0.58096  0.43632  0.4808899999999999  1.0000
  N   N56       1.0  0.5864299999999999  0.38353000000000004  0.46418  1.0000
  N   N57       1.0  0.5599699999999997  0.53233  0.6035  1.0000
  N   N58       1.0  0.5708999999999999  0.51384  0.56178  1.0000
  N   N59       1.0  0.62865  0.51981  0.56047  1.0000
  N   N60       1.0  0.6571399999999997  0.54167  0.60085  1.0000
  N   N61       1.0  0.49806999999999996  0.55707  0.4655999999999999  1.0000
  N   N62       1.0  0.55319  0.5717  0.47188999999999987  1.0000
  N   N63       1.0  0.5365099999999998  0.62309  0.45382  1.0000
  N   N64       1.0  0.47019000000000005  0.6433  0.43271  1.0000
  Cl  Cl3       1.0  0.34714999999999996  0.36073000000000005  0.487  1.0000
  Cl  Cl4       1.0  0.6706299999999997  0.60854  0.52121  1.0000
  C   C13       1.0  0.67091  0.57411  0.37952  1.0000
  C   C14       1.0  0.6460199999999999  0.36521  0.45233  1.0000
  C   C15       1.0  0.6146599999999999  0.54833  0.62752  1.0000
  C   C16       1.0  0.44578  0.6021  0.43962  1.0000
  C   C17       1.0  0.85443  0.11993999999999999  0.9256999999999997  1.0000
  O   O1        1.0  0.8151999999999998  0.17805000000000004  0.9344899999999998  1.0000
  C   C18       1.0  0.7871599999999999  0.21457  0.89425  1.0000
  C   C19       1.0  0.7357299999999998  0.2057  0.8546199999999998  1.0000
  I   I1        1.0  0.6829299999999998  0.14872  0.85734  1.0000
  C   C20       1.0  0.7157999999999998  0.23698  0.8125499999999998  1.0000
  C   C21       1.0  0.7439599999999998  0.27928  0.80962  1.0000
  C   C22       1.0  0.7200899999999998  0.30938  0.7619299999999998  1.0000
  C   C23       1.0  0.74383  0.36046000000000006  0.7586  1.0000
  C   C24       1.0  0.7044199999999999  0.38774  0.70935  1.0000
  C   C25       1.0  0.63519  0.42307  0.70127  1.0000
  Cl  Cl5       1.0  0.60368  0.4566  0.74969  1.0000
  C   C26       1.0  0.5889699999999998  0.42677  0.6554  1.0000
  Cl  Cl6       1.0  0.49998  0.46022  0.64859  1.0000
  C   C27       1.0  0.61231  0.39916000000000007  0.6162599999999998  1.0000
  C   C28       1.0  0.68293  0.37104  0.6231599999999998  1.0000
  Cl  Cl7       1.0  0.7127299999999999  0.3368  0.5745  1.0000
  C   C29       1.0  0.72899  0.36517  0.66955  1.0000
  Cl  Cl8       1.0  0.8162899999999998  0.3237  0.67789  1.0000
  C   C30       1.0  0.79061  0.29192  0.85067  1.0000
  C   C31       1.0  0.8112999999999998  0.26027  0.89304  1.0000
  I   I2        1.0  0.8785  0.28285  0.95484  1.0000
  H   H1        1.0  0.83465  0.10605  0.8885099999999999  1.0000
  H   H2        1.0  0.8497799999999999  0.09056  0.9493699999999999  1.0000
  H   H3        1.0  0.6774699999999998  0.22857  0.7818499999999998  1.0000
  H   H4        1.0  0.6630799999999999  0.32497  0.75133  1.0000
  H   H5        1.0  0.7362  0.27647  0.73529  1.0000
  H   H6        1.0  0.73396  0.39218  0.7872699999999999  1.0000
  H   H7        1.0  0.80006  0.34504  0.76432  1.0000
  H   H8        1.0  0.81123  0.3258  0.85013  1.0000
  C   C32       1.0  0.83864  0.19406  0.08471  1.0000
  O   O2        1.0  0.8782599999999999  0.19321000000000002  0.13378  1.0000
  C   C33       1.0  0.84208  0.20577  0.16822999999999996  1.0000
  C   C34       1.0  0.86467  0.16703  0.20662  1.0000
  I   I3        1.0  0.9469799999999998  0.08881  0.20957  1.0000
  C   C35       1.0  0.83428  0.18013000000000004  0.2441  1.0000
  C   C36       1.0  0.77921  0.23153  0.24324  1.0000
  C   C37       1.0  0.7519999999999999  0.25228  0.28611  1.0000
  C   C38       1.0  0.74284  0.20646  0.31331  1.0000
  C   C39       1.0  0.7205099999999999  0.23411  0.3571899999999999  1.0000
  C   C40       1.0  0.76743  0.25104  0.39571  1.0000
  Cl  Cl9       1.0  0.85634  0.22423  0.4010799999999999  1.0000
  C   C41       1.0  0.7439599999999998  0.28978  0.43002  1.0000
  Cl  Cl10      1.0  0.80444  0.31069  0.47736  1.0000
  C   C42       1.0  0.6734599999999998  0.31071  0.42716  1.0000
  C   C43       1.0  0.62989  0.28354  0.3953099999999999  1.0000
  Cl  Cl11      1.0  0.5473199999999999  0.29417  0.40032  1.0000
  C   C44       1.0  0.65275  0.24659  0.35948  1.0000
  Cl  Cl12      1.0  0.5955699999999998  0.21675  0.31766999999999995  1.0000
  C   C45       1.0  0.75715  0.27022  0.20495  1.0000
  C   C46       1.0  0.7888899999999998  0.25862  0.1684  1.0000
  I   I4        1.0  0.7603699999999999  0.32695  0.11950999999999998  1.0000
  H   H9        1.0  0.8443999999999999  0.22711  0.0648  1.0000
  H   H10       1.0  0.78311  0.2043  0.08062  1.0000
  H   H11       1.0  0.8552099999999999  0.15074  0.27422  1.0000
  H   H12       1.0  0.7012099999999999  0.28696  0.27445  1.0000
  H   H13       1.0  0.7873899999999999  0.27282  0.3107099999999999  1.0000
  H   H14       1.0  0.7050799999999998  0.18852  0.28845  1.0000
  H   H15       1.0  0.79111  0.16959  0.32514999999999994  1.0000
  H   H16       1.0  0.71763  0.31158  0.20497  1.0000
  C   C47       1.0  0.83855  0.8942100000000001  0.18181  1.0000
  O   O3        1.0  0.7970299999999999  0.86527  0.14894999999999997  1.0000
  C   C48       1.0  0.7659099999999999  0.83762  0.16962999999999995  1.0000
  C   C49       1.0  0.7026599999999997  0.8683499999999998  0.17829  1.0000
  I   I5        1.0  0.65568  0.95826  0.16542  1.0000
  C   C50       1.0  0.6683399999999999  0.8391500000000001  0.19438  1.0000
  C   C51       1.0  0.69634  0.7792300000000001  0.20157  1.0000
  C   C52       1.0  0.65941  0.74782  0.21894  1.0000
  C   C53       1.0  0.6597099999999998  0.76346  0.27108  1.0000
  C   C54       1.0  0.6612299999999999  0.7129299999999998  0.2973599999999999  1.0000
  C   C55       1.0  0.60075  0.7096800000000001  0.3039  1.0000
  Cl  Cl13      1.0  0.5203900000000001  0.76286  0.27932  1.0000
  C   C56       1.0  0.6037500000000001  0.66345  0.32981  1.0000
  Cl  Cl14      1.0  0.52741  0.65924  0.3367  1.0000
  C   C57       1.0  0.6668799999999997  0.61984  0.34894999999999987  1.0000
  C   C58       1.0  0.72673  0.62156  0.34068  1.0000
  Cl  Cl15      1.0  0.8063999999999998  0.56684  0.36396  1.0000
  C   C59       1.0  0.7240799999999997  0.66802  0.31532  1.0000
  Cl  Cl16      1.0  0.8007299999999994  0.67001  0.30705999999999994  1.0000
  C   C60       1.0  0.7590400000000007  0.74871  0.19232  1.0000
  C   C61       1.0  0.7935699999999999  0.77763  0.17624999999999993  1.0000
  I   I6        1.0  0.8868599999999996  0.72944  0.16135999999999995  1.0000
  H   H17       1.0  0.89037  0.86297  0.19824  1.0000
  H   H18       1.0  0.8152899999999998  0.91597  0.21058999999999997  1.0000
  H   H19       1.0  0.6193199999999998  0.8630100000000002  0.20051999999999998  1.0000
  H   H20       1.0  0.68391  0.7005100000000001  0.21555  1.0000
  H   H21       1.0  0.6057199999999999  0.75901  0.19552  1.0000
  H   H22       1.0  0.70453  0.77695  0.2906799999999999  1.0000
  H   H23       1.0  0.61464  0.80229  0.27136  1.0000
  H   H24       1.0  0.7808999999999998  0.7023600000000001  0.19721  1.0000
  C   C62       1.0  0.14027  0.90835  0.09037  1.0000
  O   O4        1.0  0.19339  0.8536  0.10294999999999997  1.0000
  C   C63       1.0  0.2008399999999999  0.8240300000000002  0.14393999999999996  1.0000
  C   C64       1.0  0.21574000000000002  0.84649  0.19089999999999993  1.0000
  I   I7        1.0  0.23352999999999985  0.9264100000000001  0.20858999999999994  1.0000
  C   C65       1.0  0.2300599999999999  0.81155  0.23013999999999998  1.0000
  C   C66       1.0  0.23484999999999995  0.7533300000000002  0.22417999999999993  1.0000
  C   C67       1.0  0.26918  0.71381  0.26729  1.0000
  C   C68       1.0  0.2336899999999997  0.6711  0.27183  1.0000
  C   C69       1.0  0.27792  0.63395  0.3160399999999999  1.0000
  C   C70       1.0  0.34099999999999997  0.59235  0.31447  1.0000
  Cl  Cl17      1.0  0.35568000000000005  0.56633  0.25885  1.0000
  C   C71       1.0  0.39532999999999996  0.57633  0.3566999999999999  1.0000
  Cl  Cl18      1.0  0.47914  0.53946  0.35184  1.0000
  C   C72       1.0  0.3854099999999999  0.59694  0.4016  1.0000
  C   C73       1.0  0.3194399999999999  0.63194  0.40345999999999993  1.0000
  Cl  Cl19      1.0  0.30664999999999987  0.6611  0.4585399999999999  1.0000
  C   C74       1.0  0.2656799999999999  0.6502  0.36092  1.0000
  Cl  Cl20      1.0  0.18539  0.6988900000000001  0.36443  1.0000
  C   C75       1.0  0.22199  0.73083  0.17783  1.0000
  C   C76       1.0  0.20410999999999999  0.76603  0.13813  1.0000
  I   I8        1.0  0.18731  0.72911  0.06906  1.0000
  H   H25       1.0  0.14718  0.92437  0.059169999999999986  1.0000
  H   H26       1.0  0.14524  0.94075  0.11838999999999997  1.0000
  H   H27       1.0  0.24415999999999982  0.8284300000000001  0.26591  1.0000
  H   H28       1.0  0.2746799999999999  0.73966  0.3006999999999999  1.0000
  H   H29       1.0  0.32184999999999997  0.6894  0.26524  1.0000
  H   H30       1.0  0.18103  0.69541  0.27386  1.0000
  H   H31       1.0  0.22784999999999994  0.64338  0.23976  1.0000
  H   H32       1.0  0.22939999999999988  0.68529  0.17255999999999994  1.0000
  C   C77       1.0  0.13807000000000003  0.09705  0.16655  1.0000
  O   O5        1.0  0.20867  0.0923  0.18026  1.0000
  C   C78       1.0  0.22781  0.14178  0.19364  1.0000
  C   C79       1.0  0.28306  0.13659  0.23494  1.0000
  I   I9        1.0  0.32123  0.06436  0.2812  1.0000
  C   C80       1.0  0.31575000000000003  0.17779  0.24588999999999997  1.0000
  C   C81       1.0  0.2950299999999999  0.22524  0.21574999999999994  1.0000
  C   C82       1.0  0.33722  0.26529  0.22837999999999994  1.0000
  C   C83       1.0  0.30158999999999997  0.3268  0.20639  1.0000
  C   C84       1.0  0.31989  0.37162  0.24242  1.0000
  C   C85       1.0  0.38855  0.37076  0.2599  1.0000
  Cl  Cl21      1.0  0.44992  0.32922  0.23080999999999996  1.0000
  C   C86       1.0  0.4089699999999999  0.40170000000000006  0.30142  1.0000
  Cl  Cl22      1.0  0.49531999999999987  0.39874000000000004  0.3230399999999999  1.0000
  C   C87       1.0  0.36057  0.43370999999999993  0.32544  1.0000
  C   C88       1.0  0.29026  0.44393  0.30213  1.0000
  Cl  Cl23      1.0  0.22677999999999998  0.49712  0.32379999999999987  1.0000
  C   C89       1.0  0.2698399999999999  0.41216  0.26149  1.0000
  Cl  Cl24      1.0  0.18121999999999994  0.42246000000000006  0.23667  1.0000
  C   C90       1.0  0.23932999999999996  0.23119  0.17435  1.0000
  C   C91       1.0  0.20450999999999994  0.19099  0.16359999999999997  1.0000
  I   I10       1.0  0.12075999999999995  0.20997  0.10014999999999998  1.0000
  H   H33       1.0  0.10315999999999997  0.14204  0.16732  1.0000
  H   H34       1.0  0.13068999999999997  0.07153  0.19232999999999995  1.0000
  H   H35       1.0  0.35938999999999993  0.17153999999999994  0.2775  1.0000
  H   H36       1.0  0.3851299999999999  0.24383000000000002  0.218  1.0000
  H   H37       1.0  0.3533699999999999  0.26871  0.26810999999999996  1.0000
  H   H38       1.0  0.3163399999999999  0.32902  0.17369  1.0000
  H   H39       1.0  0.24561  0.33648  0.19453999999999996  1.0000
  H   H40       1.0  0.22351999999999994  0.26595  0.14915  1.0000
  C   C92       1.0  0.62436  0.57573  0.67553  1.0000
  O   O6        1.0  0.5978299999999999  0.63721  0.6698499999999998  1.0000
  C   C93       1.0  0.64215  0.66867  0.69168  1.0000
  C   C94       1.0  0.6433899999999999  0.71223  0.66466  1.0000
  I   I11       1.0  0.5889699999999999  0.7250000000000001  0.5912099999999998  1.0000
  C   C95       1.0  0.67909  0.74998  0.68619  1.0000
  C   C96       1.0  0.7149999999999997  0.74468  0.73495  1.0000
  C   C97       1.0  0.74488  0.79011  0.7600599999999998  1.0000
  C   C98       1.0  0.80507  0.79222  0.74401  1.0000
  C   C99       1.0  0.83757  0.83247  0.77714  1.0000
  C   C100      1.0  0.8076699999999998  0.89292  0.7697899999999998  1.0000
  Cl  Cl25      1.0  0.7443999999999998  0.9219  0.71586  1.0000
  C   C101      1.0  0.82549  0.9307900000000001  0.80642  1.0000
  Cl  Cl26      1.0  0.7855299999999997  0.006200000000000002  0.7981799999999998  1.0000
  C   C102      1.0  0.8728099999999999  0.90863  0.85048  1.0000
  C   C103      1.0  0.9071899999999999  0.84883  0.85647  1.0000
  Cl  Cl27      1.0  0.96835  0.8211100000000001  0.91157  1.0000
  C   C104      1.0  0.8902399999999999  0.81078  0.81986  1.0000
  Cl  Cl28      1.0  0.9328  0.73572  0.82946  1.0000
  C   C105      1.0  0.71578  0.70038  0.7617099999999998  1.0000
  C   C106      1.0  0.6784  0.66356  0.74111  1.0000
  I   I12       1.0  0.6714899999999999  0.60922  0.7898999999999999  1.0000
  H   H41       1.0  0.5959499999999998  0.56246  0.69553  1.0000
  H   H42       1.0  0.68003  0.55959  0.69494  1.0000
  H   H43       1.0  0.67658  0.78482  0.6652099999999997  1.0000
  H   H44       1.0  0.7626699999999998  0.78233  0.7994099999999997  1.0000
  H   H45       1.0  0.7035999999999997  0.83287  0.75372  1.0000
  H   H46       1.0  0.8425899999999996  0.74815  0.7445199999999997  1.0000
  H   H47       1.0  0.7867699999999999  0.8071700000000002  0.70628  1.0000
  H   H48       1.0  0.7423299999999998  0.6964900000000002  0.7996499999999999  1.0000
  C   C107      1.0  0.14119999999999985  0.83446  0.9107599999999999  1.0000
  O   O7        1.0  0.11680000000000008  0.8580199999999999  0.86355  1.0000
  C   C108      1.0  0.15704  0.84049  0.8316799999999998  1.0000
  C   C109      1.0  0.12185999999999989  0.8327600000000001  0.784  1.0000
  I   I13       1.0  0.018539999999999963  0.83598  0.7650199999999999  1.0000
  C   C110      1.0  0.15364999999999998  0.82339  0.74782  1.0000
  C   C111      1.0  0.22154999999999994  0.8214900000000002  0.75833  1.0000
  C   C112      1.0  0.25648  0.80948  0.71943  1.0000
  C   C113      1.0  0.31447999999999987  0.75078  0.72795  1.0000
  C   C114      1.0  0.32098  0.72044  0.68129  1.0000
  C   C115      1.0  0.37247999999999987  0.7206400000000001  0.66151  1.0000
  Cl  Cl29      1.0  0.4244  0.76394  0.68664  1.0000
  C   C116      1.0  0.3828  0.68662  0.62129  1.0000
  Cl  Cl30      1.0  0.4455399999999999  0.6907  0.59651  1.0000
  C   C117      1.0  0.34204  0.65154  0.6005899999999998  1.0000
  C   C118      1.0  0.28387  0.65874  0.61623  1.0000
  Cl  Cl31      1.0  0.21908999999999995  0.62959  0.58432  1.0000
  C   C119      1.0  0.27471999999999996  0.69155  0.65706  1.0000
  Cl  Cl32      1.0  0.20506  0.69533  0.67826  1.0000
  C   C120      1.0  0.25732999999999995  0.8292800000000001  0.80556  1.0000
  C   C121      1.0  0.22620999999999997  0.8389900000000001  0.84243  1.0000
  I   I14       1.0  0.28952999999999973  0.8545  0.9099099999999998  1.0000
  H   H49       1.0  0.19548999999999989  0.8061000000000001  0.9207  1.0000
  H   H50       1.0  0.11060999999999988  0.80746  0.9127799999999998  1.0000
  H   H51       1.0  0.12511999999999993  0.81767  0.7114299999999999  1.0000
  H   H52       1.0  0.27752000000000004  0.8443099999999999  0.71847  1.0000
  H   H53       1.0  0.21833999999999995  0.81043  0.68397  1.0000
  H   H54       1.0  0.36299  0.75723  0.7497199999999998  1.0000
  H   H55       1.0  0.30580999999999997  0.7218600000000001  0.75035  1.0000
  H   H56       1.0  0.3097399999999997  0.8284300000000001  0.8135799999999997  1.0000
  C   C122      1.0  0.37682999999999994  0.34789  0.6696799999999998  1.0000
  O   O8        1.0  0.38016999999999995  0.29333  0.6470599999999997  1.0000
  C   C123      1.0  0.34163  0.26534  0.65967  1.0000
  C   C124      1.0  0.2793799999999999  0.26432  0.6271599999999999  1.0000
  I   I15       1.0  0.24210000000000004  0.30515  0.55945  1.0000
  C   C125      1.0  0.24107999999999988  0.23562  0.6391299999999998  1.0000
  C   C126      1.0  0.26489999999999997  0.20704  0.68325  1.0000
  C   C127      1.0  0.22457  0.1749  0.69556  1.0000
  C   C128      1.0  0.16357999999999992  0.21601  0.7117999999999998  1.0000
  C   C129      1.0  0.15046999999999996  0.18586  0.74868  1.0000
  C   C130      1.0  0.11451000000000001  0.14623  0.73392  1.0000
  Cl  Cl33      1.0  0.07523000000000005  0.13784  0.6725  1.0000
  C   C131      1.0  0.11125999999999997  0.11172999999999998  0.76789  1.0000
  Cl  Cl34      1.0  0.06732999999999997  0.061439999999999995  0.74887  1.0000
  C   C132      1.0  0.14296999999999985  0.11708000000000002  0.8168499999999997  1.0000
  C   C133      1.0  0.17690999999999987  0.15785  0.8318799999999997  1.0000
  Cl  Cl35      1.0  0.2189699999999999  0.16368  0.8931799999999998  1.0000
  C   C134      1.0  0.18132  0.19169  0.79802  1.0000
  Cl  Cl36      1.0  0.22985999999999981  0.23858  0.8180499999999998  1.0000
  C   C135      1.0  0.32752999999999977  0.20744  0.7154399999999997  1.0000
  C   C136      1.0  0.3659799999999997  0.23619  0.7038199999999998  1.0000
  I   I16       1.0  0.46199  0.23190999999999998  0.75286  1.0000
  H   H57       1.0  0.42904  0.34573  0.6920799999999998  1.0000
  H   H58       1.0  0.3423299999999999  0.36033  0.6932  1.0000
  H   H59       1.0  0.1931999999999999  0.23493000000000003  0.61386  1.0000
  H   H60       1.0  0.25934  0.14276  0.72426  1.0000
  H   H61       1.0  0.20588999999999993  0.14978  0.6640999999999999  1.0000
  H   H62       1.0  0.17344  0.25635  0.72647  1.0000
  H   H63       1.0  0.11737  0.23054  0.6805  1.0000
  H   H64       1.0  0.34678  0.18505  0.74948  1.0000
