data_image0
_chemical_formula_structural       Mn5CN8C2N8CN16Cl2C4Mn5CN8C2N8CN16Cl2C7BrC4FCFC2FCFCH3C3BrC4FCFC2FCFCH3C3BrC4FCFC2FCFCH3C3BrC4FCFC2FCFCH3C3BrC4FCFC2FCFCH3C3BrC4FCFC2FCFCH3C3BrC4FCFC2FCFCH3C3BrC4FCFC2FCFCH3
_chemical_formula_sum              "Mn10 C112 N64 Cl4 Br8 F32 H24"
_cell_length_a       19.9226
_cell_length_b       17.340300000000003
_cell_length_c       21.3488
_cell_angle_alpha    94.831
_cell_angle_beta     106.73720000000002
_cell_angle_gamma    68.75640000000001

_symmetry_space_group_name_H-M    'P 1'
_symmetry_Int_Tables_number       1

loop_
  _symmetry_equiv_pos_as_xyz
  'x,y,z'

loop_
  _atom_site_type_symbol
  _atom_site_label
  _atom_site_symmetry_multiplicity
  _atom_site_fract_x
  _atom_site_fract_y
  _atom_site_fract_z
  _atom_site_occupancy
  Mn  Mn1       1.0  0.78835  0.86051  0.01557  1.0000
  Mn  Mn2       1.0  0.7998399999999999  0.043840000000000115  0.9754099999999999  1.0000
  Mn  Mn3       1.0  0.1864699999999999  0.14655  0.9029999999999999  1.0000
  Mn  Mn4       1.0  0.18757000000000001  0.98767  0.99006  1.0000
  Mn  Mn5       1.0  0.9970199999999999  0.013070000000000007  0.99584  1.0000
  C   C1        1.0  0.73362  0.98537  0.1209  1.0000
  N   N1        1.0  0.7592  0.96555  0.06754  1.0000
  N   N2        1.0  0.75499  0.03676999999999997  0.04631  1.0000
  N   N3        1.0  0.7230399999999999  0.0984799999999999  0.08086  1.0000
  N   N4        1.0  0.7104899999999998  0.0678700000000001  0.12898  1.0000
  N   N5        1.0  0.8261199999999999  0.1546  0.07706  1.0000
  N   N6        1.0  0.8483899999999999  0.1212  0.025049999999999996  1.0000
  N   N7        1.0  0.92018  0.11019  0.03429  1.0000
  N   N8        1.0  0.9432199999999998  0.13617  0.09384  1.0000
  C   C2        1.0  0.88652  0.16027  0.12163  1.0000
  C   C3        1.0  0.8517699999999999  0.97252  0.82191  1.0000
  N   N9        1.0  0.8413099999999999  0.04950999999999995  0.90351  1.0000
  N   N10       1.0  0.8024699999999999  0.03204000000000006  0.84681  1.0000
  N   N11       1.0  0.9639999999999999  0.9392400000000002  0.04157999999999999  1.0000
  N   N12       1.0  0.8932100000000002  0.944  0.01763  1.0000
  N   N13       1.0  0.8878  0.87265  0.0262  1.0000
  N   N14       1.0  0.9538999999999999  0.8197400000000002  0.056659999999999995  1.0000
  N   N15       1.0  0.9133899999999998  0.009810000000000095  0.9113499999999999  1.0000
  N   N16       1.0  0.92192  0.95891  0.86172  1.0000
  C   C4        1.0  0.0015000000000000317  0.86257  0.07113  1.0000
  N   N17       1.0  0.21827000000000005  0.028609999999999993  0.8741800000000001  1.0000
  N   N18       1.0  0.22170999999999996  0.9668699999999999  0.90811  1.0000
  N   N19       1.0  0.26696000000000003  0.89653  0.89112  1.0000
  N   N20       1.0  0.29317999999999994  0.91199  0.84487  1.0000
  N   N21       1.0  0.17280999999999996  0.83844  0.93383  1.0000
  N   N22       1.0  0.14256000000000002  0.90111  0.96804  1.0000
  N   N23       1.0  0.07199999999999991  0.91112  0.96187  1.0000
  N   N24       1.0  0.05515000000000001  0.85258  0.92274  1.0000
  N   N25       1.0  0.07815  0.06791  0.12622  1.0000
  N   N26       1.0  0.08775999999999999  0.01843  0.07643  1.0000
  N   N27       1.0  0.15509  0.00953  0.07117  1.0000
  N   N28       1.0  0.18792999999999999  0.051650000000000015  0.11608  1.0000
  N   N29       1.0  0.02292999999999992  0.09057999999999998  0.94697  1.0000
  N   N30       1.0  0.0911  0.07481  0.94155  1.0000
  N   N31       1.0  0.09136999999999997  0.13382  0.9066199999999999  1.0000
  N   N32       1.0  0.02368999999999997  0.18979  0.8869099999999999  1.0000
  Cl  Cl1       1.0  0.7486399999999999  0.94756  0.9264  1.0000
  Cl  Cl2       1.0  0.23484  0.09203999999999998  0.007139999999999924  1.0000
  C   C5        1.0  0.262  0.99475  0.83476  1.0000
  C   C6        1.0  0.11879999999999996  0.8084100000000002  0.90541  1.0000
  C   C7        1.0  0.13865  0.09044  0.14957  1.0000
  C   C8        1.0  0.98097  0.16216  0.9114399999999999  1.0000
  Mn  Mn6       1.0  0.40994  0.267  0.60816  1.0000
  Mn  Mn7       1.0  0.3497499999999999  0.43343  0.50259  1.0000
  Mn  Mn8       1.0  0.6203899999999999  0.69261  0.36864  1.0000
  Mn  Mn9       1.0  0.6665  0.53389  0.47661  1.0000
  Mn  Mn10      1.0  0.5033099999999999  0.4947  0.4922099999999999  1.0000
  C   C9        1.0  0.32798999999999995  0.41458000000000006  0.6821699999999999  1.0000
  N   N33       1.0  0.3447299999999999  0.38199  0.62696  1.0000
  N   N34       1.0  0.3178999999999999  0.4451  0.58548  1.0000
  N   N35       1.0  0.28425  0.51377  0.61317  1.0000
  N   N36       1.0  0.2893499999999999  0.49656000000000006  0.6740199999999998  1.0000
  N   N37       1.0  0.29723  0.60709  0.52919  1.0000
  N   N38       1.0  0.34854  0.55125  0.50607  1.0000
  N   N39       1.0  0.4083600000000001  0.57253  0.51707  1.0000
  N   N40       1.0  0.40021  0.63825  0.55554  1.0000
  C   C10       1.0  0.3290799999999999  0.66021  0.56115  1.0000
  C   C11       1.0  0.3902399999999999  0.39372  0.32897  1.0000
  N   N41       1.0  0.38815  0.41589  0.4263799999999999  1.0000
  N   N42       1.0  0.35844  0.38329  0.37331  1.0000
  N   N43       1.0  0.51141  0.41126  0.55919  1.0000
  N   N44       1.0  0.45571999999999996  0.38603  0.55649  1.0000
  N   N45       1.0  0.47951000000000005  0.31939  0.59353  1.0000
  N   N46       1.0  0.55115  0.29993  0.62369  1.0000
  N   N47       1.0  0.4376299999999999  0.445  0.41762999999999995  1.0000
  N   N48       1.0  0.43919  0.4339500000000001  0.35535  1.0000
  C   C12       1.0  0.57124  0.35833  0.60345  1.0000
  N   N49       1.0  0.6770800000000001  0.57428  0.35155  1.0000
  N   N50       1.0  0.6994  0.51347  0.39396999999999993  1.0000
  N   N51       1.0  0.74486  0.44559  0.37398  1.0000
  N   N52       1.0  0.75191  0.46215  0.31693  1.0000
  N   N53       1.0  0.70623  0.35856  0.45635  1.0000
  N   N54       1.0  0.65637  0.4244  0.47246  1.0000
  N   N55       1.0  0.5949099999999998  0.41072  0.46912999999999994  1.0000
  N   N56       1.0  0.6017  0.33438  0.44804  1.0000
  N   N57       1.0  0.5633900000000001  0.57539  0.62231  1.0000
  N   N58       1.0  0.57168  0.5451200000000003  0.56425  1.0000
  N   N59       1.0  0.6305199999999999  0.5563900000000003  0.55523  1.0000
  N   N60       1.0  0.66188  0.59325  0.60468  1.0000
  N   N61       1.0  0.49868  0.57796  0.42492  1.0000
  N   N62       1.0  0.5600699999999998  0.59018  0.42313999999999996  1.0000
  N   N63       1.0  0.5436899999999996  0.6504  0.38133  1.0000
  N   N64       1.0  0.47197999999999996  0.6775  0.3508  1.0000
  Cl  Cl3       1.0  0.35037  0.30171  0.50084  1.0000
  Cl  Cl4       1.0  0.6771599999999999  0.6600000000000003  0.47701  1.0000
  C   C13       1.0  0.7078400000000001  0.54251  0.30301  1.0000
  C   C14       1.0  0.6723400000000002  0.30278  0.44157  1.0000
  C   C15       1.0  0.62073  0.60483  0.6463199999999999  1.0000
  C   C16       1.0  0.44422  0.63187  0.37721  1.0000
  C   C17       1.0  0.9047699999999999  0.21662000000000006  0.9102999999999999  1.0000
  C   C18       1.0  0.8924099999999999  0.26167  0.9660099999999999  1.0000
  C   C19       1.0  0.82627  0.32903  0.96161  1.0000
  Br  Br1       1.0  0.8056299999999998  0.38605  0.038189999999999946  1.0000
  C   C20       1.0  0.77583  0.35736  0.90079  1.0000
  C   C21       1.0  0.7867699999999999  0.31485  0.8434099999999999  1.0000
  C   C22       1.0  0.7320599999999999  0.34767  0.77814  1.0000
  C   C23       1.0  0.65487  0.39081  0.7721  1.0000
  F   F1        1.0  0.62634  0.4041200000000001  0.82422  1.0000
  C   C24       1.0  0.60371  0.41424  0.71073  1.0000
  F   F2        1.0  0.5297099999999999  0.45236  0.70706  1.0000
  C   C25       1.0  0.62581  0.38447  0.6539  1.0000
  C   C26       1.0  0.7023599999999999  0.34724  0.65878  1.0000
  F   F3        1.0  0.7253999999999999  0.31685000000000013  0.60492  1.0000
  C   C27       1.0  0.7554099999999999  0.33347  0.72021  1.0000
  F   F4        1.0  0.8291699999999999  0.30342  0.7224499999999999  1.0000
  C   C28       1.0  0.8513  0.24228999999999998  0.84946  1.0000
  H   H1        1.0  0.93541  0.24711000000000002  0.01228999999999991  1.0000
  H   H2        1.0  0.72945  0.41422  0.8994099999999999  1.0000
  H   H3        1.0  0.86235  0.20668  0.80706  1.0000
  C   C29       1.0  0.90039  0.13832  0.19196  1.0000
  C   C30       1.0  0.9708299999999999  0.08147  0.2246  1.0000
  C   C31       1.0  0.9821  0.04233  0.28258  1.0000
  Br  Br2       1.0  0.08028999999999994  0.97201  0.32763  1.0000
  C   C32       1.0  0.9232699999999999  0.05797  0.30959  1.0000
  C   C33       1.0  0.85496  0.12272000000000004  0.2848399999999999  1.0000
  C   C34       1.0  0.8016199999999999  0.1522  0.32672  1.0000
  C   C35       1.0  0.72327  0.18603  0.29932  1.0000
  F   F5        1.0  0.69265  0.18497  0.23397  1.0000
  C   C36       1.0  0.6757499999999999  0.22577000000000005  0.33887  1.0000
  F   F6        1.0  0.60284  0.27091000000000004  0.30994  1.0000
  C   C37       1.0  0.70533  0.22824  0.40685999999999994  1.0000
  C   C38       1.0  0.7811599999999999  0.1826  0.43527999999999994  1.0000
  F   F7        1.0  0.81075  0.18226  0.50127  1.0000
  C   C39       1.0  0.82953  0.14965  0.39606  1.0000
  F   F8        1.0  0.9041699999999999  0.12451  0.42665  1.0000
  C   C40       1.0  0.84262  0.16109  0.22375  1.0000
  H   H4        1.0  0.017549999999999955  0.06344  0.20467  1.0000
  H   H5        1.0  0.93267  0.021950000000000004  0.35228  1.0000
  H   H6        1.0  0.78959  0.20869  0.20106  1.0000
  C   C41       1.0  0.74392  0.92908  0.17277  1.0000
  C   C42       1.0  0.7596  0.9564300000000002  0.23739  1.0000
  C   C43       1.0  0.76501  0.9088  0.28906  1.0000
  Br  Br3       1.0  0.7891299999999998  0.94541  0.37703  1.0000
  C   C44       1.0  0.75588  0.83267  0.27657  1.0000
  C   C45       1.0  0.7386099999999999  0.8054500000000002  0.21205000000000002  1.0000
  C   C46       1.0  0.7211099999999999  0.72952  0.2017  1.0000
  C   C47       1.0  0.78039  0.65303  0.21211  1.0000
  F   F9        1.0  0.8485599999999998  0.64741  0.20755  1.0000
  C   C48       1.0  0.77294  0.58559  0.23719  1.0000
  F   F10       1.0  0.8346900000000002  0.51687  0.258  1.0000
  C   C49       1.0  0.7059899999999999  0.5949399999999999  0.25152  1.0000
  C   C50       1.0  0.6429600000000001  0.66753  0.23060999999999998  1.0000
  F   F11       1.0  0.5770699999999999  0.67775  0.24298  1.0000
  C   C51       1.0  0.6505300000000002  0.73453  0.20532999999999998  1.0000
  F   F12       1.0  0.5924499999999999  0.80817  0.19452  1.0000
  C   C52       1.0  0.7335299999999999  0.8531600000000003  0.15996  1.0000
  H   H7        1.0  0.7690399999999998  0.014310000000000045  0.24799999999999997  1.0000
  H   H8        1.0  0.7616999999999998  0.79461  0.31703  1.0000
  H   H9        1.0  0.7184799999999999  0.83334  0.11024  1.0000
  C   C53       1.0  0.03934  0.85502  0.14244  1.0000
  C   C54       1.0  0.9899799999999996  0.8763  0.18254  1.0000
  C   C55       1.0  0.010499999999999999  0.83401  0.24153999999999998  1.0000
  Br  Br4       1.0  0.9416699999999999  0.84662  0.29083  1.0000
  C   C56       1.0  0.08253  0.7789  0.26553  1.0000
  C   C57       1.0  0.13754  0.76728  0.23340999999999998  1.0000
  C   C58       1.0  0.21714999999999995  0.72249  0.27154  1.0000
  C   C59       1.0  0.24043000000000006  0.73958  0.33894  1.0000
  F   F13       1.0  0.19408  0.7991  0.36817999999999995  1.0000
  C   C60       1.0  0.31355  0.70068  0.37668  1.0000
  F   F14       1.0  0.33594000000000007  0.73045  0.43681  1.0000
  C   C61       1.0  0.36561999999999967  0.64146  0.34953  1.0000
  C   C62       1.0  0.34318999999999994  0.6218600000000002  0.28316  1.0000
  F   F15       1.0  0.3945  0.56843  0.25474  1.0000
  C   C63       1.0  0.2698499999999999  0.6623900000000003  0.24411  1.0000
  F   F16       1.0  0.25067  0.64125  0.18049  1.0000
  C   C64       1.0  0.11457  0.80168  0.169  1.0000
  H   H10       1.0  0.9319799999999999  0.9162  0.16374  1.0000
  H   H11       1.0  0.09612999999999997  0.74679  0.31137  1.0000
  H   H12       1.0  0.15355  0.7854  0.1395  1.0000
  C   C65       1.0  0.13084  0.17634  0.17218  1.0000
  C   C66       1.0  0.060759999999999995  0.23063  0.17666  1.0000
  C   C67       1.0  0.041859999999999994  0.31551  0.16976  1.0000
  Br  Br5       1.0  0.9462299999999999  0.38895000000000013  0.17594  1.0000
  C   C68       1.0  0.09374999999999999  0.34724  0.1612  1.0000
  C   C69       1.0  0.17025  0.29669  0.17255999999999996  1.0000
  C   C70       1.0  0.23090999999999995  0.33527  0.18918  1.0000
  C   C71       1.0  0.30686  0.28897  0.19082  1.0000
  F   F17       1.0  0.32616000000000006  0.21548  0.16059  1.0000
  C   C72       1.0  0.36516999999999994  0.31621  0.22731  1.0000
  F   F18       1.0  0.43742  0.26443  0.23737  1.0000
  C   C73       1.0  0.34900999999999993  0.39183  0.25965  1.0000
  C   C74       1.0  0.27416  0.44543  0.24493999999999996  1.0000
  F   F19       1.0  0.256  0.51732  0.27743  1.0000
  C   C75       1.0  0.21624  0.41658  0.2142  1.0000
  F   F20       1.0  0.14759  0.46578  0.21937  1.0000
  C   C76       1.0  0.18712  0.20957  0.17536999999999997  1.0000
  H   H13       1.0  0.01890999999999999  0.20727000000000004  0.18101  1.0000
  H   H14       1.0  0.07322  0.41217  0.14826  1.0000
  H   H15       1.0  0.24298  0.16631000000000007  0.17966  1.0000
  C   C77       1.0  0.6394  0.6478  0.7078999999999999  1.0000
  C   C78       1.0  0.63746  0.62134  0.76722  1.0000
  C   C79       1.0  0.6696400000000001  0.65295  0.82621  1.0000
  Br  Br6       1.0  0.67287  0.6125200000000002  0.90792  1.0000
  C   C80       1.0  0.7035799999999999  0.711  0.8260399999999999  1.0000
  C   C81       1.0  0.70761  0.73664  0.76717  1.0000
  C   C82       1.0  0.7497999999999999  0.79217  0.7677199999999998  1.0000
  C   C83       1.0  0.71251  0.8721700000000002  0.73959  1.0000
  F   F21       1.0  0.63838  0.89758  0.70701  1.0000
  C   C84       1.0  0.75003  0.92864  0.74896  1.0000
  F   F22       1.0  0.7101299999999997  0.008070000000000023  0.7271099999999999  1.0000
  C   C85       1.0  0.82577  0.9061600000000002  0.78642  1.0000
  C   C86       1.0  0.86509  0.8228700000000002  0.8073899999999999  1.0000
  F   F23       1.0  0.9384399999999998  0.7974800000000002  0.84121  1.0000
  C   C87       1.0  0.82713  0.76692  0.79945  1.0000
  F   F24       1.0  0.8652399999999999  0.6889  0.8251  1.0000
  C   C88       1.0  0.6744800000000001  0.70579  0.70845  1.0000
  H   H16       1.0  0.6150199999999996  0.57328  0.76786  1.0000
  H   H17       1.0  0.7280799999999998  0.7350900000000002  0.87185  1.0000
  H   H18       1.0  0.6795199999999999  0.72394  0.6632  1.0000
  C   C89       1.0  0.12445000000000005  0.755  0.84758  1.0000
  C   C90       1.0  0.09182999999999998  0.69415  0.83356  1.0000
  C   C91       1.0  0.09968999999999997  0.64398  0.77922  1.0000
  Br  Br7       1.0  0.05555  0.5605  0.76075  1.0000
  C   C92       1.0  0.14087000000000002  0.65362  0.73901  1.0000
  C   C93       1.0  0.1752299999999999  0.71327  0.7525599999999999  1.0000
  C   C94       1.0  0.21819000000000002  0.72316  0.70863  1.0000
  C   C95       1.0  0.29722  0.69143  0.72707  1.0000
  F   F25       1.0  0.33564  0.65995  0.78859  1.0000
  C   C96       1.0  0.33685999999999994  0.68382  0.68029  1.0000
  F   F26       1.0  0.41218999999999995  0.64333  0.69773  1.0000
  C   C97       1.0  0.2979799999999999  0.70757  0.61429  1.0000
  C   C98       1.0  0.21946  0.74823  0.5984  1.0000
  F   F27       1.0  0.17984999999999998  0.77172  0.53546  1.0000
  C   C99       1.0  0.17998999999999998  0.75523  0.64472  1.0000
  F   F28       1.0  0.10382  0.78733  0.62574  1.0000
  C   C100      1.0  0.16715999999999998  0.76319  0.8072  1.0000
  H   H19       1.0  0.06289000000000003  0.68353  0.86598  1.0000
  H   H20       1.0  0.14722000000000002  0.61341  0.6979  1.0000
  H   H21       1.0  0.19376999999999997  0.80891  0.81785  1.0000
  C   C101      1.0  0.34971  0.36843000000000004  0.74317  1.0000
  C   C102      1.0  0.36544999999999994  0.40615  0.8037399999999999  1.0000
  C   C103      1.0  0.38212999999999997  0.36223  0.86165  1.0000
  Br  Br8       1.0  0.40318999999999994  0.41331  0.9442  1.0000
  C   C104      1.0  0.3793899999999999  0.28247  0.85885  1.0000
  C   C105      1.0  0.36145999999999995  0.24594  0.7980299999999999  1.0000
  C   C106      1.0  0.34044  0.17261  0.79362  1.0000
  C   C107      1.0  0.39204999999999995  0.09744  0.8240099999999999  1.0000
  F   F29       1.0  0.46461  0.08901999999999999  0.85317  1.0000
  C   C108      1.0  0.36773999999999996  0.03249000000000001  0.82822  1.0000
  F   F30       1.0  0.41748  0.96194  0.86152  1.0000
  C   C109      1.0  0.291  0.04458999999999999  0.80568  1.0000
  C   C110      1.0  0.24019999999999994  0.11811000000000002  0.7719099999999999  1.0000
  F   F31       1.0  0.16556  0.13168  0.75131  1.0000
  C   C111      1.0  0.26513999999999993  0.18116  0.76474  1.0000
  F   F32       1.0  0.21439999999999998  0.25371  0.7353399999999999  1.0000
  C   C112      1.0  0.3490599999999999  0.28807  0.7405499999999999  1.0000
  H   H22       1.0  0.3639199999999999  0.4695900000000001  0.80581  1.0000
  H   H23       1.0  0.38697  0.25108  0.90358  1.0000
  H   H24       1.0  0.3326399999999999  0.2608900000000001  0.69352  1.0000
