data_image0
_chemical_formula_structural       Mn5CN8C2N8CN16Cl2C4Mn5CN8C2N8CN16Cl2C7FCFC4IC2ICNCICFCFH6C3FCFC4IC2ICNCICFCFH6C3FCFC4IC2ICNCICFCFH6C3FCFC4IC2ICNCICFCFH6C3FCFC4IC2ICNCICFCFH6C3FCFC4IC2ICNCICFCFH6C3FCFC4IC2ICNCICFCFH6C3FCFC4IC2ICNCICFCFH6
_chemical_formula_sum              "Mn10 C128 N72 Cl4 F32 I24 H48"
_cell_length_a       21.9634
_cell_length_b       19.676
_cell_length_c       23.514999999999997
_cell_angle_alpha    100.9057
_cell_angle_beta     106.06680000000001
_cell_angle_gamma    70.1068

_space_group_name_H-M_alt    "P 1"
_space_group_IT_number       1

loop_
  _space_group_symop_operation_xyz
  'x, y, z'

loop_
  _atom_site_type_symbol
  _atom_site_label
  _atom_site_symmetry_multiplicity
  _atom_site_fract_x
  _atom_site_fract_y
  _atom_site_fract_z
  _atom_site_occupancy
  Mn  Mn1       1.0  0.9349199999999999  0.76615  0.08367  1.0000
  Mn  Mn2       1.0  0.8726899999999999  0.93229  0.02805  1.0000
  Mn  Mn3       1.0  0.08617999999999998  0.21838  0.9435799999999999  1.0000
  Mn  Mn4       1.0  0.13855  0.045060000000000024  0.9847600000000001  1.0000
  Mn  Mn5       1.0  0.001319999999999983  0.9886  0.99747  1.0000
  C   C1        1.0  0.8870699999999999  0.8720499999999999  0.18775  1.0000
  N   N1        1.0  0.89249  0.85863  0.13115  1.0000
  N   N2        1.0  0.8676499999999999  0.92228  0.11018  1.0000
  N   N3        1.0  0.84674  0.97374  0.15178  1.0000
  N   N4        1.0  0.85815  0.9437  0.20128999999999997  1.0000
  N   N5        1.0  0.84942  0.08348  0.08569  1.0000
  N   N6        1.0  0.88594  0.03026  0.0545  1.0000
  N   N7        1.0  0.93231  0.050719999999999994  0.04339  1.0000
  N   N8        1.0  0.92822  0.11812  0.06761  1.0000
  C   C2        1.0  0.87653  0.13772000000000004  0.09389000000000002  1.0000
  C   C3        1.0  0.8658799999999998  0.92372  0.85395  1.0000
  N   N9        1.0  0.88095  0.9384  0.9466899999999999  1.0000
  N   N10       1.0  0.84135  0.91803  0.89841  1.0000
  N   N11       1.0  0.018489999999999986  0.90048  0.041  1.0000
  N   N12       1.0  0.9703999999999999  0.88109  0.04982  1.0000
  N   N13       1.0  0.99468  0.81816  0.07214  1.0000
  N   N14       1.0  0.06009000000000002  0.79437  0.08044  1.0000
  N   N15       1.0  0.9280700000000002  0.95616  0.93328  1.0000
  N   N16       1.0  0.9205900000000001  0.94685  0.8746  1.0000
  C   C4        1.0  0.07490999999999999  0.84673  0.06187  1.0000
  N   N17       1.0  0.13008  0.13092  0.89248  1.0000
  N   N18       1.0  0.15060000000000007  0.06408999999999998  0.90734  1.0000
  N   N19       1.0  0.16909  0.017240000000000002  0.86229  1.0000
  N   N20       1.0  0.16007  0.05362  0.81681  1.0000
  N   N21       1.0  0.15830999999999998  0.8995000000000001  0.91542  1.0000
  N   N22       1.0  0.12155000000000005  0.94955  0.94834  1.0000
  N   N23       1.0  0.07078999999999998  0.9296200000000001  0.95115  1.0000
  N   N24       1.0  0.07209  0.8662699999999999  0.9193  1.0000
  N   N25       1.0  0.06538999999999999  0.027460000000000002  0.12077  1.0000
  N   N26       1.0  0.07029000000000002  0.01761  0.06494  1.0000
  N   N27       1.0  0.12291999999999999  0.03276  0.06148  1.0000
  N   N28       1.0  0.15406  0.05409  0.11508  1.0000
  N   N29       1.0  0.98959  0.07765  0.95614  1.0000
  N   N30       1.0  0.041429999999999995  0.09930000000000001  0.95923  1.0000
  N   N31       1.0  0.02194000000000002  0.16529  0.94309  1.0000
  N   N32       1.0  0.9567199999999999  0.18935  0.92701  1.0000
  Cl  Cl1       1.0  0.8622999999999998  0.81868  0.00216  1.0000
  Cl  Cl2       1.0  0.15254  0.15558  0.021870000000000056  1.0000
  C   C5        1.0  0.13551  0.12449  0.83629  1.0000
  C   C6        1.0  0.12691  0.84829  0.89747  1.0000
  C   C7        1.0  0.11752999999999998  0.050100000000000006  0.15149  1.0000
  C   C8        1.0  0.93661  0.13447  0.9346  1.0000
  Mn  Mn6       1.0  0.36238999999999993  0.3224  0.55651  1.0000
  Mn  Mn7       1.0  0.33275  0.48860999999999993  0.50785  1.0000
  Mn  Mn8       1.0  0.63795  0.66181  0.41811000000000004  1.0000
  Mn  Mn9       1.0  0.64353  0.50927  0.47141  1.0000
  Mn  Mn10      1.0  0.48381  0.50794  0.4862  1.0000
  C   C9        1.0  0.32755  0.43032999999999993  0.66345  1.0000
  N   N33       1.0  0.33352000000000004  0.41728  0.60701  1.0000
  N   N34       1.0  0.31952  0.48149  0.58873  1.0000
  N   N35       1.0  0.30324000000000007  0.5333499999999999  0.63171  1.0000
  N   N36       1.0  0.30809  0.50285  0.67942  1.0000
  N   N37       1.0  0.33767  0.6341  0.57164  1.0000
  N   N38       1.0  0.36614  0.57654  0.53829  1.0000
  N   N39       1.0  0.4169  0.58672  0.52519  1.0000
  N   N40       1.0  0.4226  0.6511  0.5494  1.0000
  C   C10       1.0  0.3728699999999999  0.6807900000000001  0.57839  1.0000
  C   C11       1.0  0.35634  0.43731  0.34041  1.0000
  N   N41       1.0  0.35026  0.4864  0.42792  1.0000
  N   N42       1.0  0.31804999999999994  0.45566  0.37993  1.0000
  N   N43       1.0  0.47917  0.43515  0.53652  1.0000
  N   N44       1.0  0.42374  0.41915  0.52836  1.0000
  N   N45       1.0  0.43563  0.35719  0.54884  1.0000
  N   N46       1.0  0.49887000000000004  0.33274  0.57516  1.0000
  N   N47       1.0  0.40696000000000004  0.48735999999999996  0.41926  1.0000
  N   N48       1.0  0.4125200000000001  0.45665  0.36482000000000003  1.0000
  C   C12       1.0  0.52653  0.38231  0.56924  1.0000
  N   N49       1.0  0.67661  0.56098  0.37861  1.0000
  N   N50       1.0  0.6716300000000001  0.50323  0.39552  1.0000
  N   N51       1.0  0.7049400000000001  0.4433  0.3676  1.0000
  N   N52       1.0  0.73213  0.46115000000000006  0.33122  1.0000
  N   N53       1.0  0.63334  0.36847  0.40598000000000006  1.0000
  N   N54       1.0  0.6064199999999997  0.42663  0.43966  1.0000
  N   N55       1.0  0.5492700000000001  0.42494  0.4461300000000001  1.0000
  N   N56       1.0  0.53695  0.36479  0.41661000000000004  1.0000
  N   N57       1.0  0.5551599999999999  0.55518  0.6092  1.0000
  N   N58       1.0  0.55865  0.52902  0.55351  1.0000
  N   N59       1.0  0.61898  0.51814  0.54751  1.0000
  N   N60       1.0  0.65709  0.53534  0.59829  1.0000
  N   N61       1.0  0.494  0.58116  0.43794000000000005  1.0000
  N   N62       1.0  0.5551499999999998  0.5804  0.43877  1.0000
  N   N63       1.0  0.5540799999999999  0.63661  0.41535  1.0000
  N   N64       1.0  0.49220000000000014  0.676  0.39654  1.0000
  Cl  Cl3       1.0  0.2996500000000001  0.38768  0.47909  1.0000
  Cl  Cl4       1.0  0.67903  0.60799  0.50435  1.0000
  C   C13       1.0  0.71558  0.53448  0.33893  1.0000
  C   C14       1.0  0.5896800000000002  0.33032  0.39184  1.0000
  C   C15       1.0  0.61732  0.55794  0.63666  1.0000
  C   C16       1.0  0.45395  0.64133  0.40883  1.0000
  C   C17       1.0  0.86517  0.1371  0.91418  1.0000
  C   C18       1.0  0.83602  0.16900000000000007  0.8549400000000001  1.0000
  C   C19       1.0  0.83837  0.12420000000000002  0.80089  1.0000
  F   F1        1.0  0.86952  0.05194000000000001  0.80034  1.0000
  C   C20       1.0  0.8079500000000001  0.15332  0.7466  1.0000
  F   F2        1.0  0.80687  0.10736  0.69561  1.0000
  C   C21       1.0  0.77978  0.22883  0.74494  1.0000
  C   C22       1.0  0.74451  0.25947  0.68587  1.0000
  C   C23       1.0  0.67357  0.31060999999999994  0.68043  1.0000
  C   C24       1.0  0.64209  0.34687  0.6284  1.0000
  I   I1        1.0  0.68802  0.32292  0.55541  1.0000
  C   C25       1.0  0.5774800000000001  0.39627  0.62255  1.0000
  C   C26       1.0  0.55404  0.4250200000000001  0.67527  1.0000
  I   I2        1.0  0.46618  0.51498  0.67456  1.0000
  C   C27       1.0  0.58308  0.38725  0.72615  1.0000
  N   N65       1.0  0.55535  0.40931  0.77786  1.0000
  C   C28       1.0  0.63691  0.32379  0.72443  1.0000
  I   I3        1.0  0.6393500000000002  0.2394  0.77099  1.0000
  C   C29       1.0  0.78575  0.27458  0.7987700000000001  1.0000
  F   F3        1.0  0.7639599999999999  0.34791000000000005  0.79851  1.0000
  C   C30       1.0  0.8112100000000002  0.24484  0.8533099999999999  1.0000
  F   F4        1.0  0.8119000000000001  0.29016  0.9046100000000001  1.0000
  H   H1        1.0  0.85926  0.08291  0.91034  1.0000
  H   H2        1.0  0.83798  0.17198  0.94784  1.0000
  H   H3        1.0  0.74337  0.21484  0.64919  1.0000
  H   H4        1.0  0.77539  0.28966  0.67805  1.0000
  H   H5        1.0  0.58229  0.38909  0.81846  1.0000
  H   H6        1.0  0.50894  0.44762  0.77795  1.0000
  C   C31       1.0  0.85326  0.21021  0.1288  1.0000
  C   C32       1.0  0.7931799999999999  0.21569999999999998  0.15099  1.0000
  C   C33       1.0  0.72915  0.25532  0.12216000000000002  1.0000
  F   F5        1.0  0.7206900000000003  0.2945  0.07726  1.0000
  C   C34       1.0  0.6730400000000001  0.25176  0.1371  1.0000
  F   F6        1.0  0.61193  0.28771  0.10594  1.0000
  C   C35       1.0  0.6797599999999998  0.20883  0.18153  1.0000
  C   C36       1.0  0.61827  0.19708  0.19031000000000003  1.0000
  C   C37       1.0  0.6171999999999997  0.19602  0.25466  1.0000
  C   C38       1.0  0.60576  0.26159  0.29303  1.0000
  I   I4        1.0  0.59744  0.36114  0.26226  1.0000
  C   C39       1.0  0.59721  0.26239  0.35068  1.0000
  C   C40       1.0  0.5991  0.19768  0.36960999999999994  1.0000
  I   I5        1.0  0.57892  0.19927000000000003  0.45396000000000003  1.0000
  C   C41       1.0  0.61383  0.13152  0.3328  1.0000
  N   N66       1.0  0.61961  0.0651  0.35377  1.0000
  C   C42       1.0  0.62316  0.13047  0.27557  1.0000
  I   I6        1.0  0.65125  0.02748  0.22315  1.0000
  C   C43       1.0  0.7442  0.17147999999999997  0.2119  1.0000
  F   F7        1.0  0.75338  0.12935  0.25479  1.0000
  C   C44       1.0  0.8002499999999999  0.17542  0.1971  1.0000
  F   F8        1.0  0.8616899999999998  0.13695  0.22578  1.0000
  H   H7        1.0  0.89421  0.21782  0.16706  1.0000
  H   H8        1.0  0.84174  0.2535  0.09975  1.0000
  H   H9        1.0  0.61239  0.14691  0.16228  1.0000
  H   H10       1.0  0.57302  0.23958  0.17083  1.0000
  H   H11       1.0  0.61112  0.02055  0.32465  1.0000
  H   H12       1.0  0.63304  0.05854999999999999  0.39898  1.0000
  C   C45       1.0  0.9132  0.81605  0.23026999999999997  1.0000
  C   C46       1.0  0.8813799999999998  0.75665  0.20676  1.0000
  C   C47       1.0  0.8198899999999999  0.76392  0.21813  1.0000
  F   F9        1.0  0.78716  0.82593  0.24759000000000003  1.0000
  C   C48       1.0  0.7944899999999999  0.70521  0.20364  1.0000
  F   F10       1.0  0.73744  0.71181  0.21915  1.0000
  C   C49       1.0  0.8310999999999997  0.63796  0.17876999999999998  1.0000
  C   C50       1.0  0.81573  0.5694  0.18167000000000003  1.0000
  C   C51       1.0  0.81553  0.5641  0.24549  1.0000
  C   C52       1.0  0.75893  0.55923  0.26028  1.0000
  I   I7        1.0  0.6821299999999999  0.52725  0.19329000000000002  1.0000
  C   C53       1.0  0.7542099999999999  0.5718600000000001  0.32042  1.0000
  C   C54       1.0  0.80232  0.5982  0.3638  1.0000
  I   I8        1.0  0.7867500000000002  0.64699  0.44924  1.0000
  C   C55       1.0  0.86174  0.59474  0.35007  1.0000
  N   N67       1.0  0.9134699999999999  0.61546  0.3949  1.0000
  C   C56       1.0  0.8704800000000001  0.57101  0.29202  1.0000
  I   I9        1.0  0.96858  0.53884  0.27715  1.0000
  C   C57       1.0  0.88747  0.63422  0.15947  1.0000
  F   F11       1.0  0.9208000000000001  0.57192  0.13075  1.0000
  C   C58       1.0  0.91364  0.69251  0.17503  1.0000
  F   F12       1.0  0.9727800000000001  0.68439  0.1628  1.0000
  H   H13       1.0  0.96807  0.79394  0.23633000000000004  1.0000
  H   H14       1.0  0.90353  0.84081  0.27473  1.0000
  H   H15       1.0  0.85269  0.51991  0.16611  1.0000
  H   H16       1.0  0.76696  0.57241  0.15069  1.0000
  H   H17       1.0  0.94706  0.63437  0.38354  1.0000
  H   H18       1.0  0.9209099999999999  0.60983  0.43974  1.0000
  C   C59       1.0  0.14525999999999994  0.8426  0.06426  1.0000
  C   C60       1.0  0.19295999999999996  0.83484  0.12527  1.0000
  C   C61       1.0  0.26166  0.81012  0.12748  1.0000
  F   F13       1.0  0.28375000000000006  0.79258  0.07637  1.0000
  C   C62       1.0  0.30846000000000007  0.80547  0.18196000000000004  1.0000
  F   F14       1.0  0.37396  0.78465  0.18135  1.0000
  C   C63       1.0  0.288  0.82512  0.23613  1.0000
  C   C64       1.0  0.33902  0.82666  0.29475  1.0000
  C   C65       1.0  0.3371299999999999  0.78175  0.34021  1.0000
  C   C66       1.0  0.36292  0.70453  0.33339  1.0000
  I   I10       1.0  0.40173  0.64786  0.25814  1.0000
  C   C67       1.0  0.37984999999999997  0.66628  0.38378  1.0000
  C   C68       1.0  0.33677999999999997  0.69658  0.42267  1.0000
  I   I11       1.0  0.26033000000000006  0.64897  0.41166  1.0000
  C   C69       1.0  0.31253  0.77277  0.43295999999999996  1.0000
  N   N68       1.0  0.27322  0.80537  0.47628  1.0000
  C   C70       1.0  0.31819999999999987  0.81579  0.39432  1.0000
  I   I12       1.0  0.29705000000000004  0.9302899999999998  0.42004  1.0000
  C   C71       1.0  0.21936999999999998  0.85155  0.23423000000000002  1.0000
  F   F15       1.0  0.19756000000000004  0.87579  0.28525  1.0000
  C   C72       1.0  0.1723  0.85675  0.17961  1.0000
  F   F16       1.0  0.10696999999999994  0.8861700000000001  0.18063  1.0000
  H   H19       1.0  0.16421999999999998  0.7948200000000001  0.0331  1.0000
  H   H20       1.0  0.14683999999999997  0.8907000000000002  0.04816  1.0000
  H   H21       1.0  0.33124999999999993  0.88446  0.31199  1.0000
  H   H22       1.0  0.3902299999999999  0.80799  0.28752  1.0000
  H   H23       1.0  0.24373000000000003  0.85957  0.47780000000000006  1.0000
  H   H24       1.0  0.26813000000000003  0.77369  0.50431  1.0000
  C   C73       1.0  0.12563000000000002  0.07818  0.21611000000000002  1.0000
  C   C74       1.0  0.18402  0.10729999999999999  0.2394  1.0000
  C   C75       1.0  0.23599  0.0768  0.28612  1.0000
  F   F17       1.0  0.23420999999999997  0.02096  0.31085  1.0000
  C   C76       1.0  0.28945  0.10458  0.30852  1.0000
  F   F18       1.0  0.33723  0.07627  0.35588  1.0000
  C   C77       1.0  0.29369  0.16142  0.28298  1.0000
  C   C78       1.0  0.3519499999999999  0.19033  0.31202  1.0000
  C   C79       1.0  0.35804  0.24881  0.28236  1.0000
  C   C80       1.0  0.32804  0.32208  0.3008  1.0000
  I   I13       1.0  0.23695999999999995  0.35071  0.32965  1.0000
  C   C81       1.0  0.35332  0.37577  0.29284  1.0000
  C   C82       1.0  0.3903100000000001  0.36  0.24916  1.0000
  I   I14       1.0  0.40514  0.44788999999999995  0.21983  1.0000
  C   C83       1.0  0.41138  0.288  0.22176  1.0000
  N   N69       1.0  0.44633000000000006  0.27199  0.17507  1.0000
  C   C84       1.0  0.39916  0.23149  0.24174000000000004  1.0000
  I   I15       1.0  0.43808  0.12035000000000001  0.20759  1.0000
  C   C85       1.0  0.24207  0.19065  0.23449  1.0000
  F   F19       1.0  0.24361999999999998  0.2439  0.20621  1.0000
  C   C86       1.0  0.18641999999999997  0.16605  0.2151  1.0000
  F   F20       1.0  0.13469000000000003  0.19945  0.17219  1.0000
  H   H25       1.0  0.07963000000000002  0.12264  0.22211  1.0000
  H   H26       1.0  0.12986  0.03364  0.24116  1.0000
  H   H27       1.0  0.39878  0.14448  0.31675  1.0000
  H   H28       1.0  0.34889  0.21163  0.35877000000000003  1.0000
  H   H29       1.0  0.46201  0.21968999999999997  0.15378  1.0000
  H   H30       1.0  0.45592  0.31225  0.15903  1.0000
  C   C87       1.0  0.6392799999999997  0.58783  0.70025  1.0000
  C   C88       1.0  0.69004  0.62716  0.70576  1.0000
  C   C89       1.0  0.75213  0.58902  0.69202  1.0000
  F   F21       1.0  0.77215  0.51527  0.68303  1.0000
  C   C90       1.0  0.79304  0.62644  0.68503  1.0000
  F   F22       1.0  0.849  0.58799  0.66543  1.0000
  C   C91       1.0  0.7763400000000001  0.70256  0.69683  1.0000
  C   C92       1.0  0.8209600000000001  0.73917  0.68252  1.0000
  C   C93       1.0  0.81114  0.81832  0.70737  1.0000
  C   C94       1.0  0.85197  0.83721  0.7624  1.0000
  I   I16       1.0  0.9386499999999999  0.75854  0.80674  1.0000
  C   C95       1.0  0.83336  0.9082400000000002  0.7911899999999998  1.0000
  C   C96       1.0  0.7737800000000001  0.95918  0.7653700000000001  1.0000
  I   I17       1.0  0.72484  0.0498  0.81973  1.0000
  C   C97       1.0  0.73993  0.94459  0.70656  1.0000
  N   N70       1.0  0.68454  0.0008500000000000004  0.67846  1.0000
  C   C98       1.0  0.75839  0.87382  0.67725  1.0000
  I   I18       1.0  0.7019400000000001  0.84943  0.59005  1.0000
  C   C99       1.0  0.71826  0.73984  0.71885  1.0000
  F   F23       1.0  0.7015799999999999  0.81208  0.73671  1.0000
  C   C100      1.0  0.67532  0.70247  0.72226  1.0000
  F   F24       1.0  0.6192000000000001  0.74027  0.74181  1.0000
  H   H31       1.0  0.5946300000000001  0.6246  0.71577  1.0000
  H   H32       1.0  0.6618699999999998  0.54227  0.7285100000000001  1.0000
  H   H33       1.0  0.8145199999999999  0.73339  0.63355  1.0000
  H   H34       1.0  0.87349  0.70684  0.69771  1.0000
  H   H35       1.0  0.6461299999999999  0.98969  0.64455  1.0000
  H   H36       1.0  0.68048  0.05549  0.69218  1.0000
  C   C101      1.0  0.14811999999999997  0.7824400000000001  0.85519  1.0000
  C   C102      1.0  0.16803  0.80367  0.80627  1.0000
  C   C103      1.0  0.12079000000000001  0.82637  0.75403  1.0000
  F   F25       1.0  0.057869999999999935  0.82337  0.7443999999999998  1.0000
  C   C104      1.0  0.13722999999999994  0.85501  0.71231  1.0000
  F   F26       1.0  0.08973999999999997  0.8782900000000001  0.66306  1.0000
  C   C105      1.0  0.20129000000000005  0.86173  0.7221  1.0000
  C   C106      1.0  0.21681000000000006  0.89721  0.67816  1.0000
  C   C107      1.0  0.285  0.85803  0.66451  1.0000
  C   C108      1.0  0.29662  0.78954  0.62953  1.0000
  I   I19       1.0  0.21394000000000005  0.74547  0.59623  1.0000
  C   C109      1.0  0.35961  0.75413  0.61435  1.0000
  C   C110      1.0  0.40962  0.78994  0.63399  1.0000
  I   I20       1.0  0.50515  0.74723  0.61149  1.0000
  C   C111      1.0  0.39844999999999997  0.8563  0.67096  1.0000
  N   N71       1.0  0.4506400000000001  0.88943  0.69427  1.0000
  C   C112      1.0  0.3366  0.89048  0.68576  1.0000
  I   I21       1.0  0.3226599999999999  0.99398  0.73926  1.0000
  C   C113      1.0  0.24839000000000008  0.83926  0.7747900000000001  1.0000
  F   F27       1.0  0.30981  0.84732  0.7875299999999998  1.0000
  C   C114      1.0  0.23218000000000003  0.8095  0.81584  1.0000
  F   F28       1.0  0.27833000000000013  0.78943  0.86656  1.0000
  H   H37       1.0  0.19075000000000003  0.74118  0.8798  1.0000
  H   H38       1.0  0.10719000000000001  0.75776  0.83663  1.0000
  H   H39       1.0  0.21025999999999997  0.95462  0.69594  1.0000
  H   H40       1.0  0.1788  0.90105  0.63545  1.0000
  H   H41       1.0  0.45700999999999997  0.91653  0.7371  1.0000
  H   H42       1.0  0.4843999999999999  0.88719  0.66985  1.0000
  C   C115      1.0  0.3496  0.37237  0.70474  1.0000
  C   C116      1.0  0.2932199999999999  0.36957  0.72837  1.0000
  C   C117      1.0  0.29489999999999994  0.38439  0.78958  1.0000
  F   F29       1.0  0.3464300000000001  0.40333  0.8285400000000002  1.0000
  C   C118      1.0  0.24281  0.38125  0.81126  1.0000
  F   F30       1.0  0.24529000000000004  0.39865  0.8703900000000001  1.0000
  C   C119      1.0  0.18796  0.36257  0.77236  1.0000
  C   C120      1.0  0.12789999999999999  0.36948  0.79565  1.0000
  C   C121      1.0  0.10166999999999994  0.30414  0.7778299999999999  1.0000
  C   C122      1.0  0.13498  0.24088  0.80791  1.0000
  I   I22       1.0  0.22934999999999997  0.22921000000000002  0.8697  1.0000
  C   C123      1.0  0.1057  0.18484  0.79852  1.0000
  C   C124      1.0  0.04362000000000006  0.19084  0.7584400000000001  1.0000
  I   I23       1.0  0.99735  0.10774  0.7476  1.0000
  C   C125      1.0  0.011320000000000038  0.25205  0.72651  1.0000
  N   N72       1.0  0.9484599999999997  0.25741  0.68504  1.0000
  C   C126      1.0  0.03965000000000002  0.30907  0.73656  1.0000
  I   I24       1.0  0.9843300000000003  0.40452  0.69113  1.0000
  C   C127      1.0  0.18709999999999993  0.34627  0.71117  1.0000
  F   F31       1.0  0.13547  0.32806  0.67198  1.0000
  C   C128      1.0  0.23929999999999998  0.34947  0.68951  1.0000
  F   F32       1.0  0.23682  0.3338  0.63028  1.0000
  H   H43       1.0  0.37044999999999995  0.31846  0.68079  1.0000
  H   H44       1.0  0.39115  0.38227  0.74137  1.0000
  H   H45       1.0  0.08950000000000002  0.42022000000000004  0.7812900000000002  1.0000
  H   H46       1.0  0.13827  0.38020999999999994  0.84497  1.0000
  H   H47       1.0  0.9326499999999999  0.28752  0.64879  1.0000
  H   H48       1.0  0.91614  0.23127  0.68925  1.0000
