data_image0
_chemical_formula_structural       Mn5CN8C2N8CN16Cl2C4Mn5CN8C2N8CN16Cl2C7NC6SCH7C3NC6SCH7C3NC6SCH7C3NC6SCH7C3NC6SCH7C3NC6SCH7C3NC6SCH7C3NC6SCH7
_chemical_formula_sum              "Mn10 C96 N72 Cl4 S8 H56"
_cell_length_a       15.9777
_cell_length_b       18.8394
_cell_length_c       22.8349
_cell_angle_alpha    96.3314
_cell_angle_beta     110.25489999999999
_cell_angle_gamma    67.6239

_symmetry_space_group_name_H-M    'P 1'
_symmetry_Int_Tables_number       1

loop_
  _symmetry_equiv_pos_as_xyz
  'x,y,z'

loop_
  _atom_site_type_symbol
  _atom_site_label
  _atom_site_symmetry_multiplicity
  _atom_site_fract_x
  _atom_site_fract_y
  _atom_site_fract_z
  _atom_site_occupancy
  Mn  Mn1       1.0  0.8559699999999999  0.7683200000000002  0.027340000000000003  1.0000
  Mn  Mn2       1.0  0.78453  0.95856  0.9852500000000001  1.0000
  Mn  Mn3       1.0  0.14850000000000005  0.21447000000000002  0.9453800000000001  1.0000
  Mn  Mn4       1.0  0.2060900000000001  0.035709999999999985  0.0055000000000002824  1.0000
  Mn  Mn5       1.0  0.9925799999999999  0.9989300000000001  0.9933300000000002  1.0000
  C   C1        1.0  0.8051999999999996  0.85564  0.13886  1.0000
  N   N1        1.0  0.7996600000000001  0.85632  0.07897  1.0000
  N   N2        1.0  0.76888  0.92934  0.06277  1.0000
  N   N3        1.0  0.7537899999999995  0.9729600000000002  0.11041000000000001  1.0000
  N   N4        1.0  0.7756799999999999  0.9283  0.15888  1.0000
  N   N5        1.0  0.75866  0.10355  0.053270000000000005  1.0000
  N   N6        1.0  0.81178  0.05146  0.02415  1.0000
  N   N7        1.0  0.87846  0.07285000000000001  0.01856  1.0000
  N   N8        1.0  0.87123  0.14042000000000004  0.04471  1.0000
  C   C2        1.0  0.79669  0.1583  0.06622000000000001  1.0000
  C   C3        1.0  0.8389299999999998  0.91279  0.8349700000000001  1.0000
  N   N9        1.0  0.8083799999999998  0.9816100000000001  0.91003  1.0000
  N   N10       1.0  0.76841  0.9515  0.8584400000000001  1.0000
  N   N11       1.0  0.9937999999999998  0.9140100000000002  0.04204  1.0000
  N   N12       1.0  0.9228899999999999  0.8893200000000002  0.01831  1.0000
  N   N13       1.0  0.9513499999999999  0.8169100000000002  0.03415000000000001  1.0000
  N   N14       1.0  0.04089000000000002  0.79355  0.07218  1.0000
  N   N15       1.0  0.89771  0.97014  0.9148100000000001  1.0000
  N   N16       1.0  0.92093  0.92291  0.87047  1.0000
  C   C4        1.0  0.06627999999999991  0.8558800000000002  0.08079  1.0000
  N   N17       1.0  0.21161  0.11641000000000001  0.90604  1.0000
  N   N18       1.0  0.23732000000000011  0.04789  0.9299800000000003  1.0000
  N   N19       1.0  0.28081  0.9942300000000001  0.8965800000000002  1.0000
  N   N20       1.0  0.28315  0.02776  0.84926  1.0000
  N   N21       1.0  0.23666999999999994  0.88521  0.9463600000000002  1.0000
  N   N22       1.0  0.18074999999999997  0.9401900000000001  0.97199  1.0000
  N   N23       1.0  0.10613999999999993  0.92411  0.96974  1.0000
  N   N24       1.0  0.11165000000000008  0.85728  0.9429400000000001  1.0000
  N   N25       1.0  0.057969999999999994  0.06478000000000002  0.12009  1.0000
  N   N26       1.0  0.08457999999999997  0.02781  0.07284  1.0000
  N   N27       1.0  0.16931  0.029050000000000003  0.07848000000000001  1.0000
  N   N28       1.0  0.20043  0.0647  0.12947  1.0000
  N   N29       1.0  0.9943999999999996  0.08363  0.9436600000000003  1.0000
  N   N30       1.0  0.06921999999999995  0.10467000000000004  0.96344  1.0000
  N   N31       1.0  0.047749999999999966  0.17168000000000005  0.93861  1.0000
  N   N32       1.0  0.9609299999999998  0.1936  0.89729  1.0000
  Cl  Cl1       1.0  0.7587699999999996  0.84989  0.94426  1.0000
  Cl  Cl2       1.0  0.23079999999999995  0.14706  0.03791000000000011  1.0000
  C   C5        1.0  0.23851999999999998  0.10379  0.85536  1.0000
  C   C6        1.0  0.19309000000000012  0.83411  0.9284200000000001  1.0000
  C   C7        1.0  0.13108999999999993  0.08665000000000003  0.1552  1.0000
  C   C8        1.0  0.9283200000000001  0.13696  0.8978900000000001  1.0000
  Mn  Mn6       1.0  0.2235399999999999  0.36972  0.51742  1.0000
  Mn  Mn7       1.0  0.24348  0.53502  0.4822  1.0000
  Mn  Mn8       1.0  0.7567099999999998  0.6438900000000002  0.49051000000000006  1.0000
  Mn  Mn9       1.0  0.7416099999999999  0.47613  0.5252  1.0000
  Mn  Mn10      1.0  0.4927799999999998  0.50134  0.49981  1.0000
  C   C9        1.0  0.21479999999999994  0.46681000000000006  0.63253  1.0000
  N   N33       1.0  0.20326  0.46313  0.5713500000000001  1.0000
  N   N34       1.0  0.20102999999999996  0.52929  0.5555100000000001  1.0000
  N   N35       1.0  0.20352  0.57496  0.60384  1.0000
  N   N36       1.0  0.21240999999999996  0.5374100000000003  0.6527900000000001  1.0000
  N   N37       1.0  0.2803500000000001  0.6576600000000001  0.5635900000000001  1.0000
  N   N38       1.0  0.3125599999999999  0.6040600000000003  0.52621  1.0000
  N   N39       1.0  0.40194  0.59329  0.53319  1.0000
  N   N40       1.0  0.4304199999999999  0.6396500000000003  0.57693  1.0000
  C   C10       1.0  0.35421999999999965  0.6792200000000003  0.59586  1.0000
  C   C11       1.0  0.3025499999999998  0.4726000000000001  0.32961  1.0000
  N   N41       1.0  0.28937  0.53472  0.41088  1.0000
  N   N42       1.0  0.23881000000000002  0.51658  0.3567  1.0000
  N   N43       1.0  0.4512999999999997  0.4282900000000001  0.53314  1.0000
  N   N44       1.0  0.35961999999999983  0.43881  0.51748  1.0000
  N   N45       1.0  0.35065999999999997  0.3754900000000001  0.52869  1.0000
  N   N46       1.0  0.43528000000000006  0.32218  0.55451  1.0000
  N   N47       1.0  0.38163  0.50767  0.41619  1.0000
  N   N48       1.0  0.39210999999999996  0.46669  0.36623000000000006  1.0000
  C   C12       1.0  0.49837  0.35489000000000004  0.5570300000000001  1.0000
  N   N49       1.0  0.7926399999999996  0.54712  0.44252  1.0000
  N   N50       1.0  0.7901899999999998  0.48194  0.45591  1.0000
  N   N51       1.0  0.8211100000000001  0.42821  0.41777  1.0000
  N   N52       1.0  0.84255  0.4588400000000002  0.37779000000000007  1.0000
  N   N53       1.0  0.71518  0.35293  0.44121000000000005  1.0000
  N   N54       1.0  0.67797  0.40317  0.47873  1.0000
  N   N55       1.0  0.58775  0.41099  0.46723000000000003  1.0000
  N   N56       1.0  0.5642799999999998  0.36606  0.42024  1.0000
  N   N57       1.0  0.5834499999999999  0.52743  0.6364300000000002  1.0000
  N   N58       1.0  0.6001099999999998  0.49545  0.58485  1.0000
  N   N59       1.0  0.69211  0.47685  0.59323  1.0000
  N   N60       1.0  0.7366799999999996  0.49566000000000004  0.64935  1.0000
  N   N61       1.0  0.5339600000000001  0.57411  0.4659000000000001  1.0000
  N   N62       1.0  0.62416  0.5687200000000002  0.48615000000000014  1.0000
  N   N63       1.0  0.63044  0.63177  0.47167000000000003  1.0000
  N   N64       1.0  0.5455899999999998  0.6791700000000003  0.4382200000000001  1.0000
  Cl  Cl3       1.0  0.16641999999999996  0.45343000000000017  0.4356100000000001  1.0000
  Cl  Cl4       1.0  0.8097499999999995  0.56284  0.57346  1.0000
  C   C13       1.0  0.82357  0.53316  0.39369  1.0000
  C   C14       1.0  0.6447900000000001  0.3297200000000001  0.40478000000000003  1.0000
  C   C15       1.0  0.66892  0.52671  0.67616  1.0000
  C   C16       1.0  0.48525999999999997  0.6431300000000001  0.43473  1.0000
  C   C17       1.0  0.87877  0.11580000000000001  0.83468  1.0000
  C   C18       1.0  0.9280200000000001  0.047970000000000006  0.80945  1.0000
  C   C19       1.0  0.9015399999999998  0.03711000000000002  0.74493  1.0000
  N   N65       1.0  0.9522000000000002  0.9668000000000001  0.7206800000000001  1.0000
  C   C20       1.0  0.8305999999999998  0.09741  0.7042800000000001  1.0000
  C   C21       1.0  0.78496  0.16824000000000003  0.72784  1.0000
  C   C22       1.0  0.7199399999999998  0.23542000000000002  0.6844800000000001  1.0000
  C   C23       1.0  0.6937699999999997  0.31047000000000013  0.70361  1.0000
  C   C24       1.0  0.61901  0.35908  0.6581  1.0000
  C   C25       1.0  0.59532  0.32366  0.60219  1.0000
  S   S1        1.0  0.65978  0.22673999999999997  0.6070200000000001  1.0000
  C   C26       1.0  0.8056000000000001  0.175  0.7932200000000001  1.0000
  H   H1        1.0  0.9920499999999998  0.0056499999999999944  0.8396100000000001  1.0000
  H   H2        1.0  0.005670000000000013  0.9217  0.75071  1.0000
  H   H3        1.0  0.93673  0.9592400000000001  0.6725900000000001  1.0000
  H   H4        1.0  0.81478  0.08987000000000002  0.65441  1.0000
  H   H5        1.0  0.7203499999999998  0.3287000000000001  0.75068  1.0000
  H   H6        1.0  0.5741499999999996  0.41473000000000015  0.66853  1.0000
  H   H7        1.0  0.7714099999999999  0.2286900000000001  0.8128000000000001  1.0000
  C   C27       1.0  0.7643299999999997  0.22641000000000006  0.10279000000000002  1.0000
  C   C28       1.0  0.76768  0.29577  0.08933000000000002  1.0000
  C   C29       1.0  0.7353200000000001  0.36135  0.12261  1.0000
  N   N66       1.0  0.7361699999999995  0.4327  0.10757  1.0000
  C   C30       1.0  0.70199  0.35706  0.17078  1.0000
  C   C31       1.0  0.70083  0.2874200000000001  0.18681000000000003  1.0000
  C   C32       1.0  0.6737499999999997  0.2840800000000001  0.24259000000000006  1.0000
  C   C33       1.0  0.63775  0.23222  0.2536  1.0000
  C   C34       1.0  0.6204300000000001  0.24435  0.30998  1.0000
  C   C35       1.0  0.6449099999999997  0.30427  0.34134  1.0000
  S   S2        1.0  0.6879200000000001  0.34671  0.30209  1.0000
  C   C36       1.0  0.73042  0.22231  0.15136  1.0000
  H   H8        1.0  0.794  0.29914  0.05229  1.0000
  H   H9        1.0  0.76055  0.43713  0.07172  1.0000
  H   H10       1.0  0.71107  0.48217  0.13173  1.0000
  H   H11       1.0  0.6772699999999999  0.40869000000000005  0.19588  1.0000
  H   H12       1.0  0.6244299999999999  0.18740000000000007  0.22212  1.0000
  H   H13       1.0  0.5934199999999997  0.20982  0.32782000000000006  1.0000
  H   H14       1.0  0.73122  0.16785  0.16305  1.0000
  C   C37       1.0  0.8666999999999999  0.78833  0.18070000000000003  1.0000
  C   C38       1.0  0.9593099999999996  0.74799  0.17874  1.0000
  C   C39       1.0  0.01995999999999997  0.68182  0.21528  1.0000
  N   N67       1.0  0.11381999999999998  0.6413900000000002  0.21145000000000003  1.0000
  C   C40       1.0  0.9878799999999999  0.65558  0.25506  1.0000
  C   C41       1.0  0.8953199999999997  0.69593  0.25843  1.0000
  C   C42       1.0  0.8611999999999999  0.66596  0.29882  1.0000
  C   C43       1.0  0.7990900000000001  0.71204  0.32924  1.0000
  C   C44       1.0  0.7825999999999999  0.6693300000000002  0.36557  1.0000
  C   C45       1.0  0.83016  0.59176  0.36066000000000004  1.0000
  S   S3        1.0  0.8969199999999996  0.5694300000000002  0.3124  1.0000
  C   C46       1.0  0.8352999999999996  0.7633300000000001  0.22173  1.0000
  H   H15       1.0  0.9849099999999998  0.7686200000000002  0.1492  1.0000
  H   H16       1.0  0.13681999999999991  0.66053  0.18077  1.0000
  H   H17       1.0  0.16085999999999998  0.59226  0.23897  1.0000
  H   H18       1.0  0.03519000000000005  0.60403  0.28336  1.0000
  H   H19       1.0  0.7681  0.77416  0.32607  1.0000
  H   H20       1.0  0.7370699999999996  0.69388  0.3940300000000001  1.0000
  H   H21       1.0  0.7633699999999999  0.79414  0.22302  1.0000
  C   C47       1.0  0.10817000000000002  0.87084  0.14782000000000003  1.0000
  C   C48       1.0  0.05160999999999998  0.9333600000000001  0.17429  1.0000
  C   C49       1.0  0.07116000000000003  0.93796  0.23870000000000002  1.0000
  N   N68       1.0  0.01082  0.0007799999999999997  0.26436  1.0000
  C   C50       1.0  0.14531999999999998  0.87823  0.27769  1.0000
  C   C51       1.0  0.20102999999999993  0.81302  0.25322  1.0000
  C   C52       1.0  0.2737  0.74753  0.29644000000000004  1.0000
  C   C53       1.0  0.31785  0.6742900000000001  0.2780500000000001  1.0000
  C   C54       1.0  0.38671  0.62774  0.32761000000000007  1.0000
  C   C55       1.0  0.39376  0.6647900000000002  0.38373000000000007  1.0000
  S   S4        1.0  0.31603999999999993  0.75804  0.37582  1.0000
  C   C56       1.0  0.18353999999999998  0.81092  0.188  1.0000
  H   H22       1.0  0.9873799999999999  0.9763300000000001  0.14476000000000003  1.0000
  H   H23       1.0  0.9485600000000001  0.04137999999999999  0.23533000000000007  1.0000
  H   H24       1.0  0.026999999999999965  0.006350000000000001  0.31263  1.0000
  H   H25       1.0  0.15558999999999992  0.88181  0.32708000000000004  1.0000
  H   H26       1.0  0.30451999999999996  0.65563  0.23039000000000007  1.0000
  H   H27       1.0  0.4365200000000002  0.57144  0.32206000000000007  1.0000
  H   H28       1.0  0.22376  0.76104  0.16747  1.0000
  C   C57       1.0  0.12252  0.14815  0.20124000000000003  1.0000
  C   C58       1.0  0.053500000000000006  0.16588000000000006  0.23060000000000003  1.0000
  C   C59       1.0  0.04014999999999999  0.22821  0.27041  1.0000
  N   N69       1.0  0.9710699999999998  0.24482  0.30147  1.0000
  C   C60       1.0  0.09414000000000002  0.27466  0.27919000000000005  1.0000
  C   C61       1.0  0.1623799999999999  0.2590400000000001  0.24898  1.0000
  C   C62       1.0  0.21669  0.31047000000000013  0.25720000000000004  1.0000
  C   C63       1.0  0.31214000000000003  0.2856  0.26154  1.0000
  C   C64       1.0  0.34885  0.34284  0.2805  1.0000
  C   C65       1.0  0.28038  0.41109  0.28895  1.0000
  S   S5        1.0  0.1693399999999999  0.4059800000000001  0.27162  1.0000
  C   C66       1.0  0.17741999999999988  0.1946  0.21110000000000004  1.0000
  H   H29       1.0  0.009569999999999999  0.13173  0.22204  1.0000
  H   H30       1.0  0.92892  0.21161000000000005  0.29408  1.0000
  H   H31       1.0  0.9628700000000001  0.28954  0.33297000000000004  1.0000
  H   H32       1.0  0.08288  0.32279  0.30998  1.0000
  H   H33       1.0  0.3553  0.22670999999999997  0.256  1.0000
  H   H34       1.0  0.42399  0.3332  0.2926  1.0000
  H   H35       1.0  0.22853  0.18292  0.18681000000000003  1.0000
  C   C67       1.0  0.67883  0.57985  0.72813  1.0000
  C   C68       1.0  0.6229300000000001  0.59476  0.7668700000000002  1.0000
  C   C69       1.0  0.6238199999999999  0.65257  0.8110200000000001  1.0000
  N   N70       1.0  0.5669399999999996  0.6677100000000001  0.85074  1.0000
  C   C70       1.0  0.6795700000000001  0.6964  0.8154200000000003  1.0000
  C   C71       1.0  0.7361899999999996  0.6819800000000003  0.77694  1.0000
  C   C72       1.0  0.7864400000000001  0.7340000000000002  0.7781700000000001  1.0000
  C   C73       1.0  0.8849299999999996  0.71199  0.7956000000000002  1.0000
  C   C74       1.0  0.9127799999999997  0.77446  0.8086500000000001  1.0000
  C   C75       1.0  0.8347200000000001  0.84289  0.80005  1.0000
  S   S6        1.0  0.7266  0.8309500000000001  0.77275  1.0000
  C   C76       1.0  0.7372599999999998  0.6225200000000002  0.73439  1.0000
  H   H36       1.0  0.57847  0.5618  0.76241  1.0000
  H   H37       1.0  0.52625  0.63473  0.8486000000000001  1.0000
  H   H38       1.0  0.5670300000000003  0.71068  0.8838100000000001  1.0000
  H   H39       1.0  0.6783699999999996  0.7421100000000002  0.84873  1.0000
  H   H40       1.0  0.9347600000000001  0.6531099999999999  0.8039800000000001  1.0000
  H   H41       1.0  0.9866699999999997  0.76957  0.8301900000000001  1.0000
  H   H42       1.0  0.7785799999999999  0.61317  0.7034  1.0000
  C   C77       1.0  0.22521999999999995  0.76686  0.89108  1.0000
  C   C78       1.0  0.21367  0.6988  0.8984300000000002  1.0000
  C   C79       1.0  0.24672  0.63452  0.86394  1.0000
  N   N71       1.0  0.23703  0.5642900000000001  0.8725800000000001  1.0000
  C   C80       1.0  0.2888799999999999  0.6392000000000002  0.8205900000000003  1.0000
  C   C81       1.0  0.29788  0.70817  0.81042  1.0000
  C   C82       1.0  0.33205  0.7147300000000001  0.7584400000000001  1.0000
  C   C83       1.0  0.3324799999999998  0.78191  0.73877  1.0000
  C   C84       1.0  0.35020000000000007  0.77379  0.68296  1.0000
  C   C85       1.0  0.36465  0.70061  0.6611  1.0000
  S   S7        1.0  0.35924  0.64041  0.70927  1.0000
  C   C86       1.0  0.26757999999999976  0.7712200000000002  0.84748  1.0000
  H   H43       1.0  0.18073999999999998  0.69525  0.9317500000000001  1.0000
  H   H44       1.0  0.20473  0.56018  0.9040900000000002  1.0000
  H   H45       1.0  0.26285  0.51546  0.84793  1.0000
  H   H46       1.0  0.31249000000000005  0.58878  0.7941000000000001  1.0000
  H   H47       1.0  0.31503  0.83647  0.76143  1.0000
  H   H48       1.0  0.34632000000000007  0.82066  0.65744  1.0000
  H   H49       1.0  0.27354000000000006  0.82499  0.8415600000000001  1.0000
  C   C87       1.0  0.27266  0.3986700000000001  0.67366  1.0000
  C   C88       1.0  0.37295  0.37567000000000006  0.69441  1.0000
  C   C89       1.0  0.4309400000000001  0.30839  0.7305800000000001  1.0000
  N   N72       1.0  0.5328099999999998  0.28646  0.75345  1.0000
  C   C90       1.0  0.38847999999999994  0.26415  0.74615  1.0000
  C   C91       1.0  0.28806  0.28822  0.72796  1.0000
  C   C92       1.0  0.24564999999999998  0.24725000000000003  0.75365  1.0000
  C   C93       1.0  0.16766999999999999  0.28452  0.77365  1.0000
  C   C94       1.0  0.1569099999999999  0.23702000000000004  0.80939  1.0000
  C   C95       1.0  0.2250299999999999  0.16406  0.81418  1.0000
  S   S8        1.0  0.30223  0.15182  0.77462  1.0000
  C   C96       1.0  0.23018  0.35541  0.69085  1.0000
  H   H50       1.0  0.40617999999999993  0.40960000000000013  0.68193  1.0000
  H   H51       1.0  0.5630000000000001  0.32682  0.7541100000000001  1.0000
  H   H52       1.0  0.57785  0.23227  0.7738600000000001  1.0000
  H   H53       1.0  0.43441  0.21314  0.7753500000000001  1.0000
  H   H54       1.0  0.12430000000000006  0.34504  0.7662800000000001  1.0000
  H   H55       1.0  0.10368  0.25556  0.8326400000000002  1.0000
  H   H56       1.0  0.15259999999999999  0.37421  0.6755  1.0000
