data_image0
_chemical_formula_structural       Mn5CN8C2N8CN16Cl2C4Mn5CN8C2N8CN16Cl2C6FCFC7N2C3FCFH4C2FCFC7N2C3FCFH4C2FCFC7N2C3FCFH4C2FCFC7N2C3FCFH4C2FCFC7N2C3FCFH4C2FCFC7N2C3FCFH4C2FCFC7N2C3FCFH4C2FCFC7N2C3FCFH4
_chemical_formula_sum              "Mn10 C128 N80 Cl4 F32 H32"
_cell_length_a       16.5227
_cell_length_b       20.9304
_cell_length_c       24.5546
_cell_angle_alpha    94.35369999999999
_cell_angle_beta     110.2934
_cell_angle_gamma    67.2722

_symmetry_space_group_name_H-M    'P 1'
_symmetry_Int_Tables_number       1

loop_
  _symmetry_equiv_pos_as_xyz
  'x,y,z'

loop_
  _atom_site_type_symbol
  _atom_site_label
  _atom_site_symmetry_multiplicity
  _atom_site_fract_x
  _atom_site_fract_y
  _atom_site_fract_z
  _atom_site_occupancy
  Mn  Mn1       1.0  0.80107  0.82233  0.01072  1.0000
  Mn  Mn2       1.0  0.7772900000000001  0.98564  0.9726700000000001  1.0000
  Mn  Mn3       1.0  0.15975999999999999  0.20211999999999997  0.9972700000000001  1.0000
  Mn  Mn4       1.0  0.21559000000000006  0.028320000000000012  0.028589999999999897  1.0000
  Mn  Mn5       1.0  0.002990000000000001  0.9976400000000001  0.00109  1.0000
  C   C1        1.0  0.72775  0.91093  0.10016000000000001  1.0000
  N   N1        1.0  0.7433100000000001  0.90681  0.04990000000000001  1.0000
  N   N2        1.0  0.73584  0.96937  0.03718  1.0000
  N   N3        1.0  0.7162299999999999  0.010820000000000052  0.07811  1.0000
  N   N4        1.0  0.7101300000000001  0.97574  0.11838000000000001  1.0000
  N   N5        1.0  0.75854  0.10752  0.03737  1.0000
  N   N6        1.0  0.81064  0.06243  0.010950000000000001  1.0000
  N   N7        1.0  0.8930400000000002  0.06614  0.025640000000000003  1.0000
  N   N8        1.0  0.8968  0.11433  0.06425  1.0000
  C   C2        1.0  0.81246  0.13913  0.07162  1.0000
  C   C3        1.0  0.8619600000000002  0.9391300000000001  0.84335  1.0000
  N   N9        1.0  0.8225699999999999  0.99763  0.91047  1.0000
  N   N10       1.0  0.7894000000000001  0.97186  0.8611700000000001  1.0000
  N   N11       1.0  0.9888899999999999  0.91554  0.03322  1.0000
  N   N12       1.0  0.90468  0.91271  0.01641  1.0000
  N   N13       1.0  0.9110400000000004  0.8511  0.03086  1.0000
  N   N14       1.0  0.9982900000000001  0.81156  0.05891000000000001  1.0000
  N   N15       1.0  0.9112900000000002  0.98676  0.92114  1.0000
  N   N16       1.0  0.93834  0.94884  0.88011  1.0000
  C   C4        1.0  0.047200000000000054  0.8509599999999999  0.06028  1.0000
  N   N17       1.0  0.22291  0.12585  0.95323  1.0000
  N   N18       1.0  0.24359000000000008  0.059530000000000007  0.9634500000000001  1.0000
  N   N19       1.0  0.28028000000000014  0.022769999999999978  0.9255000000000002  1.0000
  N   N20       1.0  0.28399000000000013  0.06559000000000001  0.88987  1.0000
  N   N21       1.0  0.24074999999999994  0.91193  0.95569  1.0000
  N   N22       1.0  0.1893300000000001  0.94961  0.98586  1.0000
  N   N23       1.0  0.11572000000000014  0.93373  0.9768100000000002  1.0000
  N   N24       1.0  0.1171500000000001  0.8854200000000001  0.9381900000000001  1.0000
  N   N25       1.0  0.06937000000000004  0.04175999999999999  0.12513000000000002  1.0000
  N   N26       1.0  0.09535000000000005  0.00853  0.08191000000000001  1.0000
  N   N27       1.0  0.18226  0.002149999999999999  0.09162  1.0000
  N   N28       1.0  0.21619  0.024579999999999998  0.14266  1.0000
  N   N29       1.0  0.011130000000000296  0.07878999999999999  0.9667100000000001  1.0000
  N   N30       1.0  0.08302000000000015  0.09612999999999998  0.9924200000000001  1.0000
  N   N31       1.0  0.062040000000000074  0.16088999999999998  0.9767800000000001  1.0000
  N   N32       1.0  0.97787  0.18623999999999996  0.9368000000000001  1.0000
  Cl  Cl1       1.0  0.73916  0.89529  0.93077  1.0000
  Cl  Cl2       1.0  0.24201000000000006  0.12121  0.07376999999999989  1.0000
  C   C5        1.0  0.24853999999999998  0.12966  0.90822  1.0000
  C   C6        1.0  0.19595000000000007  0.87214  0.9257100000000001  1.0000
  C   C7        1.0  0.14534  0.05133  0.16294  1.0000
  C   C8        1.0  0.9455500000000002  0.13458000000000003  0.93024  1.0000
  Mn  Mn6       1.0  0.34354000000000007  0.36315  0.62362  1.0000
  Mn  Mn7       1.0  0.29292999999999997  0.49307  0.52507  1.0000
  Mn  Mn8       1.0  0.6413800000000001  0.6648  0.4135600000000001  1.0000
  Mn  Mn9       1.0  0.7051199999999999  0.51332  0.49213  1.0000
  Mn  Mn10      1.0  0.50169  0.49516  0.50567  1.0000
  C   C9        1.0  0.25231000000000003  0.49398  0.67908  1.0000
  N   N33       1.0  0.28581000000000006  0.46389  0.6372700000000001  1.0000
  N   N34       1.0  0.26385999999999993  0.51434  0.59964  1.0000
  N   N35       1.0  0.21636999999999998  0.57438  0.61659  1.0000
  N   N36       1.0  0.20789000000000002  0.5633  0.66659  1.0000
  N   N37       1.0  0.27406  0.63277  0.54808  1.0000
  N   N38       1.0  0.3197600000000001  0.57707  0.5261700000000001  1.0000
  N   N39       1.0  0.40159000000000006  0.57613  0.52974  1.0000
  N   N40       1.0  0.4127700000000001  0.6310299999999999  0.5572400000000001  1.0000
  C   C10       1.0  0.3318900000000002  0.66623  0.56779  1.0000
  C   C11       1.0  0.31868  0.4292  0.37235  1.0000
  N   N41       1.0  0.32221  0.471  0.45291  1.0000
  N   N42       1.0  0.27146000000000003  0.44703999999999994  0.40928  1.0000
  N   N43       1.0  0.50638  0.42789  0.56579  1.0000
  N   N44       1.0  0.4274900000000002  0.43423  0.5731  1.0000
  N   N45       1.0  0.44407000000000024  0.38622  0.61176  1.0000
  N   N46       1.0  0.53327  0.34704  0.63197  1.0000
  N   N47       1.0  0.39760999999999996  0.46924  0.44414  1.0000
  N   N48       1.0  0.3983999999999999  0.44184  0.39369000000000004  1.0000
  C   C12       1.0  0.57315  0.372  0.60378  1.0000
  N   N49       1.0  0.6947100000000002  0.56948  0.3840700000000001  1.0000
  N   N50       1.0  0.7237800000000001  0.51152  0.41558000000000006  1.0000
  N   N51       1.0  0.76752  0.45763  0.39066  1.0000
  N   N52       1.0  0.7665200000000001  0.47997  0.3413300000000001  1.0000
  N   N53       1.0  0.7232700000000003  0.37703  0.4509500000000001  1.0000
  N   N54       1.0  0.6790800000000004  0.42599999999999993  0.4791800000000001  1.0000
  N   N55       1.0  0.6037400000000002  0.41799  0.47994  1.0000
  N   N56       1.0  0.59499  0.36465000000000003  0.44848  1.0000
  N   N57       1.0  0.5941099999999999  0.55297  0.61836  1.0000
  N   N58       1.0  0.6022100000000001  0.52286  0.5696  1.0000
  N   N59       1.0  0.6798700000000004  0.52137  0.56442  1.0000
  N   N60       1.0  0.7247900000000003  0.54853  0.60834  1.0000
  N   N61       1.0  0.49705000000000016  0.56111  0.44569  1.0000
  N   N62       1.0  0.5711500000000003  0.57522  0.45335  1.0000
  N   N63       1.0  0.5469799999999999  0.63494  0.42626  1.0000
  N   N64       1.0  0.45658000000000015  0.6606  0.3976700000000001  1.0000
  Cl  Cl3       1.0  0.2652399999999999  0.39538  0.52718  1.0000
  Cl  Cl4       1.0  0.73311  0.61269  0.50373  1.0000
  C   C13       1.0  0.7195100000000001  0.54959  0.33691  1.0000
  C   C14       1.0  0.6712400000000003  0.33904  0.43128000000000005  1.0000
  C   C15       1.0  0.6720500000000003  0.56762  0.6419900000000001  1.0000
  C   C16       1.0  0.42534000000000005  0.61238  0.40648  1.0000
  C   C17       1.0  0.88252  0.12953000000000006  0.87172  1.0000
  C   C18       1.0  0.92335  0.09726  0.82984  1.0000
  F   F1        1.0  0.013130000000000044  0.050499999999999996  0.84704  1.0000
  C   C19       1.0  0.8779299999999999  0.12122  0.77098  1.0000
  F   F2        1.0  0.92446  0.09717000000000002  0.73297  1.0000
  C   C20       1.0  0.79094  0.17695999999999998  0.75332  1.0000
  C   C21       1.0  0.7640099999999999  0.22331000000000004  0.70159  1.0000
  C   C22       1.0  0.7209900000000001  0.20809  0.6447300000000001  1.0000
  C   C23       1.0  0.6819800000000001  0.25881  0.59818  1.0000
  C   C24       1.0  0.6718499999999998  0.32821  0.60973  1.0000
  C   C25       1.0  0.73907  0.3352299999999999  0.6617400000000001  1.0000
  C   C26       1.0  0.76422  0.39205  0.66827  1.0000
  N   N65       1.0  0.8239400000000003  0.40079999999999993  0.71961  1.0000
  N   N66       1.0  0.8602299999999999  0.35546000000000005  0.76524  1.0000
  C   C27       1.0  0.8407799999999999  0.29772  0.7617400000000001  1.0000
  C   C28       1.0  0.7812900000000003  0.28492  0.7089600000000003  1.0000
  C   C29       1.0  0.7441600000000002  0.20138000000000003  0.79357  1.0000
  F   F3        1.0  0.65942  0.25486  0.77733  1.0000
  C   C30       1.0  0.7900000000000003  0.17812000000000003  0.8525  1.0000
  F   F4        1.0  0.7487700000000002  0.20977999999999997  0.8917700000000001  1.0000
  H   H1        1.0  0.7117700000000001  0.15934000000000004  0.63685  1.0000
  H   H2        1.0  0.6399400000000003  0.24816  0.5564600000000001  1.0000
  H   H3        1.0  0.7409000000000003  0.42638  0.63176  1.0000
  H   H4        1.0  0.8739600000000003  0.26170000000000004  0.79958  1.0000
  C   C31       1.0  0.79252  0.17303  0.12394  1.0000
  C   C32       1.0  0.71789  0.16889  0.13722  1.0000
  F   F5        1.0  0.6531800000000002  0.14774  0.0985  1.0000
  C   C33       1.0  0.7074500000000001  0.18702  0.19069000000000003  1.0000
  F   F6        1.0  0.63941  0.17653  0.20319  1.0000
  C   C34       1.0  0.76268  0.21876  0.22983  1.0000
  C   C35       1.0  0.7366600000000003  0.2493  0.28125  1.0000
  C   C36       1.0  0.8003500000000002  0.22564  0.33765  1.0000
  C   C37       1.0  0.7747900000000002  0.25  0.3864600000000001  1.0000
  C   C38       1.0  0.6831500000000003  0.29583  0.38081  1.0000
  C   C39       1.0  0.61664  0.316  0.32357  1.0000
  C   C40       1.0  0.52271  0.35645  0.31362  1.0000
  N   N67       1.0  0.4619500000000001  0.38087  0.2591  1.0000
  N   N68       1.0  0.48967000000000005  0.36743  0.21325000000000002  1.0000
  C   C41       1.0  0.57915  0.32674  0.21904000000000004  1.0000
  C   C42       1.0  0.6446300000000004  0.29678  0.27428  1.0000
  C   C43       1.0  0.83522  0.22599999999999998  0.21651  1.0000
  F   F7        1.0  0.88946  0.25709000000000004  0.25334  1.0000
  C   C44       1.0  0.85085  0.20229999999999998  0.16427  1.0000
  F   F8        1.0  0.9206  0.21014000000000002  0.15232  1.0000
  H   H5        1.0  0.8707600000000001  0.18899  0.34388  1.0000
  H   H6        1.0  0.8283400000000001  0.23496  0.4291900000000001  1.0000
  H   H7        1.0  0.49743  0.36723999999999996  0.34870000000000007  1.0000
  H   H8        1.0  0.59817  0.31815  0.18046  1.0000
  C   C45       1.0  0.7317500000000002  0.8521800000000002  0.13103  1.0000
  C   C46       1.0  0.7849399999999997  0.8359100000000002  0.19031  1.0000
  F   F9        1.0  0.8340900000000001  0.8742600000000001  0.22018  1.0000
  C   C47       1.0  0.78822  0.77944  0.21897  1.0000
  F   F10       1.0  0.8409100000000002  0.76377  0.27628  1.0000
  C   C48       1.0  0.73552  0.74037  0.18909  1.0000
  C   C49       1.0  0.7263300000000001  0.6889  0.22184  1.0000
  C   C50       1.0  0.6917899999999999  0.71298  0.26716  1.0000
  C   C51       1.0  0.6836500000000001  0.668  0.30149  1.0000
  C   C52       1.0  0.7080800000000003  0.59748  0.29099  1.0000
  C   C53       1.0  0.7299800000000003  0.5742  0.24001  1.0000
  C   C54       1.0  0.73658  0.50818  0.21971000000000002  1.0000
  N   N69       1.0  0.7641099999999998  0.4869800000000001  0.17316  1.0000
  N   N70       1.0  0.78509  0.52723  0.14538  1.0000
  C   C55       1.0  0.7768799999999999  0.59236  0.16103000000000003  1.0000
  C   C56       1.0  0.7444400000000003  0.61912  0.2072  1.0000
  C   C57       1.0  0.6814100000000001  0.75751  0.12993  1.0000
  F   F11       1.0  0.6253300000000004  0.72349  0.10115  1.0000
  C   C58       1.0  0.6812700000000002  0.8120999999999999  0.10076  1.0000
  F   F12       1.0  0.62739  0.8284499999999999  0.04370000000000001  1.0000
  H   H9        1.0  0.6728200000000003  0.76713  0.27688  1.0000
  H   H10       1.0  0.6608299999999999  0.68884  0.33753  1.0000
  H   H11       1.0  0.71681  0.47412  0.23862  1.0000
  H   H12       1.0  0.7951700000000004  0.62261  0.13696  1.0000
  C   C59       1.0  0.14722  0.8231400000000001  0.09601000000000001  1.0000
  C   C60       1.0  0.17072999999999997  0.843  0.15356  1.0000
  F   F13       1.0  0.12277999999999994  0.9077800000000001  0.16589  1.0000
  C   C61       1.0  0.22905000000000006  0.79292  0.20008  1.0000
  F   F14       1.0  0.24689  0.8135600000000001  0.25531  1.0000
  C   C62       1.0  0.25885  0.72161  0.19028000000000006  1.0000
  C   C63       1.0  0.29314  0.66941  0.24008  1.0000
  C   C64       1.0  0.23843999999999999  0.6809  0.27566  1.0000
  C   C65       1.0  0.27468  0.64499  0.33  1.0000
  C   C66       1.0  0.36695  0.59673  0.35037  1.0000
  C   C67       1.0  0.41271000000000013  0.57196  0.30885000000000007  1.0000
  C   C68       1.0  0.49902999999999986  0.51531  0.32335  1.0000
  N   N71       1.0  0.54847  0.49929  0.28678  1.0000
  N   N72       1.0  0.5190799999999997  0.53767  0.23774  1.0000
  C   C69       1.0  0.4374900000000001  0.59395  0.22147  1.0000
  C   C70       1.0  0.37962000000000024  0.61148  0.25541  1.0000
  C   C71       1.0  0.24358000000000007  0.70268  0.13245  1.0000
  F   F15       1.0  0.26366000000000017  0.63518  0.11999000000000003  1.0000
  C   C72       1.0  0.19559999999999997  0.75378  0.08616  1.0000
  F   F16       1.0  0.17569999999999994  0.73301  0.03099  1.0000
  H   H13       1.0  0.17024000000000006  0.7227  0.26385  1.0000
  H   H14       1.0  0.23646  0.66369  0.35981  1.0000
  H   H15       1.0  0.5272500000000001  0.48358  0.36338  1.0000
  H   H16       1.0  0.41963000000000006  0.62452  0.18256  1.0000
  C   C73       1.0  0.13901  0.11567  0.19367  1.0000
  C   C74       1.0  0.18857  0.11259  0.25345  1.0000
  F   F17       1.0  0.22070000000000006  0.05323  0.28687  1.0000
  C   C75       1.0  0.21014000000000008  0.16932  0.27848  1.0000
  F   F18       1.0  0.25636999999999993  0.16532  0.33666  1.0000
  C   C76       1.0  0.18792  0.22838000000000003  0.24339000000000002  1.0000
  C   C77       1.0  0.22164  0.2849  0.26841  1.0000
  C   C78       1.0  0.3172500000000001  0.26628  0.30052  1.0000
  C   C79       1.0  0.3520600000000002  0.31549  0.32909000000000005  1.0000
  C   C80       1.0  0.29339  0.3858  0.32402  1.0000
  C   C81       1.0  0.19885000000000008  0.40681  0.28681  1.0000
  C   C82       1.0  0.13849000000000006  0.47729000000000005  0.27734000000000003  1.0000
  N   N73       1.0  0.046360000000000026  0.49576  0.24618  1.0000
  N   N74       1.0  0.010430000000000009  0.44837999999999995  0.22451000000000002  1.0000
  C   C83       1.0  0.06441999999999999  0.3796  0.23147  1.0000
  C   C84       1.0  0.16162999999999997  0.3564  0.26101  1.0000
  C   C85       1.0  0.13897000000000012  0.23077  0.18350000000000002  1.0000
  F   F19       1.0  0.12322000000000002  0.28355  0.14732  1.0000
  C   C86       1.0  0.11089000000000002  0.17674  0.15961000000000003  1.0000
  F   F20       1.0  0.06364  0.18126  0.10153000000000001  1.0000
  H   H17       1.0  0.36468  0.21238  0.30608  1.0000
  H   H18       1.0  0.42333000000000004  0.29730999999999996  0.3592300000000001  1.0000
  H   H19       1.0  0.16384  0.51784  0.29467  1.0000
  H   H20       1.0  0.03017999999999999  0.34395  0.21445  1.0000
  C   C87       1.0  0.6935099999999998  0.61145  0.69024  1.0000
  C   C88       1.0  0.78893  0.59405  0.7226000000000001  1.0000
  F   F21       1.0  0.85261  0.52938  0.7222300000000001  1.0000
  C   C89       1.0  0.8215499999999999  0.64468  0.74916  1.0000
  F   F22       1.0  0.9153999999999999  0.62763  0.7724  1.0000
  C   C90       1.0  0.75875  0.71312  0.74833  1.0000
  C   C91       1.0  0.79531  0.7676899999999999  0.77328  1.0000
  C   C92       1.0  0.77028  0.8264  0.73747  1.0000
  C   C93       1.0  0.8035500000000001  0.87862  0.75881  1.0000
  C   C94       1.0  0.8649400000000005  0.87315  0.81602  1.0000
  C   C95       1.0  0.8959600000000001  0.81169  0.85179  1.0000
  C   C96       1.0  0.9597399999999999  0.80116  0.90925  1.0000
  N   N75       1.0  0.98158  0.74485  0.94345  1.0000
  N   N76       1.0  0.9423800000000004  0.69883  0.9249500000000003  1.0000
  C   C97       1.0  0.8803100000000001  0.70531  0.87044  1.0000
  C   C98       1.0  0.8579100000000003  0.76054  0.8311900000000001  1.0000
  C   C99       1.0  0.6622000000000001  0.72952  0.72075  1.0000
  F   F23       1.0  0.6000000000000001  0.7951199999999999  0.72017  1.0000
  C   C100      1.0  0.62975  0.67951  0.69042  1.0000
  F   F24       1.0  0.5384600000000002  0.69988  0.6560100000000001  1.0000
  H   H21       1.0  0.7221400000000004  0.83301  0.69307  1.0000
  H   H22       1.0  0.77648  0.9257699999999999  0.73157  1.0000
  H   H23       1.0  0.9930200000000001  0.8365400000000001  0.9277700000000002  1.0000
  H   H24       1.0  0.84845  0.66751  0.8587900000000002  1.0000
  C   C101      1.0  0.21980999999999992  0.8353300000000001  0.8754200000000001  1.0000
  C   C102      1.0  0.30437000000000003  0.8286299999999999  0.86872  1.0000
  F   F25       1.0  0.3700800000000001  0.8452800000000001  0.9113900000000001  1.0000
  C   C103      1.0  0.3218700000000001  0.80649  0.8173500000000001  1.0000
  F   F26       1.0  0.40178000000000014  0.8043400000000002  0.8117  1.0000
  C   C104      1.0  0.25702000000000014  0.7885199999999999  0.77161  1.0000
  C   C105      1.0  0.27793000000000007  0.76475  0.71728  1.0000
  C   C106      1.0  0.35990000000000016  0.70658  0.72212  1.0000
  C   C107      1.0  0.3820300000000002  0.67983  0.67304  1.0000
  C   C108      1.0  0.3229600000000002  0.71027  0.61714  1.0000
  C   C109      1.0  0.24125000000000016  0.77048  0.6113100000000001  1.0000
  C   C110      1.0  0.17942999999999998  0.80334  0.55645  1.0000
  N   N77       1.0  0.10240000000000006  0.86132  0.55235  1.0000
  N   N78       1.0  0.08301000000000003  0.8884599999999999  0.59935  1.0000
  C   C111      1.0  0.13889000000000007  0.85922  0.65368  1.0000
  C   C112      1.0  0.21935999999999992  0.7984600000000001  0.66143  1.0000
  C   C113      1.0  0.17512999999999998  0.7909200000000001  0.7792000000000001  1.0000
  F   F27       1.0  0.11286  0.7709700000000002  0.7367  1.0000
  C   C114      1.0  0.1561299999999999  0.8149200000000002  0.83033  1.0000
  F   F28       1.0  0.07429000000000001  0.82018  0.83467  1.0000
  H   H25       1.0  0.4053800000000001  0.67992  0.7643  1.0000
  H   H26       1.0  0.44232  0.63179  0.67855  1.0000
  H   H27       1.0  0.19226000000000001  0.78392  0.51689  1.0000
  H   H28       1.0  0.11992000000000007  0.8838899999999998  0.6902  1.0000
  C   C115      1.0  0.25359999999999994  0.45433000000000007  0.72635  1.0000
  C   C116      1.0  0.17825  0.47673  0.74701  1.0000
  F   F29       1.0  0.10930000000000002  0.54067  0.7304700000000001  1.0000
  C   C117      1.0  0.17107000000000003  0.43131  0.78236  1.0000
  F   F30       1.0  0.09586999999999998  0.45167000000000007  0.79987  1.0000
  C   C118      1.0  0.23973000000000005  0.36404000000000003  0.79764  1.0000
  C   C119      1.0  0.22864000000000007  0.31254  0.8285400000000002  1.0000
  C   C120      1.0  0.19433000000000003  0.26526  0.7954  1.0000
  C   C121      1.0  0.20052000000000014  0.20653999999999995  0.8221300000000002  1.0000
  C   C122      1.0  0.23896000000000014  0.19477999999999998  0.8828000000000003  1.0000
  C   C123      1.0  0.26807  0.24501000000000003  0.91741  1.0000
  C   C124      1.0  0.3054299999999999  0.23752000000000004  0.97869  1.0000
  N   N79       1.0  0.33526999999999996  0.28575  0.00934999999999997  1.0000
  N   N80       1.0  0.33109  0.34086999999999995  0.9831  1.0000
  C   C125      1.0  0.29677000000000014  0.3514  0.9243400000000003  1.0000
  C   C126      1.0  0.2636500000000001  0.30383  0.88977  1.0000
  C   C127      1.0  0.31861000000000006  0.34377  0.78118  1.0000
  F   F31       1.0  0.3868500000000001  0.27932  0.79764  1.0000
  C   C128      1.0  0.3258700000000001  0.3887  0.7459700000000001  1.0000
  F   F32       1.0  0.40287999999999996  0.36741  0.7302300000000002  1.0000
  H   H29       1.0  0.16619999999999996  0.2726  0.74833  1.0000
  H   H30       1.0  0.17604999999999998  0.16969000000000004  0.79512  1.0000
  H   H31       1.0  0.31238000000000016  0.19389  0.002960000000000296  1.0000
  H   H32       1.0  0.2955600000000005  0.39682999999999996  0.9051500000000002  1.0000
