data_image0
_chemical_formula_structural       Mn5CN8C2N8CN16Cl2C4Mn5CN8C2N8CN16Cl2C8O2C6OCH6C4O2C6OCH6C4O2C6OCH6C4O2C6OCH6C4O2C6OCH6C4O2C6OCH6C4O2C6OCH6C4O2C6OCH6
_chemical_formula_sum              "Mn10 C104 N64 Cl4 O24 H48"
_cell_length_a       16.6908
_cell_length_b       18.590300000000003
_cell_length_c       21.325900000000004
_cell_angle_alpha    96.3174
_cell_angle_beta     108.8912
_cell_angle_gamma    69.4565

_space_group_name_H-M_alt    "P 1"
_space_group_IT_number       1

loop_
  _space_group_symop_operation_xyz
  'x, y, z'

loop_
  _atom_site_type_symbol
  _atom_site_label
  _atom_site_symmetry_multiplicity
  _atom_site_fract_x
  _atom_site_fract_y
  _atom_site_fract_z
  _atom_site_occupancy
  Mn  Mn1       1.0  0.9033999999999999  0.7322  0.98442  1.0000
  Mn  Mn2       1.0  0.8246400000000002  0.9294  0.99901  1.0000
  Mn  Mn3       1.0  0.0764999999999999  0.28754000000000013  0.98497  1.0000
  Mn  Mn4       1.0  0.16243  0.09065  0.99855  1.0000
  Mn  Mn5       1.0  0.9968100000000001  0.0076700000000000015  0.0025600000000000006  1.0000
  C   C1        1.0  0.84036  0.75541  0.10677000000000002  1.0000
  N   N1        1.0  0.8614099999999999  0.78436  0.06189  1.0000
  N   N2        1.0  0.83451  0.85963  0.07013  1.0000
  N   N3        1.0  0.7983800000000001  0.87749  0.11898000000000002  1.0000
  N   N4        1.0  0.8016299999999998  0.8132  0.1433  1.0000
  N   N5        1.0  0.80503  0.04932  0.09939000000000002  1.0000
  N   N6        1.0  0.85617  0.01016  0.06283  1.0000
  N   N7        1.0  0.90784  0.0477  0.05709  1.0000
  N   N8        1.0  0.89213  0.11306  0.09071  1.0000
  C   C2        1.0  0.8289  0.11232000000000003  0.11756  1.0000
  C   C3        1.0  0.8205299999999999  0.96386  0.82819  1.0000
  N   N9        1.0  0.81851  0.9924100000000001  0.92631  1.0000
  N   N10       1.0  0.7678600000000002  0.9803000000000001  0.8673500000000001  1.0000
  N   N11       1.0  0.020999999999999987  0.8984200000000001  0.0315  1.0000
  N   N12       1.0  0.9542900000000001  0.87086  0.00904  1.0000
  N   N13       1.0  0.9848499999999999  0.79555  0.00603  1.0000
  N   N14       1.0  0.07308000000000008  0.77046  0.030250000000000003  1.0000
  N   N15       1.0  0.8954800000000002  0.99278  0.9220600000000001  1.0000
  N   N16       1.0  0.9019700000000002  0.9687900000000002  0.8624200000000001  1.0000
  C   C4        1.0  0.09617999999999997  0.83478  0.04626  1.0000
  N   N17       1.0  0.11864000000000004  0.22028  0.9131000000000001  1.0000
  N   N18       1.0  0.14959  0.14485  0.91733  1.0000
  N   N19       1.0  0.17718  0.11466000000000004  0.86577  1.0000
  N   N20       1.0  0.16562999999999997  0.17112000000000005  0.82716  1.0000
  N   N21       1.0  0.18325  0.9627800000000001  0.9024799999999998  1.0000
  N   N22       1.0  0.13860999999999998  0.0011399999999999189  0.94382  1.0000
  N   N23       1.0  0.08437000000000007  0.96677  0.9497  1.0000
  N   N24       1.0  0.09116000000000002  0.9051500000000002  0.9121900000000001  1.0000
  N   N25       1.0  0.10594999999999999  0.02464  0.14786  1.0000
  N   N26       1.0  0.10022000000000002  0.0226  0.08388000000000001  1.0000
  N   N27       1.0  0.16713  0.04116  0.07769  1.0000
  N   N28       1.0  0.21835  0.0541  0.13559  1.0000
  N   N29       1.0  0.97067  0.11655999999999997  0.9689900000000001  1.0000
  N   N30       1.0  0.03308999999999996  0.14872  0.9906  1.0000
  N   N31       1.0  0.9984099999999999  0.22273000000000007  0.97715  1.0000
  N   N32       1.0  0.9149099999999999  0.23875000000000002  0.9381800000000001  1.0000
  Cl  Cl1       1.0  0.7943799999999999  0.83535  0.92694  1.0000
  Cl  Cl2       1.0  0.18661999999999992  0.19519000000000006  0.056559999999999944  1.0000
  C   C5        1.0  0.1288900000000001  0.23657000000000003  0.8572000000000001  1.0000
  C   C6        1.0  0.15201999999999996  0.90369  0.88261  1.0000
  C   C7        1.0  0.18087  0.04403  0.17908  1.0000
  C   C8        1.0  0.89922  0.17087  0.92809  1.0000
  Mn  Mn6       1.0  0.26245  0.37137  0.56435  1.0000
  Mn  Mn7       1.0  0.26205  0.5094700000000002  0.46842  1.0000
  Mn  Mn8       1.0  0.71164  0.6313300000000002  0.3949  1.0000
  Mn  Mn9       1.0  0.71626  0.50281  0.50119  1.0000
  Mn  Mn10      1.0  0.4908699999999999  0.50507  0.49037  1.0000
  C   C9        1.0  0.19088  0.52117  0.63299  1.0000
  N   N33       1.0  0.20871999999999996  0.4844200000000001  0.5792  1.0000
  N   N34       1.0  0.20095999999999997  0.53799  0.53993  1.0000
  N   N35       1.0  0.17288999999999996  0.6063800000000003  0.5661800000000001  1.0000
  N   N36       1.0  0.16638  0.59776  0.62496  1.0000
  N   N37       1.0  0.25289  0.66548  0.50875  1.0000
  N   N38       1.0  0.3007799999999998  0.6021400000000002  0.48536  1.0000
  N   N39       1.0  0.38484999999999997  0.60031  0.50046  1.0000
  N   N40       1.0  0.39337999999999995  0.6612800000000002  0.53693  1.0000
  C   C10       1.0  0.31030999999999986  0.7023900000000002  0.54067  1.0000
  C   C11       1.0  0.37223  0.3764000000000001  0.34482  1.0000
  N   N41       1.0  0.32187999999999994  0.47581000000000007  0.39835  1.0000
  N   N42       1.0  0.29744  0.4235  0.35708  1.0000
  N   N43       1.0  0.46165999999999996  0.4445300000000001  0.5508000000000001  1.0000
  N   N44       1.0  0.37722  0.44623000000000007  0.53726  1.0000
  N   N45       1.0  0.37434  0.3939800000000001  0.57273  1.0000
  N   N46       1.0  0.45451  0.35745  0.61193  1.0000
  N   N47       1.0  0.4081500000000001  0.4647  0.40929000000000004  1.0000
  N   N48       1.0  0.44089  0.40282  0.37582  1.0000
  C   C12       1.0  0.5095400000000001  0.38822  0.5990700000000001  1.0000
  N   N49       1.0  0.76665  0.51742  0.38477  1.0000
  N   N50       1.0  0.77305  0.4675500000000001  0.42708000000000007  1.0000
  N   N51       1.0  0.7946599999999999  0.39758  0.40218000000000004  1.0000
  N   N52       1.0  0.79943  0.40116000000000007  0.34191  1.0000
  N   N53       1.0  0.72987  0.34284  0.47584000000000004  1.0000
  N   N54       1.0  0.67961  0.41009  0.4914200000000001  1.0000
  N   N55       1.0  0.59815  0.40985  0.48346000000000006  1.0000
  N   N56       1.0  0.5942  0.3410700000000001  0.46183  1.0000
  N   N57       1.0  0.55256  0.5899200000000002  0.61778  1.0000
  N   N58       1.0  0.57613  0.54421  0.56975  1.0000
  N   N59       1.0  0.65742  0.54154  0.57187  1.0000
  N   N60       1.0  0.68838  0.58436  0.62017  1.0000
  N   N61       1.0  0.51743  0.566  0.42787  1.0000
  N   N62       1.0  0.6008400000000002  0.5614  0.43402  1.0000
  N   N63       1.0  0.60107  0.60938  0.39303  1.0000
  N   N64       1.0  0.51896  0.64624  0.35704  1.0000
  Cl  Cl3       1.0  0.22094  0.40265000000000006  0.45606  1.0000
  Cl  Cl4       1.0  0.75552  0.60908  0.50602  1.0000
  C   C13       1.0  0.78113  0.4762100000000001  0.33140000000000003  1.0000
  C   C14       1.0  0.67608  0.30025  0.45571000000000006  1.0000
  C   C15       1.0  0.6228  0.61503  0.6483  1.0000
  C   C16       1.0  0.4667199999999999  0.6194100000000002  0.37807  1.0000
  C   C17       1.0  0.8629499999999998  0.15523000000000006  0.85635  1.0000
  C   C18       1.0  0.92015  0.09887  0.82576  1.0000
  C   C19       1.0  0.90332  0.09645  0.75701  1.0000
  C   C20       1.0  0.9634  0.03508  0.72644  1.0000
  O   O1        1.0  0.99084  0.96932  0.74645  1.0000
  O   O2        1.0  0.98966  0.050350000000000006  0.67489  1.0000
  C   C21       1.0  0.83214  0.15503  0.71807  1.0000
  C   C22       1.0  0.77742  0.21468000000000007  0.7471  1.0000
  C   C23       1.0  0.71894  0.28332  0.70653  1.0000
  C   C24       1.0  0.75124  0.3285000000000001  0.68154  1.0000
  C   C25       1.0  0.67807  0.3760100000000001  0.63688  1.0000
  C   C26       1.0  0.6059800000000001  0.35649  0.63738  1.0000
  O   O3        1.0  0.63169  0.29942  0.67977  1.0000
  C   C27       1.0  0.79032  0.21332  0.81565  1.0000
  H   H1        1.0  0.98185  0.05926  0.85551  1.0000
  H   H2        1.0  0.9712500000000002  0.1071  0.66569  1.0000
  H   H3        1.0  0.8212  0.15620000000000006  0.66518  1.0000
  H   H4        1.0  0.82084  0.32451  0.69265  1.0000
  H   H5        1.0  0.68113  0.41681000000000007  0.6078  1.0000
  H   H6        1.0  0.75092  0.26185  0.83833  1.0000
  C   C28       1.0  0.77663  0.17781000000000005  0.14985  1.0000
  C   C29       1.0  0.72175  0.246  0.11391  1.0000
  C   C30       1.0  0.65994  0.304  0.13961  1.0000
  C   C31       1.0  0.59972  0.37442  0.10068  1.0000
  O   O4        1.0  0.6129900000000001  0.38862  0.05117  1.0000
  O   O5        1.0  0.5276000000000001  0.42493000000000003  0.12036  1.0000
  C   C32       1.0  0.65555  0.2936  0.2026  1.0000
  C   C33       1.0  0.7087300000000001  0.22519000000000006  0.23862  1.0000
  C   C34       1.0  0.70217  0.21714000000000006  0.30513  1.0000
  C   C35       1.0  0.70108  0.15247  0.33093  1.0000
  C   C36       1.0  0.69046  0.17377000000000006  0.39233  1.0000
  C   C37       1.0  0.68567  0.24956000000000003  0.39882  1.0000
  O   O6        1.0  0.69258  0.27558  0.34631  1.0000
  C   C38       1.0  0.7688  0.16722  0.21169  1.0000
  H   H7        1.0  0.7239799999999998  0.2519200000000001  0.06448  1.0000
  H   H8        1.0  0.4935800000000001  0.47256000000000037  0.0913  1.0000
  H   H9        1.0  0.60947  0.33808  0.22365  1.0000
  H   H10       1.0  0.70522  0.09732  0.30721  1.0000
  H   H11       1.0  0.68663  0.13863  0.42765  1.0000
  H   H12       1.0  0.81044  0.11428000000000002  0.2391  1.0000
  C   C39       1.0  0.84337  0.67471  0.10678  1.0000
  C   C40       1.0  0.87925  0.62129  0.06238  1.0000
  C   C41       1.0  0.8730000000000001  0.54731  0.05541  1.0000
  C   C42       1.0  0.90791  0.49257000000000006  0.006690000000000001  1.0000
  O   O7        1.0  0.9470799999999999  0.5098300000000002  0.97444  1.0000
  O   O8        1.0  0.8956000000000001  0.42119000000000006  0.9970700000000001  1.0000
  C   C43       1.0  0.8316000000000001  0.52643  0.09449  1.0000
  C   C44       1.0  0.79822  0.57802  0.14049000000000003  1.0000
  C   C45       1.0  0.7587  0.55306  0.18240000000000003  1.0000
  C   C46       1.0  0.69435  0.5182300000000001  0.15817  1.0000
  C   C47       1.0  0.69043  0.4894  0.21253  1.0000
  C   C48       1.0  0.75273  0.50838  0.26531  1.0000
  O   O9        1.0  0.7943  0.54741  0.24751  1.0000
  C   C49       1.0  0.8051299999999999  0.6516  0.14731  1.0000
  H   H13       1.0  0.9111600000000001  0.63712  0.03227  1.0000
  H   H14       1.0  0.92318  0.38895000000000013  0.96293  1.0000
  H   H15       1.0  0.82678  0.46940000000000004  0.09035  1.0000
  H   H16       1.0  0.65883  0.51125  0.10683  1.0000
  H   H17       1.0  0.6504  0.45552  0.21403000000000003  1.0000
  H   H18       1.0  0.7786099999999999  0.69116  0.1827  1.0000
  C   C50       1.0  0.17464000000000002  0.83089  0.10434  1.0000
  C   C51       1.0  0.24001999999999996  0.8612400000000002  0.10351000000000002  1.0000
  C   C52       1.0  0.3149899999999999  0.8549500000000002  0.16009  1.0000
  C   C53       1.0  0.38278000000000006  0.88976  0.16163  1.0000
  O   O10       1.0  0.3839599999999999  0.9129800000000001  0.11067  1.0000
  O   O11       1.0  0.4454099999999999  0.8964600000000001  0.22198  1.0000
  C   C54       1.0  0.3251599999999999  0.8148600000000003  0.21592000000000003  1.0000
  C   C55       1.0  0.26135  0.78213  0.21626000000000004  1.0000
  C   C56       1.0  0.27767  0.73551  0.2737  1.0000
  C   C57       1.0  0.26258999999999993  0.7680100000000001  0.33167  1.0000
  C   C58       1.0  0.32193999999999995  0.71628  0.38021  1.0000
  C   C59       1.0  0.36923  0.65476  0.34907  1.0000
  O   O12       1.0  0.3408999999999999  0.66722  0.28417  1.0000
  C   C60       1.0  0.18584999999999988  0.7911800000000002  0.1609  1.0000
  H   H19       1.0  0.23190999999999995  0.8895600000000002  0.058980000000000005  1.0000
  H   H20       1.0  0.48913000000000006  0.92038  0.21725  1.0000
  H   H21       1.0  0.38397000000000003  0.80747  0.25879  1.0000
  H   H22       1.0  0.22562999999999997  0.8275400000000002  0.33904000000000006  1.0000
  H   H23       1.0  0.34303999999999996  0.7319200000000002  0.43141  1.0000
  H   H24       1.0  0.13671000000000003  0.76579  0.16146  1.0000
  C   C61       1.0  0.21106  0.06906000000000002  0.24837000000000004  1.0000
  C   C62       1.0  0.20560000000000003  0.035600000000000014  0.3018700000000001  1.0000
  C   C63       1.0  0.24724  0.05434  0.36754  1.0000
  C   C64       1.0  0.24392999999999995  0.017850000000000144  0.42460000000000003  1.0000
  O   O13       1.0  0.20395000000000002  0.9719600000000002  0.41535  1.0000
  O   O14       1.0  0.28649000000000013  0.035840000000000094  0.4893100000000001  1.0000
  C   C65       1.0  0.29401  0.10703  0.37853  1.0000
  C   C66       1.0  0.29746  0.14236  0.32509  1.0000
  C   C67       1.0  0.35085999999999995  0.19398000000000007  0.33577  1.0000
  C   C68       1.0  0.43957999999999997  0.174  0.37327  1.0000
  C   C69       1.0  0.46180000000000004  0.23791000000000004  0.37451  1.0000
  C   C70       1.0  0.38541  0.29304  0.33762  1.0000
  O   O15       1.0  0.31728  0.26616  0.31424  1.0000
  C   C71       1.0  0.25552  0.12365  0.26076  1.0000
  H   H25       1.0  0.17226  0.99317  0.29252  1.0000
  H   H26       1.0  0.27955  0.007060000000000066  0.5239  1.0000
  H   H27       1.0  0.32774000000000003  0.12095000000000002  0.42854000000000003  1.0000
  H   H28       1.0  0.48134999999999994  0.12063000000000001  0.3996  1.0000
  H   H29       1.0  0.5230600000000001  0.24546  0.40558  1.0000
  H   H30       1.0  0.26145999999999997  0.14942000000000005  0.22  1.0000
  C   C72       1.0  0.6153199999999999  0.68812  0.68494  1.0000
  C   C73       1.0  0.5380399999999999  0.72895  0.70308  1.0000
  C   C74       1.0  0.5223800000000001  0.80579  0.7232100000000001  1.0000
  C   C75       1.0  0.4396  0.84982  0.7397  1.0000
  O   O16       1.0  0.41207999999999995  0.82021  0.77282  1.0000
  O   O17       1.0  0.39279  0.9253800000000001  0.71735  1.0000
  C   C76       1.0  0.5853  0.84115  0.72673  1.0000
  C   C77       1.0  0.66594  0.7996100000000002  0.71271  1.0000
  C   C78       1.0  0.73558  0.83631  0.72465  1.0000
  C   C79       1.0  0.8242499999999999  0.8004200000000002  0.72608  1.0000
  C   C80       1.0  0.86756  0.85151  0.75581  1.0000
  C   C81       1.0  0.8024599999999998  0.91423  0.77094  1.0000
  O   O18       1.0  0.7230199999999999  0.9053900000000003  0.7507000000000001  1.0000
  C   C82       1.0  0.68026  0.72317  0.69191  1.0000
  H   H31       1.0  0.4878700000000002  0.70259  0.69825  1.0000
  H   H32       1.0  0.33368  0.94799  0.72778  1.0000
  H   H33       1.0  0.57221  0.90063  0.74263  1.0000
  H   H34       1.0  0.8566299999999999  0.74136  0.71471  1.0000
  H   H35       1.0  0.93953  0.83968  0.77335  1.0000
  H   H36       1.0  0.7407300000000001  0.6917  0.67893  1.0000
  C   C83       1.0  0.18666999999999995  0.83923  0.84124  1.0000
  C   C84       1.0  0.18959  0.76736  0.85678  1.0000
  C   C85       1.0  0.21346999999999988  0.7042900000000002  0.81721  1.0000
  C   C86       1.0  0.20293000000000005  0.63348  0.8311100000000001  1.0000
  O   O19       1.0  0.16327999999999993  0.6006600000000002  0.78606  1.0000
  O   O20       1.0  0.23125000000000004  0.60775  0.89631  1.0000
  C   C87       1.0  0.23708999999999994  0.7119900000000002  0.76157  1.0000
  C   C88       1.0  0.23472999999999988  0.7837700000000002  0.74427  1.0000
  C   C89       1.0  0.2541  0.78983  0.6818800000000002  1.0000
  C   C90       1.0  0.2261  0.85605  0.64552  1.0000
  C   C91       1.0  0.24994  0.83309  0.58889  1.0000
  C   C92       1.0  0.29297  0.75477  0.59551  1.0000
  O   O21       1.0  0.2937299999999999  0.7285200000000002  0.65106  1.0000
  C   C93       1.0  0.20997999999999992  0.8478200000000002  0.78517  1.0000
  H   H37       1.0  0.16861999999999996  0.76113  0.89848  1.0000
  H   H38       1.0  0.21752000000000002  0.55963  0.8996800000000001  1.0000
  H   H39       1.0  0.25509  0.66223  0.73105  1.0000
  H   H40       1.0  0.18817  0.9133800000000001  0.65701  1.0000
  H   H41       1.0  0.23229999999999995  0.86843  0.54614  1.0000
  H   H42       1.0  0.20618  0.9039600000000001  0.77264  1.0000
  C   C94       1.0  0.23023999999999997  0.48446000000000006  0.69783  1.0000
  C   C95       1.0  0.31416  0.48735  0.73828  1.0000
  C   C96       1.0  0.34737999999999997  0.46242000000000005  0.8044100000000001  1.0000
  C   C97       1.0  0.43278  0.47056000000000003  0.8484800000000001  1.0000
  O   O22       1.0  0.49101999999999996  0.47004000000000007  0.82537  1.0000
  O   O23       1.0  0.4466399999999999  0.47983000000000003  0.91658  1.0000
  C   C98       1.0  0.29644000000000004  0.4328200000000001  0.8288500000000001  1.0000
  C   C99       1.0  0.21394999999999997  0.4277200000000001  0.78733  1.0000
  C   C100      1.0  0.16248999999999997  0.3949100000000001  0.81207  1.0000
  C   C101      1.0  0.09984000000000007  0.43543  0.84349  1.0000
  C   C102      1.0  0.07447999999999996  0.3810700000000001  0.86243  1.0000
  C   C103      1.0  0.12354000000000001  0.31235  0.84057  1.0000
  O   O24       1.0  0.17667999999999995  0.32063000000000014  0.80991  1.0000
  C   C104      1.0  0.18153999999999998  0.45251  0.72156  1.0000
  H   H43       1.0  0.35172000000000003  0.5120900000000002  0.7192100000000001  1.0000
  H   H44       1.0  0.50772  0.4847000000000001  0.94143  1.0000
  H   H45       1.0  0.32076999999999994  0.4139800000000001  0.88002  1.0000
  H   H46       1.0  0.07718999999999998  0.49656000000000006  0.8528600000000001  1.0000
  H   H47       1.0  0.02771999999999996  0.3899600000000001  0.8900499999999999  1.0000
  H   H48       1.0  0.11718999999999995  0.44984000000000013  0.68972  1.0000
