data_image0
_chemical_formula_structural       Mn5CN8C2N8CN16Cl2C4Mn5CN8C2N8CN16Cl2C7BrC7OC3H9C3BrC7OC3H9C3BrC7OC3H9C3BrC7OC3H9C3BrC7OC3H9C3BrC7OC3H9C3BrC7OC3H9C3BrC7OC3H9
_chemical_formula_sum              "Mn10 C120 N64 Cl4 Br8 O8 H72"
_cell_length_a       17.3954
_cell_length_b       20.457
_cell_length_c       18.994799999999998
_cell_angle_alpha    95.4278
_cell_angle_beta     110.9005
_cell_angle_gamma    71.8815

_space_group_name_H-M_alt    "P 1"
_space_group_IT_number       1

loop_
  _space_group_symop_operation_xyz
  'x, y, z'

loop_
  _atom_site_type_symbol
  _atom_site_label
  _atom_site_symmetry_multiplicity
  _atom_site_fract_x
  _atom_site_fract_y
  _atom_site_fract_z
  _atom_site_occupancy
  Mn  Mn1       1.0  0.04498000000000004  0.8755000000000001  0.26601  1.0000
  Mn  Mn2       1.0  0.90859  0.9659100000000002  0.10576  1.0000
  Mn  Mn3       1.0  0.007020000000000055  0.14089  0.72206  1.0000
  Mn  Mn4       1.0  0.13303000000000004  0.045399999999999996  0.88103  1.0000
  Mn  Mn5       1.0  0.015429999999999963  0.005810000000000001  0.9893199999999999  1.0000
  C   C1        1.0  0.9107399999999999  0.9787  0.3148  1.0000
  N   N1        1.0  0.9555300000000001  0.9640600000000001  0.26799  1.0000
  N   N2        1.0  0.9064900000000001  0.002540000000000209  0.20726  1.0000
  N   N3        1.0  0.8351800000000004  0.042259999999999964  0.21727  1.0000
  N   N4        1.0  0.8360599999999999  0.028769999999999962  0.28442  1.0000
  N   N5        1.0  0.84943  0.11427  0.10053  1.0000
  N   N6        1.0  0.88799  0.060170000000000015  0.06932  1.0000
  N   N7        1.0  0.9369500000000001  0.07651  0.0385  1.0000
  N   N8        1.0  0.9320700000000001  0.14271  0.0499  1.0000
  C   C2        1.0  0.87604  0.16551  0.08806  1.0000
  C   C3        1.0  0.83033  0.90328  0.89593  1.0000
  N   N9        1.0  0.9062100000000001  0.9265900000000001  0.0044999999999999485  1.0000
  N   N10       1.0  0.84832  0.8947800000000001  0.9698400000000001  1.0000
  N   N11       1.0  0.07375000000000001  0.9457700000000001  0.09007  1.0000
  N   N12       1.0  0.03399000000000025  0.9543300000000001  0.13941  1.0000
  N   N13       1.0  0.08667000000000047  0.92236  0.20371  1.0000
  N   N14       1.0  0.16209000000000004  0.89108  0.19763  1.0000
  N   N15       1.0  0.9266600000000002  0.95228  0.95495  1.0000
  N   N16       1.0  0.8781900000000002  0.94091  0.88565  1.0000
  C   C4        1.0  0.15127999999999994  0.8971700000000002  0.12432000000000001  1.0000
  N   N17       1.0  0.09023  0.04821000000000002  0.7187  1.0000
  N   N18       1.0  0.13536  0.008700000000000003  0.77912  1.0000
  N   N19       1.0  0.20322000000000004  0.9632900000000001  0.76846  1.0000
  N   N20       1.0  0.20365000000000005  0.97387  0.7008  1.0000
  N   N21       1.0  0.20127000000000003  0.89862  0.89658  1.0000
  N   N22       1.0  0.1475600000000001  0.9532600000000001  0.9136700000000001  1.0000
  N   N23       1.0  0.09590000000000004  0.93627  0.9404900000000002  1.0000
  N   N24       1.0  0.11524000000000004  0.86866  0.9409700000000001  1.0000
  N   N25       1.0  0.13709999999999997  0.08040000000000001  0.09684  1.0000
  N   N26       1.0  0.10394000000000005  0.05975  0.02697  1.0000
  N   N27       1.0  0.13465  0.08154  0.98224  1.0000
  N   N28       1.0  0.18744  0.11670000000000001  0.0199  1.0000
  N   N29       1.0  0.95756  0.06397  0.88726  1.0000
  N   N30       1.0  0.005339999999999991  0.06455000000000001  0.84599  1.0000
  N   N31       1.0  0.9582000000000002  0.09756  0.78134  1.0000
  N   N32       1.0  0.8775799999999999  0.12024  0.77674  1.0000
  Cl  Cl1       1.0  0.9449800000000002  0.8589500000000001  0.15457  1.0000
  Cl  Cl2       1.0  0.10667  0.15173  0.83579  1.0000
  C   C5        1.0  0.13339000000000006  0.02776  0.67051  1.0000
  C   C6        1.0  0.18041999999999994  0.8461  0.91333  1.0000
  C   C7        1.0  0.1879  0.11669000000000002  0.09054  1.0000
  C   C8        1.0  0.87585  0.10175  0.84255  1.0000
  Mn  Mn6       1.0  0.28886000000000006  0.32643000000000005  0.50953  1.0000
  Mn  Mn7       1.0  0.2645799999999999  0.48946000000000006  0.4527900000000001  1.0000
  Mn  Mn8       1.0  0.61401  0.74062  0.48969  1.0000
  Mn  Mn9       1.0  0.6710100000000001  0.56818  0.53284  1.0000
  Mn  Mn10      1.0  0.47569000000000006  0.52  0.50409  1.0000
  C   C9        1.0  0.18026999999999999  0.42175  0.5979  1.0000
  N   N33       1.0  0.22298000000000004  0.41211  0.54938  1.0000
  N   N34       1.0  0.21070999999999998  0.4742  0.52579  1.0000
  N   N35       1.0  0.15846  0.52046  0.55481  1.0000
  N   N36       1.0  0.13904999999999998  0.48916  0.60121  1.0000
  N   N37       1.0  0.24891999999999997  0.60115  0.55159  1.0000
  N   N38       1.0  0.2905900000000001  0.5737500000000001  0.50484  1.0000
  N   N39       1.0  0.36873999999999996  0.58157  0.53058  1.0000
  N   N40       1.0  0.37825999999999993  0.61001  0.5974  1.0000
  C   C10       1.0  0.3054299999999999  0.62046  0.6117  1.0000
  C   C11       1.0  0.34875  0.46440000000000003  0.28546  1.0000
  N   N41       1.0  0.31418000000000007  0.5024  0.38003  1.0000
  N   N42       1.0  0.2824600000000002  0.48296  0.31039  1.0000
  N   N43       1.0  0.45721  0.44073  0.55097  1.0000
  N   N44       1.0  0.38248000000000004  0.42694  0.51855  1.0000
  N   N45       1.0  0.38889000000000007  0.36593  0.54116  1.0000
  N   N46       1.0  0.46430999999999994  0.3403300000000001  0.59365  1.0000
  N   N47       1.0  0.39621999999999996  0.49759000000000003  0.39849  1.0000
  N   N48       1.0  0.42084  0.47123000000000004  0.34054  1.0000
  C   C12       1.0  0.50696  0.3875400000000001  0.60254  1.0000
  N   N49       1.0  0.66624  0.66584  0.429  1.0000
  N   N50       1.0  0.69327  0.59948  0.44525  1.0000
  N   N51       1.0  0.75451  0.5689000000000001  0.41659  1.0000
  N   N52       1.0  0.7665599999999999  0.6158000000000001  0.38049  1.0000
  N   N53       1.0  0.68111  0.44762  0.43174  1.0000
  N   N54       1.0  0.64305  0.48319000000000006  0.47850999999999994  1.0000
  N   N55       1.0  0.5804100000000002  0.45958  0.47886  1.0000
  N   N56       1.0  0.5771600000000001  0.4068800000000001  0.43284  1.0000
  N   N57       1.0  0.53367  0.58672  0.65482  1.0000
  N   N58       1.0  0.5629100000000001  0.54315  0.60789  1.0000
  N   N59       1.0  0.6419500000000002  0.54649  0.61926  1.0000
  N   N60       1.0  0.6637200000000001  0.58809  0.67581  1.0000
  N   N61       1.0  0.48603  0.60012  0.45478  1.0000
  N   N62       1.0  0.5477100000000003  0.62737  0.49173999999999995  1.0000
  N   N63       1.0  0.5261100000000001  0.69105  0.46859  1.0000
  N   N64       1.0  0.4547099999999999  0.7042700000000001  0.40929  1.0000
  Cl  Cl3       1.0  0.24114999999999998  0.38926000000000005  0.40075  1.0000
  Cl  Cl4       1.0  0.6998900000000001  0.6667000000000001  0.58695  1.0000
  C   C13       1.0  0.7100400000000001  0.6759800000000002  0.38879  1.0000
  C   C14       1.0  0.63941  0.40018  0.4034  1.0000
  C   C15       1.0  0.59293  0.61828  0.69312  1.0000
  C   C16       1.0  0.43142  0.6457500000000002  0.39767  1.0000
  C   C17       1.0  0.8028399999999999  0.14615  0.86526  1.0000
  C   C18       1.0  0.7653799999999998  0.12355000000000001  0.9084299999999998  1.0000
  C   C19       1.0  0.69156  0.16790999999999998  0.92096  1.0000
  Br  Br1       1.0  0.6436200000000002  0.13852  0.9841499999999999  1.0000
  C   C20       1.0  0.65202  0.23366000000000006  0.88679  1.0000
  C   C21       1.0  0.6862600000000001  0.25609999999999994  0.84015  1.0000
  C   C22       1.0  0.6434999999999998  0.32413  0.79988  1.0000
  C   C23       1.0  0.61847  0.32944  0.72076  1.0000
  C   C24       1.0  0.56574  0.3922300000000001  0.6813  1.0000
  C   C25       1.0  0.5442099999999999  0.45062000000000013  0.72412  1.0000
  C   C26       1.0  0.57524  0.44692  0.80378  1.0000
  O   O1        1.0  0.54933  0.50194  0.84861  1.0000
  C   C27       1.0  0.54714  0.56798  0.82871  1.0000
  C   C28       1.0  0.6223800000000003  0.38344000000000006  0.84037  1.0000
  C   C29       1.0  0.76213  0.21301000000000003  0.83181  1.0000
  H   H1        1.0  0.79286  0.07192  0.93156  1.0000
  H   H2        1.0  0.59406  0.26632  0.89587  1.0000
  H   H3        1.0  0.6304600000000004  0.28276  0.6891  1.0000
  H   H4        1.0  0.49406  0.49565  0.69595  1.0000
  H   H5        1.0  0.49359000000000003  0.58727  0.77531  1.0000
  H   H6        1.0  0.6102000000000002  0.56603  0.82523  1.0000
  H   H7        1.0  0.53562  0.60457  0.87342  1.0000
  H   H8        1.0  0.6401900000000003  0.3802800000000001  0.90104  1.0000
  H   H9        1.0  0.7891800000000001  0.23236  0.79805  1.0000
  C   C30       1.0  0.85703  0.23246000000000003  0.12596  1.0000
  C   C31       1.0  0.9087100000000001  0.27599  0.1396  1.0000
  C   C32       1.0  0.89688  0.33274  0.18643  1.0000
  Br  Br2       1.0  0.97243  0.38858000000000004  0.21001  1.0000
  C   C33       1.0  0.83108  0.34807000000000005  0.21735  1.0000
  C   C34       1.0  0.7761300000000002  0.30663000000000007  0.20234  1.0000
  C   C35       1.0  0.70412  0.32143000000000005  0.23352  1.0000
  C   C36       1.0  0.70783  0.35415000000000013  0.30352  1.0000
  C   C37       1.0  0.6423900000000002  0.36093  0.33384  1.0000
  C   C38       1.0  0.5751  0.33292  0.29478  1.0000
  C   C39       1.0  0.5696  0.30125  0.22562999999999997  1.0000
  O   O2        1.0  0.50176  0.27223  0.19184  1.0000
  C   C40       1.0  0.5123700000000001  0.21823  0.1394  1.0000
  C   C41       1.0  0.63162  0.29896  0.19356  1.0000
  C   C42       1.0  0.7917400000000001  0.24813000000000002  0.15785  1.0000
  H   H10       1.0  0.96017  0.26436000000000004  0.11666999999999998  1.0000
  H   H11       1.0  0.82319  0.39241  0.2526  1.0000
  H   H12       1.0  0.7617700000000001  0.37314  0.3349  1.0000
  H   H13       1.0  0.52598  0.33541000000000004  0.31816  1.0000
  H   H14       1.0  0.57817  0.18121  0.15953  1.0000
  H   H15       1.0  0.49933000000000005  0.23972000000000002  0.0833  1.0000
  H   H16       1.0  0.46627  0.18918  0.13429  1.0000
  H   H17       1.0  0.62332  0.27918  0.13729  1.0000
  H   H18       1.0  0.75512  0.21235  0.15035  1.0000
  C   C43       1.0  0.9230700000000001  0.92884  0.37112  1.0000
  C   C44       1.0  0.005760000000000029  0.89176  0.41743  1.0000
  C   C45       1.0  0.016300000000000005  0.83641  0.46166  1.0000
  Br  Br3       1.0  0.1291100000000002  0.7861000000000002  0.52497  1.0000
  C   C46       1.0  0.9446200000000001  0.81656  0.45764999999999995  1.0000
  C   C47       1.0  0.86189  0.8530500000000001  0.41038  1.0000
  C   C48       1.0  0.78482  0.8324700000000002  0.4014  1.0000
  C   C49       1.0  0.78485  0.76347  0.39021  1.0000
  C   C50       1.0  0.70913  0.74662  0.3784  1.0000
  C   C51       1.0  0.63296  0.79928  0.37493  1.0000
  C   C52       1.0  0.6335399999999999  0.86764  0.39028  1.0000
  O   O3        1.0  0.5625599999999998  0.9211100000000001  0.39711  1.0000
  C   C53       1.0  0.49124  0.9035900000000001  0.40192  1.0000
  C   C54       1.0  0.70938  0.8835400000000001  0.40234  1.0000
  C   C55       1.0  0.8518000000000002  0.9099200000000001  0.36879  1.0000
  H   H19       1.0  0.061860000000000026  0.90477  0.41799  1.0000
  H   H20       1.0  0.95329  0.77301  0.49097  1.0000
  H   H21       1.0  0.8436799999999999  0.7233200000000002  0.39297  1.0000
  H   H22       1.0  0.5748400000000001  0.78548  0.36508  1.0000
  H   H23       1.0  0.5125499999999998  0.8682000000000001  0.45076  1.0000
  H   H24       1.0  0.45886000000000016  0.88042  0.34872  1.0000
  H   H25       1.0  0.44348000000000004  0.9513300000000001  0.41045  1.0000
  H   H26       1.0  0.70984  0.93627  0.4143  1.0000
  H   H27       1.0  0.78848  0.93677  0.33018  1.0000
  C   C56       1.0  0.17281000000000002  0.82593  0.09492  1.0000
  C   C57       1.0  0.10644999999999992  0.7994300000000002  0.04757  1.0000
  C   C58       1.0  0.12208  0.72938  0.03218  1.0000
  Br  Br4       1.0  0.0338099999999999  0.6967700000000002  0.95979  1.0000
  C   C59       1.0  0.19985999999999998  0.68283  0.07326  1.0000
  C   C60       1.0  0.26272  0.7065300000000001  0.12869  1.0000
  C   C61       1.0  0.33353  0.65782  0.18575  1.0000
  C   C62       1.0  0.34202  0.6672  0.26212  1.0000
  C   C63       1.0  0.4106300000000002  0.62389  0.31821  1.0000
  C   C64       1.0  0.47318000000000005  0.57244  0.29651  1.0000
  C   C65       1.0  0.46401  0.55992  0.22055  1.0000
  O   O4        1.0  0.52658  0.5039200000000001  0.20416  1.0000
  C   C66       1.0  0.54437  0.50834  0.13725  1.0000
  C   C67       1.0  0.39265999999999995  0.60284  0.16482  1.0000
  C   C68       1.0  0.2511999999999999  0.77775  0.13631  1.0000
  H   H28       1.0  0.042570000000000004  0.83318  0.02086  1.0000
  H   H29       1.0  0.20833000000000002  0.6283900000000001  0.0654  1.0000
  H   H30       1.0  0.2964500000000001  0.70991  0.27811  1.0000
  H   H31       1.0  0.53085  0.54251  0.33883  1.0000
  H   H32       1.0  0.48731  0.51135  0.08624  1.0000
  H   H33       1.0  0.5955  0.46131000000000005  0.13296  1.0000
  H   H34       1.0  0.56873  0.55278  0.13997  1.0000
  H   H35       1.0  0.38225  0.59463  0.10547  1.0000
  H   H36       1.0  0.3001799999999999  0.7957100000000003  0.17956  1.0000
  C   C69       1.0  0.24679000000000004  0.14564  0.15181  1.0000
  C   C70       1.0  0.3168200000000001  0.10204  0.20678  1.0000
  C   C71       1.0  0.3841800000000001  0.12665  0.25372  1.0000
  Br  Br5       1.0  0.48408  0.06603000000000003  0.32197999999999993  1.0000
  C   C72       1.0  0.3822300000000001  0.19444  0.24635  1.0000
  C   C73       1.0  0.31401000000000007  0.23808000000000007  0.19037  1.0000
  C   C74       1.0  0.31854000000000005  0.30674000000000007  0.17694  1.0000
  C   C75       1.0  0.34421999999999997  0.34965  0.23710000000000003  1.0000
  C   C76       1.0  0.34778  0.41494  0.22416  1.0000
  C   C77       1.0  0.32929  0.43626  0.15034  1.0000
  C   C78       1.0  0.3070899999999999  0.39200000000000007  0.08946  1.0000
  O   O5        1.0  0.28861  0.40811  0.01366  1.0000
  C   C79       1.0  0.30371  0.46842  0.9973600000000001  1.0000
  C   C80       1.0  0.2998500000000001  0.3287  0.10347  1.0000
  C   C81       1.0  0.24624000000000001  0.21338000000000001  0.14344  1.0000
  H   H37       1.0  0.32216  0.04802000000000001  0.20938  1.0000
  H   H38       1.0  0.43654  0.21185000000000007  0.28118  1.0000
  H   H39       1.0  0.35744000000000004  0.33380000000000004  0.29404  1.0000
  H   H40       1.0  0.32820000000000005  0.48789000000000005  0.14057  1.0000
  H   H41       1.0  0.37037000000000003  0.46892  0.03139  1.0000
  H   H42       1.0  0.25504  0.5152  0.00668  1.0000
  H   H43       1.0  0.29647999999999997  0.46713  0.9370999999999999  1.0000
  H   H44       1.0  0.28071000000000007  0.2960900000000001  0.05607  1.0000
  H   H45       1.0  0.19483000000000003  0.24602  0.09849  1.0000
  C   C82       1.0  0.56302  0.69522  0.6972  1.0000
  C   C83       1.0  0.4836000000000001  0.7298  0.64244  1.0000
  C   C84       1.0  0.45451  0.80085  0.63541  1.0000
  Br  Br6       1.0  0.34613  0.84528  0.56104  1.0000
  C   C85       1.0  0.50408  0.83966  0.68233  1.0000
  C   C86       1.0  0.5833000000000002  0.80839  0.73865  1.0000
  C   C87       1.0  0.62479  0.8560500000000001  0.79212  1.0000
  C   C88       1.0  0.7119099999999999  0.85439  0.81018  1.0000
  C   C89       1.0  0.73988  0.9104200000000001  0.84842  1.0000
  C   C90       1.0  0.67988  0.9670500000000001  0.86628  1.0000
  C   C91       1.0  0.5977800000000002  0.9651200000000001  0.85661  1.0000
  O   O6        1.0  0.54502  0.01672  0.88711  1.0000
  C   C92       1.0  0.5458000000000002  0.9961  0.9571899999999999  1.0000
  C   C93       1.0  0.5705  0.91002  0.81992  1.0000
  C   C94       1.0  0.61417  0.73532  0.74491  1.0000
  H   H46       1.0  0.44491  0.70194  0.60157  1.0000
  H   H47       1.0  0.47962  0.8952  0.67543  1.0000
  H   H48       1.0  0.7570599999999998  0.8104500000000001  0.79545  1.0000
  H   H49       1.0  0.7004900000000002  0.008890000000000004  0.89779  1.0000
  H   H50       1.0  0.6124499999999999  0.98283  0.9993799999999999  1.0000
  H   H51       1.0  0.5206300000000003  0.95116  0.9498700000000001  1.0000
  H   H52       1.0  0.50426  0.03928999999999999  0.97934  1.0000
  H   H53       1.0  0.5055799999999999  0.91009  0.81172  1.0000
  H   H54       1.0  0.6758300000000004  0.7103  0.78658  1.0000
  C   C95       1.0  0.24252999999999983  0.7777400000000002  0.9267199999999999  1.0000
  C   C96       1.0  0.3139  0.76618  0.9935699999999998  1.0000
  C   C97       1.0  0.38265  0.70625  0.004269999999999996  1.0000
  Br  Br7       1.0  0.48172000000000004  0.69605  0.09358  1.0000
  C   C98       1.0  0.38157  0.65774  0.9472  1.0000
  C   C99       1.0  0.31295999999999996  0.67119  0.87776  1.0000
  C   C100      1.0  0.31626  0.62346  0.81526  1.0000
  C   C101      1.0  0.3084100000000001  0.64661  0.74496  1.0000
  C   C102      1.0  0.3125299999999999  0.5997500000000001  0.68679  1.0000
  C   C103      1.0  0.32629  0.52949  0.69993  1.0000
  C   C104      1.0  0.33326000000000006  0.50628  0.76995  1.0000
  O   O7        1.0  0.33813  0.43861  0.78462  1.0000
  C   C105      1.0  0.38401  0.38317  0.74978  1.0000
  C   C106      1.0  0.32792000000000016  0.554  0.82667  1.0000
  C   C107      1.0  0.24328000000000002  0.73131  0.8678  1.0000
  H   H55       1.0  0.3182699999999999  0.8055400000000003  0.0360100000000001  1.0000
  H   H56       1.0  0.43610000000000004  0.61147  0.9557700000000001  1.0000
  H   H57       1.0  0.30101  0.70014  0.73623  1.0000
  H   H58       1.0  0.33064999999999994  0.49384000000000006  0.65477  1.0000
  H   H59       1.0  0.45264000000000004  0.38061  0.76921  1.0000
  H   H60       1.0  0.35564000000000007  0.38679  0.6878  1.0000
  H   H61       1.0  0.38023000000000007  0.33441  0.76726  1.0000
  H   H62       1.0  0.33349  0.53691  0.88067  1.0000
  H   H63       1.0  0.1916  0.74283  0.81383  1.0000
  C   C108      1.0  0.17936  0.3677  0.6427  1.0000
  C   C109      1.0  0.17357999999999996  0.3822000000000001  0.71459  1.0000
  C   C110      1.0  0.17062000000000002  0.33145  0.75664  1.0000
  Br  Br8       1.0  0.16697000000000004  0.35009  0.85581  1.0000
  C   C111      1.0  0.16754999999999998  0.26758000000000004  0.7251  1.0000
  C   C112      1.0  0.17039999999999997  0.25274  0.65191  1.0000
  C   C113      1.0  0.15095000000000003  0.1901  0.61292  1.0000
  C   C114      1.0  0.16888  0.13051  0.65398  1.0000
  C   C115      1.0  0.13261  0.07808  0.62047  1.0000
  C   C116      1.0  0.08227  0.08266000000000001  0.54404  1.0000
  C   C117      1.0  0.06873999999999998  0.14018  0.50043  1.0000
  O   O8        1.0  0.01805999999999997  0.15036000000000002  0.42361  1.0000
  C   C118      1.0  0.9767400000000002  0.10009000000000001  0.38802  1.0000
  C   C119      1.0  0.10240999999999999  0.19326000000000004  0.53552  1.0000
  C   C120      1.0  0.18132999999999994  0.30231000000000013  0.61293  1.0000
  H   H64       1.0  0.1724700000000001  0.43256  0.73818  1.0000
  H   H65       1.0  0.15925  0.23120000000000004  0.75695  1.0000
  H   H66       1.0  0.20663999999999996  0.12634  0.7136  1.0000
  H   H67       1.0  0.05207  0.04276  0.52055  1.0000
  H   H68       1.0  0.9304800000000001  0.09706000000000001  0.41476  1.0000
  H   H69       1.0  0.02549999999999992  0.049310000000000194  0.39035  1.0000
  H   H70       1.0  0.94007  0.11564  0.32805  1.0000
  H   H71       1.0  0.08540999999999999  0.23892000000000002  0.50206  1.0000
  H   H72       1.0  0.18668  0.29165  0.55761  1.0000
