data_image0
_chemical_formula_structural       CNC8NC6N2CH12CNC8NC6N2CH12CNC8NC6N2CH12CNC8NC6N2CH12CNC8NC6N2CH12CNC8NC6N2CH12Mn5CN8C2N8CN16Cl2C4Mn5CN8C2N8CN16Cl2C4Mn5CN8C2N8CN16Cl2C4
_chemical_formula_sum              "C120 N120 H72 Mn15 Cl6"
_cell_length_a       34.9307
_cell_length_b       31.883399999999998
_cell_length_c       10.244700000000002
_cell_angle_alpha    78.9331
_cell_angle_beta     105.7221
_cell_angle_gamma    119.63110000000002

_space_group_name_H-M_alt    "P 1"
_space_group_IT_number       1

loop_
  _space_group_symop_operation_xyz
  'x, y, z'

loop_
  _atom_site_type_symbol
  _atom_site_label
  _atom_site_symmetry_multiplicity
  _atom_site_fract_x
  _atom_site_fract_y
  _atom_site_fract_z
  _atom_site_occupancy
  C   C1        1.0  0.3355  0.40816000000000013  0.74492  1.0000
  N   N1        1.0  0.33059  0.3821700000000001  0.88015  1.0000
  C   C2        1.0  0.29768  0.38442  0.9392099999999999  1.0000
  C   C3        1.0  0.3185700000000001  0.42781  0.02296  1.0000
  C   C4        1.0  0.35790000000000005  0.4386300000000001  0.12315999999999999  1.0000
  C   C5        1.0  0.37401  0.47483  0.21413  1.0000
  C   C6        1.0  0.34897  0.49906  0.20685999999999996  1.0000
  C   C7        1.0  0.31068  0.49  0.10208  1.0000
  C   C8        1.0  0.28341  0.51447  0.08836  1.0000
  C   C9        1.0  0.25074  0.4997  0.16201  1.0000
  N   N2        1.0  0.22043  0.51389  0.08694999999999999  1.0000
  C   C10       1.0  0.17552  0.49594  0.10709  1.0000
  C   C11       1.0  0.14004000000000003  0.49079  0.9956799999999999  1.0000
  C   C12       1.0  0.09458000000000007  0.4639800000000001  0.00862  1.0000
  C   C13       1.0  0.08567000000000002  0.44595000000000007  0.13972  1.0000
  C   C14       1.0  0.12158000000000002  0.45475000000000004  0.25485  1.0000
  C   C15       1.0  0.16591  0.47881  0.23637999999999998  1.0000
  N   N3        1.0  0.23414  0.53659  0.97293  1.0000
  N   N4        1.0  0.27209  0.53707  0.9705699999999999  1.0000
  C   C16       1.0  0.29577  0.4544600000000001  0.01172  1.0000
  H   H1        1.0  0.31358  0.42585000000000006  0.70953  1.0000
  H   H2        1.0  0.32676000000000005  0.3827100000000001  0.66818  1.0000
  H   H3        1.0  0.31959  0.34561  0.87013  1.0000
  H   H4        1.0  0.26823  0.38278  0.85939  1.0000
  H   H5        1.0  0.28417000000000003  0.3517500000000001  0.00972  1.0000
  H   H6        1.0  0.37621  0.41882000000000014  0.12937  1.0000
  H   H7        1.0  0.36065  0.52673  0.27601  1.0000
  H   H8        1.0  0.24612000000000003  0.47472  0.25124  1.0000
  H   H9        1.0  0.1475  0.50254  0.89481  1.0000
  H   H10       1.0  0.05106  0.42548  0.15178  1.0000
  H   H11       1.0  0.19328000000000006  0.48626000000000014  0.32432  1.0000
  H   H12       1.0  0.26497  0.44599  0.93598  1.0000
  C   C17       1.0  0.59135  0.20011000000000007  0.71735  1.0000
  N   N5        1.0  0.5665  0.19441  0.8215  1.0000
  C   C18       1.0  0.59457  0.21734000000000006  0.9486099999999998  1.0000
  C   C19       1.0  0.61553  0.18778000000000006  0.04016  1.0000
  C   C20       1.0  0.59006  0.14433  0.11091999999999999  1.0000
  C   C21       1.0  0.61077  0.11787000000000003  0.19739  1.0000
  C   C22       1.0  0.65767  0.13612  0.21489  1.0000
  C   C23       1.0  0.68273  0.17912  0.1412  1.0000
  C   C24       1.0  0.73205  0.20372  0.16392  1.0000
  C   C25       1.0  0.75681  0.24767000000000006  0.2199  1.0000
  N   N6        1.0  0.79447  0.27228  0.16927999999999999  1.0000
  C   C26       1.0  0.82754  0.32207  0.18998  1.0000
  C   C27       1.0  0.86037  0.34842  0.10841  1.0000
  C   C28       1.0  0.89334  0.39617000000000013  0.13645  1.0000
  C   C29       1.0  0.8920300000000001  0.4168500000000001  0.24549999999999997  1.0000
  C   C30       1.0  0.86291  0.3896500000000001  0.33562  1.0000
  C   C31       1.0  0.8287800000000001  0.3438400000000001  0.30001  1.0000
  N   N7        1.0  0.793  0.24454000000000006  0.08502  1.0000
  N   N8        1.0  0.75503  0.20304000000000005  0.07802  1.0000
  C   C32       1.0  0.66133  0.20418000000000006  0.05444999999999999  1.0000
  H   H13       1.0  0.62621  0.23047  0.73637  1.0000
  H   H14       1.0  0.57381  0.20857  0.61651  1.0000
  H   H15       1.0  0.54633  0.15783  0.84711  1.0000
  H   H16       1.0  0.62031  0.25489  0.92636  1.0000
  H   H17       1.0  0.57324  0.22085000000000002  0.00428  1.0000
  H   H18       1.0  0.55449  0.13212  0.10207  1.0000
  H   H19       1.0  0.67433  0.11720000000000001  0.28519  1.0000
  H   H20       1.0  0.74455  0.26276  0.27474  1.0000
  H   H21       1.0  0.86068  0.3317400000000001  0.02628  1.0000
  H   H22       1.0  0.9192300000000001  0.45181999999999994  0.27674  1.0000
  H   H23       1.0  0.8074900000000002  0.3224100000000001  0.37209  1.0000
  H   H24       1.0  0.6809099999999999  0.23756000000000005  0.9994799999999999  1.0000
  C   C33       1.0  0.85314  0.5743200000000002  0.9499099999999999  1.0000
  N   N9        1.0  0.8558400000000002  0.5609000000000001  0.09706999999999999  1.0000
  C   C34       1.0  0.84325  0.50909  0.13332  1.0000
  C   C35       1.0  0.84661  0.4989000000000001  0.28147  1.0000
  C   C36       1.0  0.8889399999999998  0.51226  0.36883  1.0000
  C   C37       1.0  0.89387  0.51412  0.50759  1.0000
  C   C38       1.0  0.85544  0.50468  0.55477  1.0000
  C   C39       1.0  0.8133500000000001  0.4915200000000001  0.4658  1.0000
  C   C40       1.0  0.7771  0.4972800000000001  0.4934299999999999  1.0000
  C   C41       1.0  0.7680500000000001  0.5349800000000001  0.43048  1.0000
  N   N10       1.0  0.7236  0.51815  0.41447  1.0000
  C   C42       1.0  0.69846  0.54396  0.35381999999999997  1.0000
  C   C43       1.0  0.6703700000000002  0.5339700000000002  0.22229  1.0000
  C   C44       1.0  0.63957  0.55261  0.17398  1.0000
  C   C45       1.0  0.63824  0.58101  0.26402  1.0000
  C   C46       1.0  0.65924  0.5828700000000002  0.40351  1.0000
  C   C47       1.0  0.6947500000000001  0.5712200000000002  0.43844999999999995  1.0000
  N   N11       1.0  0.70601  0.4730000000000001  0.46732  1.0000
  N   N12       1.0  0.73759  0.4590500000000001  0.51308  1.0000
  C   C48       1.0  0.80884  0.4853600000000001  0.33157  1.0000
  H   H25       1.0  0.8625100000000002  0.6133400000000002  0.93014  1.0000
  H   H26       1.0  0.81799  0.55352  0.8939199999999999  1.0000
  H   H27       1.0  0.88888  0.5820600000000002  0.14782999999999996  1.0000
  H   H28       1.0  0.80873  0.48592  0.07697  1.0000
  H   H29       1.0  0.86657  0.49844000000000005  0.11443000000000002  1.0000
  H   H30       1.0  0.9186599999999999  0.52599  0.32673  1.0000
  H   H31       1.0  0.8596  0.51407  0.65422  1.0000
  H   H32       1.0  0.79061  0.5691800000000001  0.38594  1.0000
  H   H33       1.0  0.67024  0.50901  0.16357  1.0000
  H   H34       1.0  0.61213  0.5912  0.23746  1.0000
  H   H35       1.0  0.71239  0.5726900000000003  0.5436  1.0000
  H   H36       1.0  0.77695  0.4773000000000001  0.26136  1.0000
  C   C49       1.0  0.08608999999999994  0.62163  0.36522999999999994  1.0000
  N   N13       1.0  0.11250000000000009  0.6163700000000002  0.28457  1.0000
  C   C50       1.0  0.15943  0.62777  0.35369  1.0000
  C   C51       1.0  0.18500000000000005  0.63012  0.25045  1.0000
  C   C52       1.0  0.16519000000000011  0.5921200000000002  0.1652  1.0000
  C   C53       1.0  0.16755000000000006  0.6037500000000002  0.027590000000000003  1.0000
  C   C54       1.0  0.20478000000000002  0.64569  0.99303  1.0000
  C   C55       1.0  0.23538  0.6786  0.09216  1.0000
  C   C56       1.0  0.27711000000000013  0.7203200000000002  0.056429999999999994  1.0000
  C   C57       1.0  0.31629  0.7487  0.14364  1.0000
  N   N14       1.0  0.34638000000000013  0.7788500000000003  0.06505  1.0000
  C   C58       1.0  0.39201000000000014  0.8165900000000003  0.10678  1.0000
  C   C59       1.0  0.41105  0.82373  0.2461  1.0000
  C   C60       1.0  0.4528100000000001  0.8632700000000002  0.29011  1.0000
  C   C61       1.0  0.47718000000000005  0.89395  0.19172  1.0000
  C   C62       1.0  0.45889  0.8892800000000002  0.0497099999999997  1.0000
  C   C63       1.0  0.41640000000000005  0.8498000000000001  0.008409999999999807  1.0000
  N   N15       1.0  0.32641000000000003  0.76911  0.9369299999999999  1.0000
  N   N16       1.0  0.2846000000000001  0.7335700000000003  0.92872  1.0000
  C   C64       1.0  0.22309  0.6727000000000001  0.21831  1.0000
  H   H37       1.0  0.06506999999999996  0.6371100000000001  0.29576  1.0000
  H   H38       1.0  0.10829000000000014  0.6477000000000003  0.44488999999999995  1.0000
  H   H39       1.0  0.09527000000000009  0.5814700000000003  0.25106  1.0000
  H   H40       1.0  0.17654000000000017  0.6632800000000002  0.39913  1.0000
  H   H41       1.0  0.15957000000000007  0.5996100000000002  0.43660999999999994  1.0000
  H   H42       1.0  0.13696000000000016  0.5586900000000002  0.19065  1.0000
  H   H43       1.0  0.20771000000000012  0.6546000000000002  0.8874599999999999  1.0000
  H   H44       1.0  0.32214  0.74641  0.25341999999999976  1.0000
  H   H45       1.0  0.39166  0.80132  0.32177  1.0000
  H   H46       1.0  0.5087600000000001  0.9250400000000002  0.22737  1.0000
  H   H47       1.0  0.4018400000000001  0.8459200000000002  0.90094  1.0000
  H   H48       1.0  0.24120000000000008  0.7017800000000002  0.28624  1.0000
  C   C65       1.0  0.69088  0.9425900000000003  0.22155999999999998  1.0000
  N   N17       1.0  0.72579  0.97364  0.3293499999999999  1.0000
  C   C66       1.0  0.7129900000000001  0.9900300000000001  0.42975  1.0000
  C   C67       1.0  0.66506  0.9605900000000003  0.45276  1.0000
  C   C68       1.0  0.6409300000000001  0.98441  0.46204  1.0000
  C   C69       1.0  0.60224  0.9593800000000002  0.51992  1.0000
  C   C70       1.0  0.5804400000000001  0.9085100000000003  0.5215  1.0000
  C   C71       1.0  0.59997  0.88429  0.48504  1.0000
  C   C72       1.0  0.5720700000000001  0.8343700000000002  0.44317000000000006  1.0000
  C   C73       1.0  0.5866300000000002  0.8028400000000002  0.42667999999999995  1.0000
  N   N18       1.0  0.5508300000000003  0.7670000000000002  0.3559999999999999  1.0000
  C   C74       1.0  0.5462900000000002  0.7219500000000001  0.33027  1.0000
  C   C75       1.0  0.51477  0.6977900000000001  0.21841  1.0000
  C   C76       1.0  0.49496  0.64766  0.22147  1.0000
  C   C77       1.0  0.50455  0.62112  0.34302  1.0000
  C   C78       1.0  0.5382600000000001  0.6453400000000001  0.45431  1.0000
  C   C79       1.0  0.5631200000000002  0.6963800000000002  0.43472  1.0000
  N   N19       1.0  0.51609  0.77561  0.33274  1.0000
  N   N20       1.0  0.52817  0.8166600000000003  0.38289999999999996  1.0000
  C   C80       1.0  0.64495  0.91012  0.47262  1.0000
  H   H49       1.0  0.67699  0.90416  0.2606  1.0000
  H   H50       1.0  0.70643  0.9454600000000001  0.1366  1.0000
  H   H51       1.0  0.7488800000000001  0.0045400000000002105  0.28191  1.0000
  H   H52       1.0  0.7356800000000002  0.9898000000000002  0.5293899999999999  1.0000
  H   H53       1.0  0.72058  0.028489999999999904  0.40217  1.0000
  H   H54       1.0  0.6582400000000003  0.0236200000000002  0.45782  1.0000
  H   H55       1.0  0.55188  0.88678  0.56903  1.0000
  H   H56       1.0  0.61993  0.8058200000000002  0.46087999999999996  1.0000
  H   H57       1.0  0.50341  0.71772  0.13305999999999998  1.0000
  H   H58       1.0  0.48516  0.5827100000000001  0.35057  1.0000
  H   H59       1.0  0.58866  0.71673  0.5180199999999999  1.0000
  H   H60       1.0  0.66278  0.89117  0.4661  1.0000
  C   C81       1.0  0.46266  0.39512000000000014  0.8982699999999999  1.0000
  N   N21       1.0  0.41606000000000004  0.3548100000000001  0.88137  1.0000
  C   C82       1.0  0.40407000000000004  0.3171200000000001  0.99339  1.0000
  C   C83       1.0  0.43831  0.2990400000000001  0.0479  1.0000
  C   C84       1.0  0.46093999999999996  0.30565000000000003  0.18215  1.0000
  C   C85       1.0  0.50446  0.31091000000000013  0.22333999999999998  1.0000
  C   C86       1.0  0.5194300000000001  0.2946300000000001  0.13741  1.0000
  C   C87       1.0  0.4912500000000001  0.27689  0.01061  1.0000
  C   C88       1.0  0.50034  0.25197  0.92551  1.0000
  C   C89       1.0  0.48318  0.20256000000000002  0.93509  1.0000
  N   N22       1.0  0.48064999999999997  0.19000000000000006  0.81336  1.0000
  C   C90       1.0  0.4607700000000003  0.14164  0.77122  1.0000
  C   C91       1.0  0.47404  0.13179  0.66624  1.0000
  C   C92       1.0  0.45870999999999995  0.08357  0.63971  1.0000
  C   C93       1.0  0.42134  0.04836000000000001  0.6905699999999999  1.0000
  C   C94       1.0  0.41481  0.05547  0.81145  1.0000
  C   C95       1.0  0.43094000000000005  0.10258000000000002  0.8439  1.0000
  N   N23       1.0  0.49566000000000004  0.23001000000000002  0.73282  1.0000
  N   N24       1.0  0.50694  0.26808  0.7975  1.0000
  C   C96       1.0  0.45161000000000007  0.2811700000000001  0.96445  1.0000
  H   H61       1.0  0.48558  0.38883  0.98886  1.0000
  H   H62       1.0  0.46369  0.42907  0.91255  1.0000
  H   H63       1.0  0.39377000000000006  0.36901000000000006  0.85873  1.0000
  H   H64       1.0  0.39893  0.33123000000000014  0.07485000000000007  1.0000
  H   H65       1.0  0.37122999999999995  0.28609  0.9549599999999999  1.0000
  H   H66       1.0  0.44665  0.31291  0.24856  1.0000
  H   H67       1.0  0.55213  0.29582  0.16748  1.0000
  H   H68       1.0  0.4707700000000001  0.17819  0.020629999999999996  1.0000
  H   H69       1.0  0.49650000000000005  0.16123000000000004  0.6074799999999999  1.0000
  H   H70       1.0  0.4048  0.012070000000000003  0.6568400000000001  1.0000
  H   H71       1.0  0.42444999999999994  0.10788  0.9351599999999999  1.0000
  H   H72       1.0  0.43134000000000006  0.2710400000000001  0.8637699999999999  1.0000
  Mn  Mn1       1.0  0.5444600000000002  0.6710200000000002  0.9661499999999998  1.0000
  Mn  Mn2       1.0  0.49485999999999997  0.54928  0.9513699999999999  1.0000
  Mn  Mn3       1.0  0.45555  0.32542  0.44837  1.0000
  Mn  Mn4       1.0  0.51325  0.44747  0.40987999999999997  1.0000
  Mn  Mn5       1.0  0.51102  0.5105900000000001  0.66836  1.0000
  C   C97       1.0  0.46445  0.62358  0.09766000000000007  1.0000
  N   N25       1.0  0.48083000000000004  0.62598  0.99011  1.0000
  N   N26       1.0  0.4576500000000001  0.5819400000000002  0.94675  1.0000
  N   N27       1.0  0.4231800000000001  0.5566200000000002  0.007719999999999949  1.0000
  N   N28       1.0  0.42683999999999994  0.58149  0.10387999999999997  1.0000
  N   N29       1.0  0.40439  0.47849  0.84813  1.0000
  N   N30       1.0  0.4462  0.50199  0.8311799999999999  1.0000
  N   N31       1.0  0.45146000000000003  0.4857400000000001  0.7324299999999999  1.0000
  N   N32       1.0  0.4120700000000001  0.4499300000000001  0.68031  1.0000
  C   C98       1.0  0.38329  0.44636  0.7531399999999999  1.0000
  C   C99       1.0  0.59813  0.53034  0.061469999999999914  1.0000
  N   N33       1.0  0.53149  0.51634  0.96858  1.0000
  N   N34       1.0  0.5589300000000001  0.5201800000000001  0.08698000000000006  1.0000
  N   N35       1.0  0.52198  0.5824  0.67263  1.0000
  N   N36       1.0  0.51948  0.5924600000000002  0.7907799999999999  1.0000
  N   N37       1.0  0.5339900000000001  0.6388200000000003  0.79672  1.0000
  N   N38       1.0  0.5448  0.66162  0.68202  1.0000
  N   N39       1.0  0.5501900000000001  0.5187600000000002  0.8698799999999999  1.0000
  N   N40       1.0  0.5936000000000001  0.5299000000000003  0.92329  1.0000
  C   C100      1.0  0.53683  0.6277400000000001  0.60158  1.0000
  N   N41       1.0  0.51851  0.3586800000000001  0.4125599999999999  1.0000
  N   N42       1.0  0.54411  0.40574  0.42275999999999997  1.0000
  N   N43       1.0  0.57828  0.4204000000000001  0.36307999999999996  1.0000
  N   N44       1.0  0.5738900000000001  0.38357000000000013  0.30711  1.0000
  N   N45       1.0  0.60325  0.5100600000000002  0.48015  1.0000
  N   N46       1.0  0.56673  0.49552  0.52348  1.0000
  N   N47       1.0  0.5675  0.53008  0.5799499999999999  1.0000
  N   N48       1.0  0.60424  0.5713500000000002  0.55634  1.0000
  N   N49       1.0  0.43344  0.50303  0.43259  1.0000
  N   N50       1.0  0.4726699999999999  0.50208  0.47629999999999995  1.0000
  N   N51       1.0  0.48056  0.48649  0.38125  1.0000
  N   N52       1.0  0.4485600000000001  0.4792700000000001  0.27187  1.0000
  N   N53       1.0  0.49611  0.4373100000000001  0.6826  1.0000
  N   N54       1.0  0.49391  0.41645  0.5791  1.0000
  N   N55       1.0  0.47665  0.3693500000000001  0.60067  1.0000
  N   N56       1.0  0.4668900000000001  0.35638  0.72164  1.0000
  Cl  Cl1       1.0  0.55211  0.6082700000000001  0.08216000000000001  1.0000
  Cl  Cl2       1.0  0.4492500000000001  0.3872200000000001  0.30573  1.0000
  C   C101      1.0  0.53504  0.34525  0.33159  1.0000
  C   C102      1.0  0.62656  0.5569300000000001  0.49614  1.0000
  C   C103      1.0  0.41913000000000006  0.48881000000000013  0.30371  1.0000
  C   C104      1.0  0.47888  0.39826  0.77348  1.0000
  Mn  Mn6       1.0  0.9656900000000002  0.64788  0.82829  1.0000
  Mn  Mn7       1.0  0.002879999999999969  0.56616  0.9721399999999999  1.0000
  Mn  Mn8       1.0  0.06396000000000003  0.3699900000000001  0.57935  1.0000
  Mn  Mn9       1.0  0.002250000000000071  0.4287900000000001  0.49440999999999996  1.0000
  Mn  Mn10      1.0  0.99832  0.4911800000000001  0.74148  1.0000
  C   C105      1.0  0.88399  0.5643000000000001  0.8996899999999999  1.0000
  N   N57       1.0  0.92913  0.58888  0.9434599999999999  1.0000
  N   N58       1.0  0.9421599999999999  0.55499  0.98042  1.0000
  N   N59       1.0  0.90807  0.5130400000000003  0.9407299999999998  1.0000
  N   N60       1.0  0.8713499999999998  0.51756  0.89132  1.0000
  N   N61       1.0  0.95944  0.47192  0.09941  1.0000
  N   N62       1.0  0.9816200000000002  0.4942000000000001  0.0019199999999999218  1.0000
  N   N63       1.0  0.97143  0.46356000000000014  0.9125099999999999  1.0000
  N   N64       1.0  0.93813  0.4205200000000001  0.94403  1.0000
  C   C106      1.0  0.93148  0.42675  0.06349999999999988  1.0000
  C   C107      1.0  0.12335000000000007  0.5924100000000002  0.9400599999999999  1.0000
  N   N65       1.0  0.05642999999999998  0.57404  0.92837  1.0000
  N   N66       1.0  0.09715000000000003  0.6046  0.9819099999999998  1.0000
  N   N67       1.0  0.96425  0.53352  0.6963599999999999  1.0000
  N   N68       1.0  0.97949  0.5686900000000003  0.7759099999999999  1.0000
  N   N69       1.0  0.9667300000000001  0.6016900000000001  0.71895  1.0000
  N   N70       1.0  0.9416999999999999  0.5893  0.59841  1.0000
  N   N71       1.0  0.055789999999999916  0.54485  0.8514899999999999  1.0000
  N   N72       1.0  0.09806000000000004  0.55472  0.85943  1.0000
  C   C108      1.0  0.9387999999999999  0.54652  0.58362  1.0000
  N   N73       1.0  0.07412000000000006  0.4231200000000001  0.42292  1.0000
  N   N74       1.0  0.05898000000000002  0.45241000000000003  0.43271999999999994  1.0000
  N   N75       1.0  0.09244000000000004  0.4966500000000001  0.44782  1.0000
  N   N76       1.0  0.12821000000000005  0.4983500000000001  0.42353999999999997  1.0000
  N   N77       1.0  0.033859999999999994  0.53053  0.37638  1.0000
  N   N78       1.0  0.015050000000000074  0.4990500000000001  0.47411  1.0000
  N   N79       1.0  0.023200000000000016  0.52249  0.57808  1.0000
  N   N80       1.0  0.047540000000000096  0.5696000000000002  0.55484  1.0000
  N   N81       1.0  0.9045400000000001  0.4331300000000001  0.55204  1.0000
  N   N82       1.0  0.9438400000000001  0.4366  0.6232499999999999  1.0000
  N   N83       1.0  0.95017  0.4045600000000001  0.58112  1.0000
  N   N84       1.0  0.9131200000000002  0.37368000000000007  0.508  1.0000
  N   N85       1.0  0.035449999999999995  0.45067000000000007  0.78188  1.0000
  N   N86       1.0  0.03701999999999998  0.43274  0.67767  1.0000
  N   N87       1.0  0.06067000000000001  0.40918  0.71199  1.0000
  N   N88       1.0  0.07689000000000006  0.41066000000000014  0.8430400000000001  1.0000
  Cl  Cl3       1.0  0.028059999999999974  0.6469  0.95796  1.0000
  Cl  Cl4       1.0  0.991  0.35135  0.50546  1.0000
  C   C109      1.0  0.11496000000000006  0.4533800000000001  0.39194  1.0000
  C   C110      1.0  0.054510000000000045  0.57421  0.429  1.0000
  C   C111      1.0  0.88555  0.39307  0.48032  1.0000
  C   C112      1.0  0.06326000000000005  0.43774000000000013  0.88744  1.0000
  Mn  Mn11      1.0  0.38316  0.02396  0.15740999999999997  1.0000
  Mn  Mn12      1.0  0.45305  0.9747300000000001  0.29596999999999996  1.0000
  Mn  Mn13      1.0  0.70311  0.04047000000000001  0.98372  1.0000
  Mn  Mn14      1.0  0.60442  0.04398000000000013  0.94262  1.0000
  Mn  Mn15      1.0  0.52949  0.012610000000000001  0.60871  1.0000
  C   C113      1.0  0.42085  0.021990000000000003  0.9224  1.0000
  N   N89       1.0  0.42635  0.0269  0.055569999999999994  1.0000
  N   N90       1.0  0.4537  0.00892  0.11782999999999999  1.0000
  N   N91       1.0  0.46442000000000005  0.99351  0.031179999999999996  1.0000
  N   N92       1.0  0.44519  0.0016800000000000014  0.90816  1.0000
  N   N93       1.0  0.54324  0.03814000000000001  0.22099  1.0000
  N   N94       1.0  0.52308  0.013070000000000007  0.32361  1.0000
  N   N95       1.0  0.54953  0.03448000000000001  0.4355299999999999  1.0000
  N   N96       1.0  0.58753  0.07215000000000003  0.41193  1.0000
  C   C114      1.0  0.58339  0.0739  0.27667  1.0000
  C   C115      1.0  0.45991000000000004  0.8833500000000001  0.41988999999999993  1.0000
  N   N97       1.0  0.4480600000000001  0.9351000000000003  0.47342  1.0000
  N   N98       1.0  0.4268  0.89139  0.43056  1.0000
  N   N99       1.0  0.47689  0.03519  0.51317  1.0000
  N   N100      1.0  0.45659  0.02466  0.38489  1.0000
  N   N101      1.0  0.43424  0.04844000000000001  0.32312  1.0000
  N   N102      1.0  0.43989000000000006  0.07857  0.40492  1.0000
  N   N103      1.0  0.4893700000000001  0.9454600000000002  0.5336299999999999  1.0000
  N   N104      1.0  0.50003  0.91789  0.48444  1.0000
  C   C116      1.0  0.46662000000000003  0.07185000000000002  0.52122  1.0000
  N   N105      1.0  0.6590500000000002  0.9982500000000002  0.10234999999999972  1.0000
  N   N106      1.0  0.6194600000000001  0.9966500000000003  0.08207000000000009  1.0000
  N   N107      1.0  0.5908700000000001  0.9542300000000002  0.13041999999999998  1.0000
  N   N108      1.0  0.61143  0.9276600000000003  0.18416999999999994  1.0000
  N   N109      1.0  0.52341  0.9664000000000003  0.009390000000000008  1.0000
  N   N110      1.0  0.53842  0.9977300000000002  0.90951  1.0000
  N   N111      1.0  0.50931  0.98357  0.79306  1.0000
  N   N112      1.0  0.4748600000000002  0.9401000000000003  0.81758  1.0000
  N   N113      1.0  0.56594  0.12060000000000003  0.62089  1.0000
  N   N114      1.0  0.56816  0.08073  0.67987  1.0000
  N   N115      1.0  0.59357  0.08996000000000001  0.80252  1.0000
  N   N116      1.0  0.60991  0.13520000000000004  0.82655  1.0000
  N   N117      1.0  0.58503  0.9974300000000003  0.68881  1.0000
  N   N118      1.0  0.6128600000000001  0.015810000000000327  0.80468  1.0000
  N   N119      1.0  0.65001  0.012049999999999898  0.8277499999999999  1.0000
  N   N120      1.0  0.64839  0.9892400000000001  0.7325899999999999  1.0000
  Cl  Cl5       1.0  0.37729  0.94872  0.24273  1.0000
  Cl  Cl6       1.0  0.67926  0.09484000000000001  0.97723  1.0000
  C   C117      1.0  0.65389  0.95567  0.16599999999999993  1.0000
  C   C118      1.0  0.4847200000000002  0.9301700000000003  0.95528  1.0000
  C   C119      1.0  0.59263  0.15414  0.71391  1.0000
  C   C120      1.0  0.60883  0.98022  0.64552  1.0000
