data_image0
_chemical_formula_structural       C4O2C14NC4NC15H20C4O2C14NC4NC15H20C4O2C14NC4NC15H20C4O2C14NC4NC15H20C4O2C14NC4NC15H20C4O2C14NC4NC15H20Mn5CN8C2N8CN16Cl2C4Mn5CN8C2N8CN16Cl2C4Mn5CN8C2N8CN16Cl2C4
_chemical_formula_sum              "C246 O12 N108 H120 Mn15 Cl6"
_cell_length_a       41.4532
_cell_length_b       40.1322
_cell_length_c       12.690399999999999
_cell_angle_alpha    76.07459999999999
_cell_angle_beta     103.3562
_cell_angle_gamma    121.9145

_symmetry_space_group_name_H-M    'P 1'
_symmetry_Int_Tables_number       1

loop_
  _symmetry_equiv_pos_as_xyz
  'x,y,z'

loop_
  _atom_site_type_symbol
  _atom_site_label
  _atom_site_symmetry_multiplicity
  _atom_site_fract_x
  _atom_site_fract_y
  _atom_site_fract_z
  _atom_site_occupancy
  C   C1        1.0  0.07131000000000004  0.39244  0.33316  1.0000
  C   C2        1.0  0.03856  0.35433  0.3383  1.0000
  C   C3        1.0  0.03760000000000003  0.32354  0.30035  1.0000
  C   C4        1.0  0.0028800000000000097  0.2837  0.30153  1.0000
  O   O1        1.0  0.0013100000000000097  0.25821  0.26048  1.0000
  O   O2        1.0  0.97183  0.2751  0.34996  1.0000
  C   C5        1.0  0.06857  0.33247  0.24993  1.0000
  C   C6        1.0  0.10096000000000005  0.37039  0.24617  1.0000
  C   C7        1.0  0.12110999999999995  0.38788999999999996  0.15007  1.0000
  C   C8        1.0  0.16144  0.4061  0.16329  1.0000
  C   C9        1.0  0.18238  0.43587  0.08224  1.0000
  C   C10       1.0  0.16236999999999993  0.44743999999999995  0.99048  1.0000
  C   C11       1.0  0.12320000000000006  0.42949  0.9781199999999999  1.0000
  C   C12       1.0  0.10153000000000002  0.39897  0.05447  1.0000
  C   C13       1.0  0.11268999999999993  0.44712999999999997  0.8806699999999997  1.0000
  C   C14       1.0  0.07654  0.43981  0.82808  1.0000
  C   C15       1.0  0.07402000000000003  0.46024000000000004  0.72238  1.0000
  C   C16       1.0  0.10812999999999998  0.48599  0.6717299999999999  1.0000
  C   C17       1.0  0.14455999999999994  0.49395  0.72882  1.0000
  C   C18       1.0  0.14610000000000004  0.47401  0.83465  1.0000
  N   N1        1.0  0.17714  0.47517999999999994  0.9036  1.0000
  C   C19       1.0  0.21617999999999996  0.49230999999999997  0.88602  1.0000
  C   C20       1.0  0.2448  0.52602  0.9344399999999999  1.0000
  C   C21       1.0  0.28184  0.53169  0.97234  1.0000
  C   C22       1.0  0.29048  0.50336  0.96222  1.0000
  N   N2        1.0  0.32753  0.50663  0.00201  1.0000
  C   C23       1.0  0.34374999999999994  0.4947099999999999  0.9479199999999999  1.0000
  C   C24       1.0  0.33891999999999994  0.49379999999999996  0.83459  1.0000
  C   C25       1.0  0.36406  0.48766999999999994  0.79337  1.0000
  C   C26       1.0  0.39232  0.4811  0.8658299999999999  1.0000
  C   C27       1.0  0.39318000000000003  0.47789  0.9796899999999998  1.0000
  C   C28       1.0  0.37112999999999996  0.48824999999999996  0.01593  1.0000
  C   C29       1.0  0.3753599999999999  0.5001999999999999  0.11307999999999997  1.0000
  C   C30       1.0  0.40476000000000006  0.50754  0.19838999999999996  1.0000
  C   C31       1.0  0.4082799999999999  0.5261  0.28557  1.0000
  C   C32       1.0  0.37925  0.53543  0.28274  1.0000
  C   C33       1.0  0.34899  0.52777  0.19219  1.0000
  C   C34       1.0  0.34855  0.51115  0.10471  1.0000
  C   C35       1.0  0.2624099999999999  0.47129999999999994  0.9061599999999999  1.0000
  C   C36       1.0  0.22630999999999996  0.46657999999999994  0.8655899999999999  1.0000
  C   C37       1.0  0.10408000000000002  0.39822  0.30130999999999997  1.0000
  H   H1        1.0  0.013149999999999959  0.34922999999999993  0.3646499999999999  1.0000
  H   H2        1.0  0.94985  0.24691999999999997  0.34602  1.0000
  H   H3        1.0  0.06611999999999996  0.31119  0.20563999999999993  1.0000
  H   H4        1.0  0.17657999999999996  0.3991499999999999  0.23924  1.0000
  H   H5        1.0  0.21328999999999998  0.45037999999999995  0.0933  1.0000
  H   H6        1.0  0.07075999999999998  0.38668  0.045349999999999994  1.0000
  H   H7        1.0  0.05098999999999999  0.41762000000000005  0.8654999999999999  1.0000
  H   H8        1.0  0.10631999999999998  0.49973  0.58749  1.0000
  H   H9        1.0  0.1703  0.51409  0.69033  1.0000
  H   H10       1.0  0.23750999999999997  0.54617  0.9501399999999999  1.0000
  H   H11       1.0  0.30317  0.55737  0.01144  1.0000
  H   H12       1.0  0.31905999999999995  0.5014299999999998  0.7781699999999999  1.0000
  H   H13       1.0  0.36418  0.49235999999999996  0.70578  1.0000
  H   H14       1.0  0.4150999999999999  0.4738899999999999  0.03698  1.0000
  H   H15       1.0  0.42651000000000006  0.50179  0.19039999999999996  1.0000
  H   H16       1.0  0.38079999999999997  0.5499199999999999  0.34699  1.0000
  H   H17       1.0  0.32823  0.53661  0.18896  1.0000
  H   H18       1.0  0.2678400000000001  0.44853000000000004  0.8981699999999999  1.0000
  H   H19       1.0  0.20450000000000002  0.43973000000000007  0.8316899999999999  1.0000
  H   H20       1.0  0.12912  0.42777  0.29446  1.0000
  C   C38       1.0  0.87561  0.44957  0.34225  1.0000
  C   C39       1.0  0.8539200000000001  0.46217  0.25978  1.0000
  C   C40       1.0  0.82049  0.43463999999999997  0.20237  1.0000
  C   C41       1.0  0.7984000000000001  0.44779  0.11314999999999999  1.0000
  O   O3        1.0  0.76561  0.42381  0.08099  1.0000
  O   O4        1.0  0.8156700000000001  0.4873100000000001  0.06299  1.0000
  C   C42       1.0  0.8111000000000002  0.39492  0.22031999999999993  1.0000
  C   C43       1.0  0.83638  0.38381  0.28916  1.0000
  C   C44       1.0  0.84157  0.35463  0.25547  1.0000
  C   C45       1.0  0.81414  0.31398  0.27041999999999994  1.0000
  C   C46       1.0  0.8127300000000001  0.28844  0.20898999999999998  1.0000
  C   C47       1.0  0.83871  0.30414  0.13199  1.0000
  C   C48       1.0  0.86674  0.34345  0.12228  1.0000
  C   C49       1.0  0.86902  0.3693299999999999  0.18332999999999997  1.0000
  C   C50       1.0  0.88158  0.35161  0.026629999999999928  1.0000
  C   C51       1.0  0.9074800000000001  0.38758  0.97231  1.0000
  C   C52       1.0  0.9140100000000001  0.38936  0.8656  1.0000
  C   C53       1.0  0.89294  0.35419  0.81616  1.0000
  C   C54       1.0  0.86589  0.31800999999999996  0.87282  1.0000
  C   C55       1.0  0.861  0.31737  0.9795799999999999  1.0000
  N   N3        1.0  0.83452  0.28748  0.04459  1.0000
  C   C56       1.0  0.79797  0.25508  0.010419999999999997  1.0000
  C   C57       1.0  0.78515  0.21727  0.07361  1.0000
  C   C58       1.0  0.74596  0.19173  0.08297999999999997  1.0000
  C   C59       1.0  0.71937  0.20359  0.027959999999999995  1.0000
  N   N4        1.0  0.67908  0.17912  0.03809  1.0000
  C   C60       1.0  0.65082  0.16892000000000001  0.9518999999999999  1.0000
  C   C61       1.0  0.65457  0.17142  0.84294  1.0000
  C   C62       1.0  0.62179  0.14794  0.77472  1.0000
  C   C63       1.0  0.5864000000000001  0.12198999999999999  0.8169499999999998  1.0000
  C   C64       1.0  0.5822300000000001  0.12514  0.92012  1.0000
  C   C65       1.0  0.6153  0.14746  0.98682  1.0000
  C   C66       1.0  0.62146  0.14414  0.09829  1.0000
  C   C67       1.0  0.59508  0.1225  0.17178999999999997  1.0000
  C   C68       1.0  0.60779  0.11847  0.28463  1.0000
  C   C69       1.0  0.64796  0.13732  0.31937  1.0000
  C   C70       1.0  0.67469  0.16002  0.24116  1.0000
  C   C71       1.0  0.66036  0.16275  0.12914  1.0000
  C   C72       1.0  0.73208  0.23953000000000002  0.9565499999999999  1.0000
  C   C73       1.0  0.77083  0.26469999999999994  0.9466  1.0000
  C   C74       1.0  0.8657200000000002  0.40977  0.35857  1.0000
  H   H21       1.0  0.86473  0.49352000000000007  0.23581999999999997  1.0000
  H   H22       1.0  0.7987800000000002  0.49426  0.0011799999999999998  1.0000
  H   H23       1.0  0.78743  0.37422  0.16914  1.0000
  H   H24       1.0  0.7919700000000001  0.30267  0.32211  1.0000
  H   H25       1.0  0.7896699999999999  0.2580699999999999  0.21514999999999995  1.0000
  H   H26       1.0  0.88787  0.40094  0.16506  1.0000
  H   H27       1.0  0.92208  0.41375  0.012459999999999914  1.0000
  H   H28       1.0  0.8969000000000001  0.35484  0.7339599999999998  1.0000
  H   H29       1.0  0.84928  0.2914900000000001  0.8341299999999999  1.0000
  H   H30       1.0  0.80572  0.20955  0.1253  1.0000
  H   H31       1.0  0.73659  0.16359000000000004  0.13570999999999997  1.0000
  H   H32       1.0  0.68231  0.1871  0.8144199999999999  1.0000
  H   H33       1.0  0.62547  0.14517000000000002  0.6960799999999999  1.0000
  H   H34       1.0  0.5558799999999999  0.10405  0.9552999999999999  1.0000
  H   H35       1.0  0.56492  0.10818  0.14038  1.0000
  H   H36       1.0  0.65843  0.13451  0.40564  1.0000
  H   H37       1.0  0.70518  0.17395999999999992  0.26777  1.0000
  H   H38       1.0  0.71198  0.24906999999999999  0.91273  1.0000
  H   H39       1.0  0.78012  0.29392  0.89959  1.0000
  H   H40       1.0  0.88587  0.40146  0.40869  1.0000
  C   C75       1.0  0.64964  0.58606  0.50178  1.0000
  C   C76       1.0  0.6399499999999999  0.60808  0.40918  1.0000
  C   C77       1.0  0.63092  0.59421  0.30877  1.0000
  C   C78       1.0  0.59296  0.58413  0.24395  1.0000
  O   O5        1.0  0.5791  0.5604  0.17924999999999996  1.0000
  O   O6        1.0  0.57066  0.59724  0.26706  1.0000
  C   C79       1.0  0.64943  0.57535  0.2939  1.0000
  C   C80       1.0  0.66859  0.56181  0.38453  1.0000
  C   C81       1.0  0.67901  0.53348  0.37012  1.0000
  C   C82       1.0  0.7173600000000001  0.54221  0.3969399999999999  1.0000
  C   C83       1.0  0.73163  0.52802  0.33941  1.0000
  C   C84       1.0  0.70708  0.50615  0.25415  1.0000
  C   C85       1.0  0.6685  0.4932599999999999  0.23958999999999997  1.0000
  C   C86       1.0  0.65325  0.50447  0.30181  1.0000
  C   C87       1.0  0.65519  0.48526  0.13348  1.0000
  C   C88       1.0  0.62122  0.48120999999999997  0.0721099999999999  1.0000
  C   C89       1.0  0.61937  0.49089  0.9577199999999999  1.0000
  C   C90       1.0  0.65073  0.49974  0.9070099999999999  1.0000
  C   C91       1.0  0.68455  0.5015099999999998  0.97122  1.0000
  C   C92       1.0  0.68647  0.49512999999999996  0.08586999999999989  1.0000
  N   N5        1.0  0.71817  0.50585  0.16210999999999998  1.0000
  C   C93       1.0  0.75766  0.52195  0.15145999999999998  1.0000
  C   C94       1.0  0.77939  0.56126  0.10238  1.0000
  C   C95       1.0  0.8196200000000001  0.58098  0.12112  1.0000
  C   C96       1.0  0.83872  0.56171  0.18977  1.0000
  N   N6        1.0  0.87986  0.57918  0.19578999999999994  1.0000
  C   C97       1.0  0.89953  0.59246  0.10836  1.0000
  C   C98       1.0  0.8846200000000001  0.59347  0.99726  1.0000
  C   C99       1.0  0.9059200000000001  0.59626  0.92125  1.0000
  C   C100      1.0  0.9408000000000001  0.59633  0.9568199999999999  1.0000
  C   C101      1.0  0.95794  0.60117  0.066  1.0000
  C   C102      1.0  0.93614  0.598  0.14048  1.0000
  C   C103      1.0  0.9399200000000001  0.58832  0.25269  1.0000
  C   C104      1.0  0.97043  0.58764  0.32781  1.0000
  C   C105      1.0  0.9648  0.57398  0.43904  1.0000
  C   C106      1.0  0.92837  0.5601  0.4696  1.0000
  C   C107      1.0  0.89845  0.56138  0.39275999999999994  1.0000
  C   C108      1.0  0.9049700000000002  0.57626  0.28358  1.0000
  C   C109      1.0  0.8164900000000002  0.52323  0.24312999999999996  1.0000
  C   C110      1.0  0.7767  0.5033  0.22202  1.0000
  C   C111      1.0  0.6710899999999999  0.56983  0.48869  1.0000
  H   H41       1.0  0.62476  0.62191  0.4207899999999999  1.0000
  H   H42       1.0  0.54395  0.58524  0.22490999999999997  1.0000
  H   H43       1.0  0.64416  0.56615  0.21505999999999997  1.0000
  H   H44       1.0  0.73721  0.56407  0.45056999999999997  1.0000
  H   H45       1.0  0.76215  0.53907  0.35054  1.0000
  H   H46       1.0  0.62376  0.4977599999999999  0.28078  1.0000
  H   H47       1.0  0.59847  0.47617  0.1128499999999999  1.0000
  H   H48       1.0  0.65049  0.509  0.81959  1.0000
  H   H49       1.0  0.7094999999999999  0.51152  0.9324899999999999  1.0000
  H   H50       1.0  0.76517  0.57703  0.0531  1.0000
  H   H51       1.0  0.83598  0.61132  0.08251999999999997  1.0000
  H   H52       1.0  0.8559299999999999  0.5883499999999999  0.96937  1.0000
  H   H53       1.0  0.8923599999999998  0.59196  0.8378899999999998  1.0000
  H   H54       1.0  0.98339  0.59875  0.09587  1.0000
  H   H55       1.0  0.99809  0.59949  0.30182  1.0000
  H   H56       1.0  0.9241  0.55093  0.55517  1.0000
  H   H57       1.0  0.87163  0.55201  0.41987  1.0000
  H   H58       1.0  0.82945  0.50775  0.30023999999999995  1.0000
  H   H59       1.0  0.7604099999999999  0.47394  0.26664  1.0000
  H   H60       1.0  0.68032  0.55416  0.55953  1.0000
  C   C112      1.0  0.15832999999999997  0.58294  0.8222399999999997  1.0000
  C   C113      1.0  0.17988000000000004  0.57037  0.90694  1.0000
  C   C114      1.0  0.21081000000000005  0.59771  0.97201  1.0000
  C   C115      1.0  0.23116000000000006  0.58475  0.07059999999999977  1.0000
  O   O7        1.0  0.2647899999999998  0.6074  0.09899999999999998  1.0000
  O   O8        1.0  0.21307999999999994  0.54725  0.13249  1.0000
  C   C116      1.0  0.21885  0.63712  0.953  1.0000
  C   C117      1.0  0.19518  0.64844  0.8744399999999999  1.0000
  C   C118      1.0  0.18716999999999998  0.6763  0.9030799999999998  1.0000
  C   C119      1.0  0.21388999999999997  0.71702  0.88781  1.0000
  C   C120      1.0  0.21693  0.74118  0.9565399999999998  1.0000
  C   C121      1.0  0.19391000000000003  0.72368  0.04221999999999999  1.0000
  C   C122      1.0  0.16402000000000005  0.68501  0.04634999999999999  1.0000
  C   C123      1.0  0.15988  0.66056  0.97696  1.0000
  C   C124      1.0  0.1526  0.67418  0.14898  1.0000
  C   C125      1.0  0.12582  0.63774  0.20030999999999996  1.0000
  C   C126      1.0  0.12256000000000002  0.63382  0.31209  1.0000
  C   C127      1.0  0.14795999999999998  0.6666599999999999  0.3694199999999999  1.0000
  C   C128      1.0  0.17668  0.70231  0.31699999999999995  1.0000
  C   C129      1.0  0.17811  0.70553  0.20549  1.0000
  N   N7        1.0  0.205  0.73571  0.14239  1.0000
  C   C130      1.0  0.24555999999999994  0.75563  0.17815999999999999  1.0000
  C   C131      1.0  0.26343  0.73255  0.20181  1.0000
  C   C132      1.0  0.30077999999999994  0.7488199999999999  0.17969999999999997  1.0000
  C   C133      1.0  0.3215500000000001  0.78882  0.13667  1.0000
  N   N8        1.0  0.36169  0.80628  0.13173  1.0000
  C   C134      1.0  0.38848  0.82019  0.21854999999999994  1.0000
  C   C135      1.0  0.38156  0.8191599999999999  0.32255  1.0000
  C   C136      1.0  0.41083  0.84713  0.38782  1.0000
  C   C137      1.0  0.44588  0.87574  0.34749  1.0000
  C   C138      1.0  0.45403000000000004  0.87267  0.24980999999999998  1.0000
  C   C139      1.0  0.4244299999999999  0.84474  0.18631999999999996  1.0000
  C   C140      1.0  0.42000999999999994  0.84503  0.07557  1.0000
  C   C141      1.0  0.4463799999999999  0.8690399999999999  0.00209  1.0000
  C   C142      1.0  0.43378  0.87095  0.8886199999999999  1.0000
  C   C143      1.0  0.39394000000000007  0.84809  0.8532499999999998  1.0000
  C   C144      1.0  0.36741  0.82348  0.93085  1.0000
  C   C145      1.0  0.38140000000000013  0.82242  0.04298  1.0000
  C   C146      1.0  0.30549  0.81304  0.12448999999999998  1.0000
  C   C147      1.0  0.26770999999999995  0.79659  0.14492999999999998  1.0000
  C   C148      1.0  0.16823000000000002  0.62283  0.80137  1.0000
  H   H61       1.0  0.17009000000000002  0.53893  0.9289199999999997  1.0000
  H   H62       1.0  0.18425000000000025  0.5322800000000001  0.1141399999999999  1.0000
  H   H63       1.0  0.23956999999999995  0.65713  0.010760000000000103  1.0000
  H   H64       1.0  0.23508999999999997  0.72906  0.8320699999999998  1.0000
  H   H65       1.0  0.24019999999999997  0.77153  0.9516499999999998  1.0000
  H   H66       1.0  0.14107  0.62882  0.9937399999999998  1.0000
  H   H67       1.0  0.10784999999999999  0.61319  0.15399  1.0000
  H   H68       1.0  0.14619000000000001  0.6644  0.45485  1.0000
  H   H69       1.0  0.19701  0.72668  0.36212  1.0000
  H   H70       1.0  0.24677  0.70082  0.22451  1.0000
  H   H71       1.0  0.31356  0.73022  0.19515999999999997  1.0000
  H   H72       1.0  0.3532699999999999  0.80045  0.3479099999999999  1.0000
  H   H73       1.0  0.4042200000000001  0.8500900000000001  0.46174  1.0000
  H   H74       1.0  0.47996  0.89596  0.21567999999999998  1.0000
  H   H75       1.0  0.47609000000000007  0.8873  0.03353  1.0000
  H   H76       1.0  0.38348  0.84956  0.7668399999999999  1.0000
  H   H77       1.0  0.33701999999999993  0.80684  0.90421  1.0000
  H   H78       1.0  0.3220899999999999  0.84454  0.09787  1.0000
  H   H79       1.0  0.25464999999999993  0.815  0.12443  1.0000
  H   H80       1.0  0.14876999999999987  0.6312499999999999  0.74572  1.0000
  C   C149      1.0  0.6716100000000002  0.94079  0.9693999999999999  1.0000
  C   C150      1.0  0.7045099999999999  0.9777699999999999  0.9481799999999999  1.0000
  C   C151      1.0  0.72928  0.99879  0.03477  1.0000
  C   C152      1.0  0.76235  0.03882  0.01146  1.0000
  O   O9        1.0  0.77419  0.050069999999999996  0.92262  1.0000
  O   O10       1.0  0.77997  0.06393  0.09121000000000001  1.0000
  C   C153      1.0  0.72001  0.98278  0.14257999999999998  1.0000
  C   C154      1.0  0.68864  0.9447  0.16336  1.0000
  C   C155      1.0  0.6714300000000001  0.9289400000000001  0.26629  1.0000
  C   C156      1.0  0.66022  0.88872  0.30607  1.0000
  C   C157      1.0  0.6258  0.86351  0.34994  1.0000
  C   C158      1.0  0.6052  0.87999  0.36559  1.0000
  C   C159      1.0  0.61906  0.92035  0.34418999999999994  1.0000
  C   C160      1.0  0.6522099999999998  0.9460199999999999  0.29268  1.0000
  C   C161      1.0  0.5929700000000001  0.9261100000000001  0.37799  1.0000
  C   C162      1.0  0.59594  0.96066  0.39734  1.0000
  C   C163      1.0  0.57202  0.9570399999999999  0.46884  1.0000
  C   C164      1.0  0.54563  0.91822  0.51483  1.0000
  C   C165      1.0  0.53956  0.88404  0.4818399999999999  1.0000
  C   C166      1.0  0.56417  0.88861  0.41449  1.0000
  N   N9        1.0  0.5707100000000002  0.86007  0.40229999999999994  1.0000
  C   C167      1.0  0.54409  0.81889  0.3923399999999999  1.0000
  C   C168      1.0  0.52161  0.80882  0.29092  1.0000
  C   C169      1.0  0.50994  0.77257  0.25773  1.0000
  C   C170      1.0  0.52124  0.74609  0.32452  1.0000
  N   N10       1.0  0.51573  0.71177  0.28598  1.0000
  C   C171      1.0  0.51435  0.67984  0.35695999999999994  1.0000
  C   C172      1.0  0.49685  0.66285  0.45249  1.0000
  C   C173      1.0  0.50381  0.63409  0.5235  1.0000
  C   C174      1.0  0.5305  0.62527  0.50288  1.0000
  C   C175      1.0  0.54398  0.63908  0.4002  1.0000
  C   C176      1.0  0.5341799999999999  0.6654999999999999  0.32764  1.0000
  C   C177      1.0  0.54408  0.68547  0.22603  1.0000
  C   C178      1.0  0.55367  0.67424  0.14772  1.0000
  C   C179      1.0  0.54434  0.68578  0.03674  1.0000
  C   C180      1.0  0.53324  0.71508  0.00912  1.0000
  C   C181      1.0  0.52804  0.72975  0.09138  1.0000
  C   C182      1.0  0.53173  0.71282  0.20094999999999993  1.0000
  C   C183      1.0  0.54093  0.75514  0.43007  1.0000
  C   C184      1.0  0.5513  0.79051  0.4641399999999999  1.0000
  C   C185      1.0  0.66728  0.9225800000000001  0.07725000000000004  1.0000
  H   H81       1.0  0.7086799999999999  0.99199  0.86449  1.0000
  H   H82       1.0  0.8015300000000001  0.09091  0.06458000000000008  1.0000
  H   H83       1.0  0.73642  0.99983  0.2094  1.0000
  H   H84       1.0  0.67447  0.87555  0.28486  1.0000
  H   H85       1.0  0.61564  0.83197  0.36997  1.0000
  H   H86       1.0  0.6598999999999999  0.9766499999999999  0.26224  1.0000
  H   H87       1.0  0.6196600000000001  0.9893300000000002  0.3711199999999999  1.0000
  H   H88       1.0  0.5319399999999999  0.9141199999999999  0.58347  1.0000
  H   H89       1.0  0.52018  0.85491  0.52089  1.0000
  H   H90       1.0  0.51634  0.83072  0.2332  1.0000
  H   H91       1.0  0.49354  0.76617  0.17843  1.0000
  H   H92       1.0  0.4798899999999999  0.6729  0.47402  1.0000
  H   H93       1.0  0.4934700000000001  0.62369  0.60265  1.0000
  H   H94       1.0  0.56573  0.63436  0.38508  1.0000
  H   H95       1.0  0.5601000000000002  0.6506200000000001  0.1706  1.0000
  H   H96       1.0  0.5245799999999999  0.7232799999999998  0.92429  1.0000
  H   H97       1.0  0.51668  0.74963  0.06735  1.0000
  H   H98       1.0  0.55088  0.73618  0.48439999999999994  1.0000
  H   H99       1.0  0.56957  0.7981399999999998  0.54089  1.0000
  H   H100      1.0  0.6418699999999999  0.8939399999999998  0.09376999999999991  1.0000
  C   C186      1.0  0.46224  0.012649999999999996  0.7572  1.0000
  C   C187      1.0  0.44968000000000014  0.9805300000000001  0.84113  1.0000
  C   C188      1.0  0.44598  0.98511  0.9427299999999998  1.0000
  C   C189      1.0  0.42346999999999996  0.9497299999999999  0.019039999999999946  1.0000
  O   O11       1.0  0.42245  0.95307  0.11077000000000004  1.0000
  O   O12       1.0  0.4006000000000001  0.9128900000000001  0.98286  1.0000
  C   C190      1.0  0.45656  0.02279000000000001  0.9617199999999999  1.0000
  C   C191      1.0  0.46526000000000006  0.05457000000000001  0.8756499999999999  1.0000
  C   C192      1.0  0.45953000000000005  0.08755999999999999  0.88437  1.0000
  C   C193      1.0  0.48376  0.12781  0.8421699999999999  1.0000
  C   C194      1.0  0.47769  0.15815  0.8553  1.0000
  C   C195      1.0  0.44657  0.14739000000000002  0.9079799999999999  1.0000
  C   C196      1.0  0.42248  0.10816000000000002  0.94557  1.0000
  C   C197      1.0  0.42828  0.07801999999999999  0.93582  1.0000
  C   C198      1.0  0.39969  0.10750999999999998  0.010669999999999997  1.0000
  C   C199      1.0  0.38347  0.07899999999999997  0.0993  1.0000
  C   C200      1.0  0.3890600000000001  0.09368  0.19630999999999998  1.0000
  C   C201      1.0  0.39044  0.13025  0.18603  1.0000
  C   C202      1.0  0.402  0.15767  0.09058  1.0000
  C   C203      1.0  0.4104400000000001  0.14661999999999994  0.00823  1.0000
  N   N11       1.0  0.43853  0.17131  0.94353  1.0000
  C   C204      1.0  0.46062  0.21350999999999998  0.94288  1.0000
  C   C205      1.0  0.49075  0.22976  0.02718  1.0000
  C   C206      1.0  0.50373  0.26788  0.04963  1.0000
  C   C207      1.0  0.48644000000000004  0.28989  0.98897  1.0000
  N   N12       1.0  0.49707  0.32796  0.014259999999999997  1.0000
  C   C208      1.0  0.49083  0.33545  0.10457  1.0000
  C   C209      1.0  0.48997  0.31525  0.21128999999999998  1.0000
  C   C210      1.0  0.49121999999999993  0.33312  0.29644  1.0000
  C   C211      1.0  0.49104999999999993  0.3694099999999999  0.2735  1.0000
  C   C212      1.0  0.48717000000000005  0.38656  0.16365  1.0000
  C   C213      1.0  0.48838  0.36963  0.08203  1.0000
  C   C214      1.0  0.49276  0.38391  0.9731799999999998  1.0000
  C   C215      1.0  0.48657999999999996  0.41309  0.9006499999999997  1.0000
  C   C216      1.0  0.49074  0.41767  0.78977  1.0000
  C   C217      1.0  0.50595  0.39727  0.75961  1.0000
  C   C218      1.0  0.50924  0.36672  0.83192  1.0000
  C   C219      1.0  0.50027  0.35914  0.9372099999999998  1.0000
  C   C220      1.0  0.45742  0.274  0.9020999999999999  1.0000
  C   C221      1.0  0.44485  0.23638  0.87928  1.0000
  C   C222      1.0  0.46981999999999996  0.04975999999999999  0.77488  1.0000
  H   H101      1.0  0.43810999999999994  0.9510199999999999  0.82299  1.0000
  H   H102      1.0  0.38391  0.8916799999999999  0.03905000000000003  1.0000
  H   H103      1.0  0.45279  0.02598  0.039649999999999956  1.0000
  H   H104      1.0  0.5078300000000002  0.13569  0.80235  1.0000
  H   H105      1.0  0.49743000000000004  0.18897  0.8285399999999999  1.0000
  H   H106      1.0  0.40918000000000004  0.04777  0.96927  1.0000
  H   H107      1.0  0.38114  0.05052  0.10509  1.0000
  H   H108      1.0  0.3917  0.141  0.25826999999999994  1.0000
  H   H109      1.0  0.41026000000000007  0.1882  0.08935999999999998  1.0000
  H   H110      1.0  0.50213  0.21183  0.08079  1.0000
  H   H111      1.0  0.5263500000000001  0.2797  0.11602999999999998  1.0000
  H   H112      1.0  0.49187000000000003  0.28857  0.23027  1.0000
  H   H113      1.0  0.49543  0.32039  0.3804  1.0000
  H   H114      1.0  0.48912  0.41532  0.14397  1.0000
  H   H115      1.0  0.47518999999999995  0.42829999999999996  0.9262  1.0000
  H   H116      1.0  0.51048  0.40153  0.6754199999999999  1.0000
  H   H117      1.0  0.51718  0.34869  0.8049099999999999  1.0000
  H   H118      1.0  0.4433000000000001  0.29021  0.85458  1.0000
  H   H119      1.0  0.42047999999999996  0.22352999999999998  0.81798  1.0000
  H   H120      1.0  0.47409  0.07308  0.70604  1.0000
  Mn  Mn1       1.0  0.6017  0.66798  0.8894799999999999  1.0000
  Mn  Mn2       1.0  0.54222  0.56663  0.91081  1.0000
  Mn  Mn3       1.0  0.43621999999999994  0.39468  0.39413  1.0000
  Mn  Mn4       1.0  0.50832  0.49114  0.40994  1.0000
  Mn  Mn5       1.0  0.51652  0.52636  0.6557499999999999  1.0000
  C   C223      1.0  0.52851  0.65448  0.96653  1.0000
  N   N13       1.0  0.5489  0.64129  0.93732  1.0000
  N   N14       1.0  0.52494  0.60309  0.9320199999999997  1.0000
  N   N15       1.0  0.49096  0.59272  0.95307  1.0000
  N   N16       1.0  0.4922800000000001  0.6240500000000001  0.9753299999999998  1.0000
  N   N17       1.0  0.46084000000000014  0.5164100000000001  0.89881  1.0000
  N   N18       1.0  0.4895  0.52932  0.8455399999999998  1.0000
  N   N19       1.0  0.4772700000000001  0.51565  0.75041  1.0000
  N   N20       1.0  0.43912  0.49408  0.73769  1.0000
  C   C224      1.0  0.42975  0.49476  0.8332499999999998  1.0000
  C   C225      1.0  0.59102  0.5037500000000001  0.9042999999999998  1.0000
  N   N21       1.0  0.55908  0.5319999999999998  0.88595  1.0000
  N   N22       1.0  0.58371  0.52409  0.95608  1.0000
  N   N23       1.0  0.54315  0.58584  0.67263  1.0000
  N   N24       1.0  0.5569  0.59839  0.76854  1.0000
  N   N25       1.0  0.57807  0.63732  0.75837  1.0000
  N   N26       1.0  0.57767  0.6519499999999999  0.65386  1.0000
  N   N27       1.0  0.5503  0.51677  0.7953899999999999  1.0000
  N   N28       1.0  0.57065  0.4990899999999999  0.80292  1.0000
  C   C226      1.0  0.55514  0.61988  0.59993  1.0000
  N   N29       1.0  0.49176000000000003  0.41242  0.38821  1.0000
  N   N30       1.0  0.5197  0.44822  0.40842  1.0000
  N   N31       1.0  0.55285  0.4537899999999999  0.39545  1.0000
  N   N32       1.0  0.54714  0.42176  0.36372999999999994  1.0000
  N   N33       1.0  0.58922  0.52662  0.49001  1.0000
  N   N34       1.0  0.55557  0.5173  0.5094699999999999  1.0000
  N   N35       1.0  0.55939  0.53949  0.57715  1.0000
  N   N36       1.0  0.59596  0.56468  0.60362  1.0000
  N   N37       1.0  0.45176  0.53499  0.47608  1.0000
  N   N38       1.0  0.48468  0.5340699999999999  0.50422  1.0000
  N   N39       1.0  0.49535  0.53292  0.4149  1.0000
  N   N40       1.0  0.47368  0.53847  0.32798  1.0000
  N   N41       1.0  0.48949  0.46727  0.6347499999999999  1.0000
  N   N42       1.0  0.47936  0.45836  0.53451  1.0000
  N   N43       1.0  0.45254  0.42114  0.53157  1.0000
  N   N44       1.0  0.44497  0.40382999999999997  0.63207  1.0000
  Cl  Cl1       1.0  0.60255  0.61182  0.97636  1.0000
  Cl  Cl2       1.0  0.4529  0.4562  0.30238  1.0000
  C   C227      1.0  0.50892  0.39633  0.35655  1.0000
  C   C228      1.0  0.61455  0.55613  0.54903  1.0000
  C   C229      1.0  0.44547  0.53809  0.36347  1.0000
  C   C230      1.0  0.4696999999999999  0.432  0.69842  1.0000
  Mn  Mn6       1.0  0.02340000000000011  0.63191  0.81316  1.0000
  Mn  Mn7       1.0  0.01950999999999991  0.54244  0.8433499999999999  1.0000
  Mn  Mn8       1.0  0.98864  0.3834  0.39740999999999993  1.0000
  Mn  Mn9       1.0  0.009879999999999974  0.48094  0.34152  1.0000
  Mn  Mn10      1.0  0.016199999999999992  0.5149  0.58761  1.0000
  C   C231      1.0  0.9464500000000001  0.57091  0.90713  1.0000
  N   N45       1.0  0.9791  0.58047  0.8729499999999998  1.0000
  N   N46       1.0  0.97685  0.54625  0.87679  1.0000
  N   N47       1.0  0.94425  0.51651  0.9093  1.0000
  N   N48       1.0  0.9246100000000002  0.53107  0.9297899999999999  1.0000
  N   N49       1.0  0.95972  0.46074  0.86321  1.0000
  N   N50       1.0  0.9824999999999998  0.49004  0.7960599999999998  1.0000
  N   N51       1.0  0.98036  0.47786  0.70606  1.0000
  N   N52       1.0  0.95489  0.4389100000000001  0.71196  1.0000
  C   C232      1.0  0.94215  0.42896999999999996  0.8113  1.0000
  C   C233      1.0  0.11750000000000001  0.5557  0.79809  1.0000
  N   N53       1.0  0.06067  0.53831  0.8055699999999999  1.0000
  N   N54       1.0  0.09418000000000003  0.5505800000000001  0.8654799999999999  1.0000
  N   N55       1.0  0.006750000000000033  0.55966  0.59969  1.0000
  N   N56       1.0  0.015760000000000007  0.5724  0.69463  1.0000
  N   N57       1.0  0.015230000000000053  0.60561  0.68291  1.0000
  N   N58       1.0  0.003470000000000076  0.61463  0.5801799999999999  1.0000
  N   N59       1.0  0.06253000000000014  0.5351600000000001  0.70648  1.0000
  N   N60       1.0  0.0986  0.54808  0.69651  1.0000
  C   C234      1.0  0.9973600000000001  0.58564  0.5274799999999998  1.0000
  N   N61       1.0  0.037910000000000006  0.42787  0.34286  1.0000
  N   N62       1.0  0.04695999999999998  0.46545  0.3236  1.0000
  N   N63       1.0  0.08264999999999997  0.48846999999999996  0.30204  1.0000
  N   N64       1.0  0.09744999999999995  0.46571999999999997  0.30658  1.0000
  N   N65       1.0  0.07641999999999995  0.5615799999999999  0.31953  1.0000
  N   N66       1.0  0.051550000000000075  0.53405  0.38548  1.0000
  N   N67       1.0  0.05189999999999997  0.5494899999999999  0.46744  1.0000
  N   N68       1.0  0.07857000000000001  0.58775  0.45923  1.0000
  N   N69       1.0  0.93398  0.48417  0.4732199999999999  1.0000
  N   N70       1.0  0.97004  0.49567999999999995  0.46712  1.0000
  N   N71       1.0  0.97309  0.49392  0.3677099999999999  1.0000
  N   N72       1.0  0.94035  0.48322000000000004  0.30468  1.0000
  N   N73       1.0  0.025980000000000027  0.47079999999999994  0.579  1.0000
  N   N74       1.0  0.008360000000000008  0.45204  0.49404  1.0000
  N   N75       1.0  0.0038899999999999894  0.41621  0.5167  1.0000
  N   N76       1.0  0.021849999999999974  0.41181  0.6147699999999999  1.0000
  Cl  Cl3       1.0  0.05997  0.6035  0.89553  1.0000
  Cl  Cl4       1.0  0.96289  0.42053  0.29611  1.0000
  C   C235      1.0  0.06943999999999997  0.42803  0.3339199999999999  1.0000
  C   C236      1.0  0.09354000000000001  0.59483  0.36581  1.0000
  C   C237      1.0  0.91615  0.47748  0.36995  1.0000
  C   C238      1.0  0.03623000000000001  0.44624  0.65419  1.0000
  Mn  Mn11      1.0  0.37668999999999997  0.001100000000000003  0.36098999999999987  1.0000
  Mn  Mn12      1.0  0.46488999999999997  0.017840000000000005  0.33288  1.0000
  Mn  Mn13      1.0  0.6656200000000001  0.017740000000000086  0.7956  1.0000
  Mn  Mn14      1.0  0.57376  0.9852  0.83365  1.0000
  Mn  Mn15      1.0  0.51732  0.99789  0.5851  1.0000
  C   C239      1.0  0.41982  0.09004999999999999  0.27359  1.0000
  N   N77       1.0  0.41849  0.054979999999999994  0.30574  1.0000
  N   N78       1.0  0.45321999999999996  0.06199999999999999  0.30559  1.0000
  N   N79       1.0  0.47668  0.10034  0.28061  1.0000
  N   N80       1.0  0.45656  0.11859999999999998  0.25985  1.0000
  N   N81       1.0  0.54066  0.08413  0.31513  1.0000
  N   N82       1.0  0.5191  0.054740000000000004  0.38447999999999993  1.0000
  N   N83       1.0  0.54043  0.04619  0.46763  1.0000
  N   N84       1.0  0.57733  0.06982  0.45303999999999994  1.0000
  C   C240      1.0  0.57686  0.09381999999999999  0.35707  1.0000
  C   C241      1.0  0.46446000000000004  0.91526  0.37694999999999995  1.0000
  N   N85       1.0  0.4761099999999999  0.9733199999999999  0.36846999999999996  1.0000
  N   N86       1.0  0.46038000000000007  0.9445  0.30913999999999997  1.0000
  N   N87       1.0  0.46978000000000003  0.003960000000000004  0.57331  1.0000
  N   N88       1.0  0.44842000000000004  0.003810000000000002  0.47873999999999994  1.0000
  N   N89       1.0  0.41613000000000006  0.0007400000000000029  0.49040999999999996  1.0000
  N   N90       1.0  0.41591000000000006  0.0013199999999999972  0.59331  1.0000
  N   N91       1.0  0.48949  0.96243  0.46728  1.0000
  N   N92       1.0  0.48085000000000006  0.92519  0.4775299999999999  1.0000
  C   C242      1.0  0.4494000000000001  0.0036099999999999978  0.64474  1.0000
  N   N93       1.0  0.62878  0.96029  0.84621  1.0000
  N   N94       1.0  0.59264  0.947  0.8535199999999998  1.0000
  N   N95       1.0  0.57587  0.90927  0.8961  1.0000
  N   N96       1.0  0.60202  0.8981600000000001  0.92261  1.0000
  N   N97       1.0  0.5009800000000001  0.9128900000000001  0.85581  1.0000
  N   N98       1.0  0.5202  0.94377  0.7855599999999999  1.0000
  N   N99       1.0  0.4965299999999999  0.9495499999999999  0.7043299999999999  1.0000
  N   N100      1.0  0.46041  0.92173  0.71931  1.0000
  N   N101      1.0  0.5492399999999998  0.07088  0.6902599999999999  1.0000
  N   N102      1.0  0.54361  0.03454000000000001  0.7017099999999997  1.0000
  N   N103      1.0  0.55652  0.024480000000000016  0.8019399999999998  1.0000
  N   N104      1.0  0.57071  0.05334000000000001  0.8600199999999998  1.0000
  N   N105      1.0  0.5650199999999999  0.9915399999999999  0.59794  1.0000
  N   N106      1.0  0.58973  0.003009999999999955  0.6853399999999998  1.0000
  N   N107      1.0  0.62432  0.013560000000000015  0.66908  1.0000
  N   N108      1.0  0.62286  0.00662000000000007  0.57153  1.0000
  Cl  Cl5       1.0  0.4018599999999999  0.97744  0.2774  1.0000
  Cl  Cl6       1.0  0.63457  0.03133000000000001  0.8888999999999998  1.0000
  C   C243      1.0  0.63561  0.93083  0.8957099999999998  1.0000
  C   C244      1.0  0.4638900000000001  0.8988899999999999  0.81523  1.0000
  C   C245      1.0  0.56537  0.08167  0.7907299999999999  1.0000
  C   C246      1.0  0.58556  0.9912699999999999  0.52719  1.0000
