data_image0
_chemical_formula_structural       EuOCO6COC2EuOCO6COC2EuOCO6COC2EuOCO6COC6FCFC3FCFC2FCFCFCFH4C4FCFC3FCFC2FCFCFCFH4C4FCFC3FCFC2FCFCFCFH4C4FCFC3FCFC2FCFCFCFH4C4FCFC3FCFC2FCFCFCFH4C4FCFC3FCFC2FCFCFCFH4C4FCFC3FCFC2FCFCFCFH4C4FCFC3FCFC2FCFCFCFH4
_chemical_formula_sum              "Eu4 O32 C128 F64 H32"
_cell_length_a       38.7353
_cell_length_b       24.9585
_cell_length_c       17.3502
_cell_angle_alpha    86.5621
_cell_angle_beta     91.8534
_cell_angle_gamma    88.2166

_space_group_name_H-M_alt    "P 1"
_space_group_IT_number       1

loop_
  _space_group_symop_operation_xyz
  'x, y, z'

loop_
  _atom_site_type_symbol
  _atom_site_label
  _atom_site_symmetry_multiplicity
  _atom_site_fract_x
  _atom_site_fract_y
  _atom_site_fract_z
  _atom_site_occupancy
  Eu  Eu1       1.0  0.41176  0.7276300000000001  0.20945  1.0000
  O   O1        1.0  0.34895  0.7898300000000001  0.1319  1.0000
  C   C1        1.0  0.34021  0.6786100000000002  0.21703  1.0000
  O   O2        1.0  0.41602  0.80953  0.06815999999999997  1.0000
  O   O3        1.0  0.45536999999999994  0.77599  0.15831  1.0000
  O   O4        1.0  0.48296  0.68593  0.27267  1.0000
  O   O5        1.0  0.34369999999999995  0.67306  0.14823  1.0000
  O   O6        1.0  0.36925  0.67989  0.26599  1.0000
  O   O7        1.0  0.38255  0.80488  0.23624  1.0000
  C   C2        1.0  0.35253  0.8139500000000001  0.19050999999999996  1.0000
  O   O8        1.0  0.43893000000000004  0.7299700000000001  0.3272899999999999  1.0000
  C   C3        1.0  0.47315  0.7113700000000001  0.32628  1.0000
  C   C4        1.0  0.44420000000000004  0.81374  0.09998  1.0000
  Eu  Eu2       1.0  0.91391  0.75259  0.78734  1.0000
  O   O9        1.0  0.85315  0.7516200000000001  0.65171  1.0000
  C   C5        1.0  0.84955  0.69762  0.8487499999999998  1.0000
  O   O10       1.0  0.97356  0.8879000000000002  0.84063  1.0000
  O   O11       1.0  0.95914  0.8084200000000002  0.79556  1.0000
  O   O12       1.0  0.9403499999999999  0.64071  0.7720899999999998  1.0000
  O   O13       1.0  0.8557199999999999  0.7304300000000001  0.8963499999999998  1.0000
  O   O14       1.0  0.8692499999999999  0.69552  0.7832699999999998  1.0000
  O   O15       1.0  0.88741  0.8143700000000003  0.70035  1.0000
  C   C6        1.0  0.8565899999999999  0.79838  0.66631  1.0000
  O   O16       1.0  0.9383  0.71228  0.68703  1.0000
  C   C7        1.0  0.94548  0.65816  0.70644  1.0000
  C   C8        1.0  0.9511  0.8553200000000001  0.83222  1.0000
  Eu  Eu3       1.0  0.1051  0.24071  0.22824  1.0000
  O   O17       1.0  0.16244  0.15861000000000006  0.24239  1.0000
  C   C9        1.0  0.16315  0.32139  0.20056999999999994  1.0000
  O   O18       1.0  0.0711  0.20076  0.08776  1.0000
  O   O19       1.0  0.07466  0.16558  0.21001  1.0000
  O   O20       1.0  0.05368  0.33379  0.20752  1.0000
  O   O21       1.0  0.17263  0.28339  0.16474  1.0000
  O   O22       1.0  0.13482  0.31644  0.24737  1.0000
  O   O23       1.0  0.13213  0.19788000000000003  0.33387999999999995  1.0000
  C   C10       1.0  0.15587  0.15967999999999996  0.31059  1.0000
  O   O24       1.0  0.06392999999999999  0.27173  0.3065299999999999  1.0000
  C   C11       1.0  0.05032999999999999  0.32101  0.27585999999999994  1.0000
  C   C12       1.0  0.06295  0.16479  0.13351  1.0000
  Eu  Eu4       1.0  0.59535  0.2531  0.7775999999999997  1.0000
  O   O25       1.0  0.66561  0.21315000000000006  0.8018799999999998  1.0000
  C   C13       1.0  0.64011  0.3454700000000001  0.82622  1.0000
  O   O26       1.0  0.53948  0.11122  0.83425  1.0000
  O   O27       1.0  0.55153  0.19440000000000004  0.7875199999999998  1.0000
  O   O28       1.0  0.53355  0.32338  0.76553  1.0000
  O   O29       1.0  0.62417  0.3335900000000001  0.8838599999999998  1.0000
  O   O30       1.0  0.6377  0.31366  0.76353  1.0000
  O   O31       1.0  0.62686  0.19453  0.70944  1.0000
  C   C14       1.0  0.6584  0.18475  0.7494  1.0000
  O   O32       1.0  0.56813  0.29692  0.6728399999999999  1.0000
  C   C15       1.0  0.54469  0.33336  0.70157  1.0000
  C   C16       1.0  0.5601  0.14724000000000004  0.83208  1.0000
  C   C17       1.0  0.30527  0.68784  0.25013999999999986  1.0000
  C   C18       1.0  0.27449  0.68225  0.19300999999999993  1.0000
  C   C19       1.0  0.2622  0.62533  0.19300999999999993  1.0000
  C   C20       1.0  0.26437  0.59559  0.12679999999999997  1.0000
  F   F1        1.0  0.27935  0.61644  0.062499999999999986  1.0000
  C   C21       1.0  0.25004  0.54473  0.12552999999999997  1.0000
  F   F2        1.0  0.25088  0.51806  0.05966  1.0000
  C   C22       1.0  0.23348999999999998  0.5227900000000001  0.19056  1.0000
  C   C23       1.0  0.21554  0.47126000000000007  0.18816  1.0000
  C   C24       1.0  0.23353999999999997  0.42327  0.17387  1.0000
  F   F3        1.0  0.26781  0.42346  0.15976  1.0000
  C   C25       1.0  0.21653999999999998  0.37443  0.17667999999999995  1.0000
  F   F4        1.0  0.23485  0.32856  0.16477  1.0000
  C   C26       1.0  0.18131  0.37281  0.19447999999999996  1.0000
  C   C27       1.0  0.16327  0.42117  0.20701999999999995  1.0000
  F   F5        1.0  0.12906  0.42167  0.22183999999999995  1.0000
  C   C28       1.0  0.18014  0.46983  0.20318999999999995  1.0000
  F   F6        1.0  0.16178  0.51591  0.21382  1.0000
  C   C29       1.0  0.23226  0.55189  0.25732999999999995  1.0000
  F   F7        1.0  0.217  0.53127  0.32144  1.0000
  C   C30       1.0  0.24603999999999998  0.60285  0.25823  1.0000
  F   F8        1.0  0.24249000000000004  0.63115  0.32211  1.0000
  H   H1        1.0  0.30319  0.6604700000000001  0.30248  1.0000
  H   H2        1.0  0.30446  0.7294200000000001  0.26981  1.0000
  H   H3        1.0  0.25262  0.70829  0.2104  1.0000
  H   H4        1.0  0.28082  0.6981300000000001  0.13415  1.0000
  C   C31       1.0  0.82733  0.8386300000000002  0.6480599999999997  1.0000
  C   C32       1.0  0.83737  0.8955800000000002  0.66689  1.0000
  C   C33       1.0  0.80614  0.93281  0.66981  1.0000
  C   C34       1.0  0.7992599999999999  0.97409  0.6120099999999999  1.0000
  F   F9        1.0  0.81873  0.97811  0.5483499999999999  1.0000
  C   C35       1.0  0.7728  0.01251  0.62056  1.0000
  F   F10       1.0  0.76787  0.0539  0.56647  1.0000
  C   C36       1.0  0.75279  0.009850000000000005  0.6866899999999999  1.0000
  C   C37       1.0  0.72834  0.05427000000000001  0.70142  1.0000
  C   C38       1.0  0.6981  0.06437000000000002  0.6554599999999999  1.0000
  F   F11       1.0  0.69054  0.03259999999999996  0.59678  1.0000
  C   C39       1.0  0.67519  0.10676000000000001  0.67064  1.0000
  F   F12       1.0  0.64598  0.11499  0.62559  1.0000
  C   C40       1.0  0.6824599999999998  0.13995000000000005  0.7317499999999998  1.0000
  C   C41       1.0  0.71299  0.12924000000000002  0.77759  1.0000
  F   F13       1.0  0.72113  0.15936  0.8378  1.0000
  C   C42       1.0  0.73562  0.08699000000000001  0.76229  1.0000
  F   F14       1.0  0.76503  0.07830000000000001  0.8066899999999998  1.0000
  C   C43       1.0  0.75868  0.96734  0.74277  1.0000
  F   F15       1.0  0.73947  0.96398  0.8069099999999998  1.0000
  C   C44       1.0  0.78519  0.9291800000000001  0.7345499999999999  1.0000
  F   F16       1.0  0.79135  0.8898200000000002  0.79128  1.0000
  H   H5        1.0  0.8196399999999999  0.83852  0.5858  1.0000
  H   H6        1.0  0.80497  0.8258300000000001  0.6824  1.0000
  H   H7        1.0  0.8512499999999997  0.89506  0.7240999999999997  1.0000
  H   H8        1.0  0.8556999999999999  0.9109000000000002  0.62339  1.0000
  C   C45       1.0  0.17311  0.11998  0.36905  1.0000
  C   C46       1.0  0.1614  0.062320000000000014  0.3581999999999999  1.0000
  C   C47       1.0  0.19054  0.0267  0.33246  1.0000
  C   C48       1.0  0.19813999999999998  0.025820000000000006  0.2538299999999999  1.0000
  F   F17       1.0  0.17923  0.05656000000000002  0.19971999999999998  1.0000
  C   C49       1.0  0.22513  0.9927200000000002  0.23026  1.0000
  F   F18       1.0  0.23243  0.99349  0.15421  1.0000
  C   C50       1.0  0.24461000000000002  0.9593700000000001  0.28477  1.0000
  C   C51       1.0  0.27234  0.92274  0.25973  1.0000
  C   C52       1.0  0.30636  0.9259300000000001  0.28926  1.0000
  F   F19       1.0  0.31446  0.96365  0.33948  1.0000
  C   C53       1.0  0.3324  0.89069  0.26668  1.0000
  F   F20       1.0  0.36498  0.8953200000000002  0.29624  1.0000
  C   C54       1.0  0.32497  0.85176  0.21354  1.0000
  C   C55       1.0  0.29074  0.84854  0.18435  1.0000
  F   F21       1.0  0.28212  0.81049  0.13508999999999993  1.0000
  C   C56       1.0  0.26471  0.8836  0.20744  1.0000
  F   F22       1.0  0.23176999999999998  0.87832  0.18042  1.0000
  C   C57       1.0  0.23708999999999997  0.96042  0.36334  1.0000
  F   F23       1.0  0.25507  0.92789  0.4170099999999999  1.0000
  C   C58       1.0  0.21044999999999997  0.99404  0.38704  1.0000
  F   F24       1.0  0.20407999999999998  0.99459  0.46346999999999994  1.0000
  H   H9        1.0  0.20161  0.12296000000000001  0.36557  1.0000
  H   H10       1.0  0.16627  0.13143  0.4277  1.0000
  H   H11       1.0  0.15176  0.04542000000000001  0.4139099999999999  1.0000
  H   H12       1.0  0.13892  0.061620000000000015  0.3166899999999999  1.0000
  C   C59       1.0  0.82145  0.65837  0.86107  1.0000
  C   C60       1.0  0.79382  0.6653900000000001  0.7956999999999999  1.0000
  C   C61       1.0  0.7700299999999999  0.61868  0.7988899999999998  1.0000
  C   C62       1.0  0.77907  0.57135  0.76318  1.0000
  F   F25       1.0  0.80885  0.56768  0.72432  1.0000
  C   C63       1.0  0.75769  0.52727  0.7679999999999998  1.0000
  F   F26       1.0  0.7674  0.48164  0.73441  1.0000
  C   C64       1.0  0.7268099999999998  0.52993  0.80823  1.0000
  C   C65       1.0  0.70416  0.48327000000000003  0.8132399999999999  1.0000
  C   C66       1.0  0.69595  0.45938000000000007  0.8855  1.0000
  F   F27       1.0  0.70912  0.4783100000000001  0.95169  1.0000
  C   C67       1.0  0.6748  0.41496  0.8900599999999997  1.0000
  F   F28       1.0  0.66791  0.39229  0.9607699999999999  1.0000
  C   C68       1.0  0.66188  0.3931800000000001  0.8222799999999998  1.0000
  C   C69       1.0  0.67009  0.41740000000000005  0.74997  1.0000
  F   F29       1.0  0.65761  0.39842  0.6831899999999997  1.0000
  C   C70       1.0  0.69087  0.46217000000000014  0.74563  1.0000
  F   F30       1.0  0.69758  0.48553  0.6752199999999998  1.0000
  C   C71       1.0  0.71769  0.57731  0.8436199999999998  1.0000
  F   F31       1.0  0.68768  0.58118  0.88154  1.0000
  C   C72       1.0  0.73914  0.62135  0.8390399999999999  1.0000
  F   F32       1.0  0.7298899999999999  0.66645  0.8743699999999998  1.0000
  H   H13       1.0  0.83341  0.6172000000000002  0.86288  1.0000
  H   H14       1.0  0.8092399999999998  0.66379  0.91738  1.0000
  H   H15       1.0  0.7790200000000002  0.70386  0.80063  1.0000
  H   H16       1.0  0.80604  0.6682199999999998  0.73852  1.0000
  C   C73       1.0  0.49800999999999995  0.7247200000000003  0.3897899999999999  1.0000
  C   C74       1.0  0.48605  0.70416  0.46928  1.0000
  C   C75       1.0  0.49646  0.6458900000000002  0.4878  1.0000
  C   C76       1.0  0.47286999999999996  0.60504  0.47674  1.0000
  F   F33       1.0  0.44122999999999996  0.61688  0.4429599999999999  1.0000
  C   C77       1.0  0.48138  0.55194  0.50289  1.0000
  F   F34       1.0  0.45766999999999997  0.5135  0.49532  1.0000
  C   C78       1.0  0.51349  0.53918  0.54047  1.0000
  C   C79       1.0  0.5204  0.48573000000000005  0.57989  1.0000
  C   C80       1.0  0.52929  0.44098  0.53848  1.0000
  F   F35       1.0  0.53106  0.44594  0.4604  1.0000
  C   C81       1.0  0.53698  0.39103  0.5777599999999999  1.0000
  F   F36       1.0  0.54556  0.34836  0.53646  1.0000
  C   C82       1.0  0.53538  0.38521  0.65879  1.0000
  C   C83       1.0  0.52598  0.4303  0.69968  1.0000
  F   F37       1.0  0.52477  0.4268100000000001  0.77793  1.0000
  C   C84       1.0  0.5188  0.48004  0.6604899999999998  1.0000
  F   F38       1.0  0.51042  0.52304  0.70141  1.0000
  C   C85       1.0  0.53762  0.57944  0.5482999999999998  1.0000
  F   F39       1.0  0.56878  0.56774  0.58452  1.0000
  C   C86       1.0  0.52927  0.6323300000000002  0.52173  1.0000
  F   F40       1.0  0.55272  0.67082  0.53195  1.0000
  H   H17       1.0  0.52447  0.70871  0.37946  1.0000
  H   H18       1.0  0.49918999999999997  0.7691900000000003  0.3887499999999999  1.0000
  H   H19       1.0  0.49777  0.72878  0.51397  1.0000
  H   H20       1.0  0.45765999999999996  0.71065  0.4736  1.0000
  C   C87       1.0  0.91515  0.8672000000000003  0.8590499999999998  1.0000
  C   C88       1.0  0.9136899999999999  0.86902  0.94733  1.0000
  C   C89       1.0  0.9351199999999998  0.91297  0.97897  1.0000
  C   C90       1.0  0.96557  0.90023  0.023719999999999998  1.0000
  F   F41       1.0  0.97638  0.84829  0.03892  1.0000
  C   C91       1.0  0.9856599999999999  0.9410500000000003  0.05143  1.0000
  F   F42       1.0  0.01535  0.92768  0.09283  1.0000
  C   C92       1.0  0.97576  0.99525  0.03464  1.0000
  C   C93       1.0  0.99797  0.038550000000000015  0.06022999999999999  1.0000
  C   C94       1.0  0.01234  0.07425  0.00547  1.0000
  F   F43       1.0  0.00632  0.06894000000000002  0.92879  1.0000
  C   C95       1.0  0.03353  0.11504000000000002  0.02894  1.0000
  F   F44       1.0  0.04734  0.14801  0.97384  1.0000
  C   C96       1.0  0.04072  0.12113  0.10818999999999997  1.0000
  C   C97       1.0  0.02618  0.08513  0.16294  1.0000
  F   F45       1.0  0.03188  0.08973000000000003  0.23985999999999993  1.0000
  C   C98       1.0  0.0050600000000000644  0.04427  0.13913999999999996  1.0000
  F   F46       1.0  0.99097  0.01083  0.19326  1.0000
  C   C99       1.0  0.94496  0.007990000000000018  0.9914799999999999  1.0000
  F   F47       1.0  0.9343399999999998  0.060030000000000014  0.9763799999999999  1.0000
  C   C100      1.0  0.92478  0.96723  0.96402  1.0000
  F   F48       1.0  0.8951  0.98077  0.92275  1.0000
  H   H21       1.0  0.9051699999999999  0.90584  0.8303299999999998  1.0000
  H   H22       1.0  0.89759  0.83576  0.84103  1.0000
  H   H23       1.0  0.88635  0.87586  0.9630399999999999  1.0000
  H   H24       1.0  0.92193  0.82893  0.9741799999999999  1.0000
  C   C101      1.0  0.59458  0.13943  0.8747699999999998  1.0000
  C   C102      1.0  0.59146  0.13016  0.96272  1.0000
  C   C103      1.0  0.57037  0.08191  0.98476  1.0000
  C   C104      1.0  0.5376  0.08865000000000003  0.01639  1.0000
  F   F49       1.0  0.52461  0.1384  0.028989999999999995  1.0000
  C   C105      1.0  0.51758  0.04412  0.03366  1.0000
  F   F50       1.0  0.48604  0.05143  0.06411  1.0000
  C   C106      1.0  0.52991  0.99236  0.01935  1.0000
  C   C107      1.0  0.50876  0.94563  0.03837  1.0000
  C   C108      1.0  0.4843  0.92867  0.98448  1.0000
  F   F51       1.0  0.48075  0.95401  0.9130499999999999  1.0000
  C   C109      1.0  0.46324  0.88565  0.00397  1.0000
  F   F52       1.0  0.43996999999999997  0.86989  0.9504099999999999  1.0000
  C   C110      1.0  0.4665599999999999  0.85883  0.07786  1.0000
  C   C111      1.0  0.49137  0.87598  0.13139999999999993  1.0000
  F   F53       1.0  0.49477  0.8522700000000002  0.20389  1.0000
  C   C112      1.0  0.51225  0.91903  0.11177  1.0000
  F   F54       1.0  0.53557  0.93538  0.16477  1.0000
  C   C113      1.0  0.5627  0.98531  0.9887199999999999  1.0000
  F   F55       1.0  0.57506  0.9354  0.97502  1.0000
  C   C114      1.0  0.58289  0.02975  0.97186  1.0000
  F   F56       1.0  0.61462  0.021930000000000005  0.94262  1.0000
  H   H25       1.0  0.60902  0.10521  0.85136  1.0000
  H   H26       1.0  0.60988  0.17569000000000007  0.8643399999999998  1.0000
  H   H27       1.0  0.61782  0.12400000000000001  0.9898599999999999  1.0000
  H   H28       1.0  0.58033  0.16732999999999998  0.98569  1.0000
  C   C115      1.0  0.03242  0.35872000000000004  0.32692  1.0000
  C   C116      1.0  0.052199999999999996  0.41084000000000004  0.33107  1.0000
  C   C117      1.0  0.03546  0.4481  0.38537  1.0000
  C   C118      1.0  0.007859999999999997  0.4831400000000001  0.35906  1.0000
  F   F57       1.0  0.9958999999999999  0.48369  0.2845899999999999  1.0000
  C   C119      1.0  0.99231  0.51774  0.40933  1.0000
  F   F58       1.0  0.96522  0.5503  0.38280999999999993  1.0000
  C   C120      1.0  0.0042099999999999985  0.51796  0.48674999999999996  1.0000
  C   C121      1.0  0.98766  0.5539  0.54086  1.0000
  C   C122      1.0  0.9739199999999999  0.53228  0.60948  1.0000
  F   F59       1.0  0.97389  0.47826000000000013  0.6246899999999997  1.0000
  C   C123      1.0  0.96005  0.56597  0.66292  1.0000
  F   F60       1.0  0.94711  0.54321  0.72847  1.0000
  C   C124      1.0  0.9593  0.6222400000000002  0.6486499999999997  1.0000
  C   C125      1.0  0.9722  0.64374  0.57863  1.0000
  F   F61       1.0  0.97203  0.69761  0.56211  1.0000
  C   C126      1.0  0.9863499999999998  0.60987  0.52553  1.0000
  F   F62       1.0  0.99991  0.6319299999999999  0.46022999999999986  1.0000
  C   C127      1.0  0.031959999999999995  0.4831500000000001  0.51284  1.0000
  F   F63       1.0  0.04446  0.48334  0.5868299999999997  1.0000
  C   C128      1.0  0.04739  0.44846  0.46271  1.0000
  F   F64       1.0  0.07392  0.41501  0.48988999999999994  1.0000
  H   H29       1.0  0.0056  0.36762000000000006  0.3039099999999999  1.0000
  H   H30       1.0  0.03112  0.33901  0.38593  1.0000
  H   H31       1.0  0.07947000000000001  0.4010800000000001  0.35041  1.0000
  H   H32       1.0  0.05315000000000002  0.43133  0.27247  1.0000
