data_image0
_chemical_formula_structural       EuOCO6COC2EuOCO6COC2EuOCO6COC2EuOCO6COC6NC3SC2NC2NC2H9C4NC3SC2NC2NC2H9C4NC3SC2NC2NC2H9C4NC3SC2NC2NC2H9C4NC3SC2NC2NC2H9C4NC3SC2NC2NC2H9C4NC3SC2NC2NC2H9C4NC3SC2NC2NC2H9
_chemical_formula_sum              "Eu4 O32 C120 N24 S8 H72"
_cell_length_a       35.0701
_cell_length_b       21.2411
_cell_length_c       12.7277
_cell_angle_alpha    88.8713
_cell_angle_beta     89.9583
_cell_angle_gamma    87.76110000000001

_symmetry_space_group_name_H-M    'P 1'
_symmetry_Int_Tables_number       1

loop_
  _symmetry_equiv_pos_as_xyz
  'x,y,z'

loop_
  _atom_site_type_symbol
  _atom_site_label
  _atom_site_symmetry_multiplicity
  _atom_site_fract_x
  _atom_site_fract_y
  _atom_site_fract_z
  _atom_site_occupancy
  Eu  Eu1       1.0  0.4013600000000001  0.73813  0.26509  1.0000
  O   O1        1.0  0.34347  0.81043  0.13985  1.0000
  C   C1        1.0  0.3332  0.64871  0.26663  1.0000
  O   O2        1.0  0.4223600000000001  0.7802399999999999  0.04033  1.0000
  O   O3        1.0  0.44915000000000016  0.7959  0.19817  1.0000
  O   O4        1.0  0.49096  0.70366  0.40854  1.0000
  O   O5        1.0  0.34716  0.63787  0.18088  1.0000
  O   O6        1.0  0.35216  0.68569  0.3368399999999999  1.0000
  O   O7        1.0  0.36786  0.82928  0.29903  1.0000
  C   C2        1.0  0.34237  0.84301  0.2175  1.0000
  O   O8        1.0  0.42996  0.73905  0.42597  1.0000
  C   C3        1.0  0.45854  0.69183  0.4346999999999999  1.0000
  C   C4        1.0  0.44234000000000007  0.8126199999999999  0.09371  1.0000
  Eu  Eu2       1.0  0.89273  0.74656  0.7697699999999997  1.0000
  O   O9        1.0  0.84392  0.85503  0.79632  1.0000
  C   C5        1.0  0.8211200000000001  0.66563  0.79834  1.0000
  O   O10       1.0  0.9214100000000001  0.8570999999999999  0.88322  1.0000
  O   O11       1.0  0.95298  0.77923  0.7979899999999999  1.0000
  O   O12       1.0  0.9532700000000001  0.64767  0.77065  1.0000
  O   O13       1.0  0.84541  0.62926  0.83579  1.0000
  O   O14       1.0  0.8318300000000002  0.71804  0.7402199999999998  1.0000
  O   O15       1.0  0.87976  0.82909  0.65685  1.0000
  C   C6        1.0  0.85081  0.8651399999999999  0.70375  1.0000
  O   O16       1.0  0.91476  0.68295  0.63921  1.0000
  C   C7        1.0  0.94421  0.64367  0.67875  1.0000
  C   C8        1.0  0.95213  0.83327  0.858  1.0000
  Eu  Eu3       1.0  0.11089000000000002  0.25438  0.2045  1.0000
  O   O17       1.0  0.17096000000000003  0.1519  0.17050999999999997  1.0000
  C   C9        1.0  0.17274  0.34897  0.16168999999999997  1.0000
  O   O18       1.0  0.03166  0.21523  0.14158  1.0000
  O   O19       1.0  0.08431  0.15866  0.19247999999999996  1.0000
  O   O20       1.0  0.03423000000000001  0.34247  0.26556  1.0000
  O   O21       1.0  0.18141  0.30473  0.10596999999999997  1.0000
  O   O22       1.0  0.13846  0.34908  0.21632999999999994  1.0000
  O   O23       1.0  0.15687000000000006  0.21037  0.31193  1.0000
  C   C10       1.0  0.17636  0.16067  0.26356  1.0000
  O   O24       1.0  0.07675  0.27786  0.35163  1.0000
  C   C11       1.0  0.0565  0.33504  0.33857  1.0000
  C   C12       1.0  0.04844000000000001  0.16399  0.14627999999999997  1.0000
  Eu  Eu4       1.0  0.61203  0.25119  0.81226  1.0000
  O   O25       1.0  0.64789  0.13728  0.8788999999999999  1.0000
  C   C13       1.0  0.64973  0.37693  0.8575499999999999  1.0000
  O   O26       1.0  0.5637800000000001  0.1534  0.9313699999999998  1.0000
  O   O27       1.0  0.56516  0.18675  0.7621099999999997  1.0000
  O   O28       1.0  0.5414600000000003  0.31614  0.76155  1.0000
  O   O29       1.0  0.6159100000000002  0.39213000000000003  0.86062  1.0000
  O   O30       1.0  0.66079  0.31346  0.8563199999999999  1.0000
  O   O31       1.0  0.6547900000000002  0.18811  0.72488  1.0000
  C   C14       1.0  0.6638  0.1383  0.7938999999999998  1.0000
  O   O32       1.0  0.59672  0.31621  0.6727399999999999  1.0000
  C   C15       1.0  0.55964  0.33925  0.6899499999999997  1.0000
  C   C16       1.0  0.55557  0.14359  0.84029  1.0000
  C   C17       1.0  0.2961  0.62356  0.29768  1.0000
  C   C18       1.0  0.281  0.572  0.24693  1.0000
  C   C19       1.0  0.24591000000000002  0.54799  0.2792  1.0000
  C   C20       1.0  0.23101  0.49156999999999995  0.22862  1.0000
  N   N1        1.0  0.24997000000000003  0.46223  0.15031  1.0000
  C   C21       1.0  0.23175000000000004  0.41152  0.11898  1.0000
  C   C22       1.0  0.24724000000000002  0.37127  0.03232999999999999  1.0000
  C   C23       1.0  0.19835  0.40167  0.17433999999999994  1.0000
  S   S1        1.0  0.1895  0.4574500000000001  0.2669  1.0000
  C   C24       1.0  0.22560999999999998  0.57767  0.36114  1.0000
  C   C25       1.0  0.24027000000000004  0.62954  0.4119  1.0000
  N   N2        1.0  0.21956  0.65933  0.49638999999999994  1.0000
  C   C26       1.0  0.23429  0.68909  0.57849  1.0000
  C   C27       1.0  0.20457  0.71047  0.6404199999999999  1.0000
  N   N3        1.0  0.17119  0.69467  0.5977  1.0000
  C   C28       1.0  0.1814  0.66356  0.5099999999999999  1.0000
  C   C29       1.0  0.27558  0.65184  0.37994  1.0000
  H   H1        1.0  0.29683  0.55025  0.18320999999999998  1.0000
  H   H2        1.0  0.27380000000000004  0.3909  4e-05  1.0000
  H   H3        1.0  0.25401  0.32285  0.06292  1.0000
  H   H4        1.0  0.22599999999999998  0.36971  0.9678899999999999  1.0000
  H   H5        1.0  0.19856000000000004  0.56019  0.38692  1.0000
  H   H6        1.0  0.26436  0.69421  0.59354  1.0000
  H   H7        1.0  0.20711000000000004  0.73595  0.71262  1.0000
  H   H8        1.0  0.16096  0.64493  0.45633  1.0000
  H   H9        1.0  0.28664  0.69253  0.41774  1.0000
  C   C30       1.0  0.82732  0.91268  0.6435199999999998  1.0000
  C   C31       1.0  0.79724  0.94537  0.6938799999999998  1.0000
  C   C32       1.0  0.7731800000000002  0.98873  0.6388599999999999  1.0000
  C   C33       1.0  0.74148  0.021260000000000005  0.69587  1.0000
  N   N4        1.0  0.73049  4.00000000000001e-05  0.79102  1.0000
  C   C34       1.0  0.70281  0.03708000000000001  0.8316499999999998  1.0000
  C   C35       1.0  0.68636  0.022420000000000002  0.9376199999999999  1.0000
  C   C36       1.0  0.6922900000000002  0.0882  0.76686  1.0000
  S   S2        1.0  0.71755  0.08884  0.6514999999999997  1.0000
  C   C37       1.0  0.77958  0.99949  0.53123  1.0000
  C   C38       1.0  0.80946  0.96689  0.4786799999999999  1.0000
  N   N5        1.0  0.81505  0.97662  0.36727999999999994  1.0000
  C   C39       1.0  0.8477000000000001  0.96831  0.31288  1.0000
  C   C40       1.0  0.8401300000000003  0.98205  0.20868  1.0000
  N   N6        1.0  0.80289  0.99879  0.19692999999999994  1.0000
  C   C41       1.0  0.78846  0.99502  0.29507  1.0000
  C   C42       1.0  0.8333400000000002  0.92369  0.53583  1.0000
  H   H10       1.0  0.79239  0.93665  0.7768899999999997  1.0000
  H   H11       1.0  0.69183  0.06112  0.99236  1.0000
  H   H12       1.0  0.6552  0.0161  0.93061  1.0000
  H   H13       1.0  0.69977  0.9781  0.97062  1.0000
  H   H14       1.0  0.76126  0.033  0.4882399999999999  1.0000
  H   H15       1.0  0.87519  0.9541000000000001  0.34602  1.0000
  H   H16       1.0  0.86052  0.9799800000000001  0.14495  1.0000
  H   H17       1.0  0.7586500000000002  0.004750000000000032  0.31259  1.0000
  H   H18       1.0  0.8559500000000002  0.8975  0.4960499999999999  1.0000
  C   C43       1.0  0.20286  0.11853  0.32522999999999996  1.0000
  C   C44       1.0  0.22476  0.07085  0.27603999999999995  1.0000
  C   C45       1.0  0.24941  0.029980000000000003  0.33467999999999987  1.0000
  C   C46       1.0  0.27215  0.97965  0.28128  1.0000
  N   N7        1.0  0.26626  0.96634  0.1797  1.0000
  C   C47       1.0  0.28964  0.9189999999999999  0.14826  1.0000
  C   C48       1.0  0.2884600000000001  0.89585  0.038  1.0000
  C   C49       1.0  0.31399  0.89564  0.2269  1.0000
  S   S3        1.0  0.30738  0.9340599999999999  0.34251  1.0000
  C   C50       1.0  0.25177  0.03726  0.4440199999999999  1.0000
  C   C51       1.0  0.22993  0.08445  0.49475  1.0000
  N   N8        1.0  0.23197  0.09061  0.6072499999999998  1.0000
  C   C52       1.0  0.22492  0.14299  0.6630099999999998  1.0000
  C   C53       1.0  0.22970999999999997  0.12757  0.76781  1.0000
  N   N9        1.0  0.23963000000000004  0.06584  0.7785799999999998  1.0000
  C   C54       1.0  0.24078  0.0448  0.6792599999999998  1.0000
  C   C55       1.0  0.20566  0.125  0.43449  1.0000
  H   H19       1.0  0.22266  0.06575  0.19175999999999999  1.0000
  H   H20       1.0  0.26697  0.9240499999999999  0.99112  1.0000
  H   H21       1.0  0.3168  0.90046  0.00036999999999999994  1.0000
  H   H22       1.0  0.2804300000000001  0.8458299999999999  0.03829  1.0000
  H   H23       1.0  0.27071  0.006400000000000002  0.4901299999999999  1.0000
  H   H24       1.0  0.21725000000000005  0.18924  0.6305  1.0000
  H   H25       1.0  0.22613000000000003  0.15942  0.83263  1.0000
  H   H26       1.0  0.24734  0.99611  0.6605199999999999  1.0000
  H   H27       1.0  0.18818000000000001  0.16062  0.47324  1.0000
  C   C56       1.0  0.78013  0.65528  0.8138699999999998  1.0000
  C   C57       1.0  0.7666300000000001  0.59448  0.8289399999999998  1.0000
  C   C58       1.0  0.72729  0.5851  0.83937  1.0000
  C   C59       1.0  0.7131100000000001  0.52017  0.8467  1.0000
  N   N10       1.0  0.73662  0.46911  0.8349899999999998  1.0000
  C   C60       1.0  0.71746  0.41572  0.83904  1.0000
  C   C61       1.0  0.7375600000000002  0.35295  0.82401  1.0000
  C   C62       1.0  0.67849  0.42586  0.8542299999999998  1.0000
  S   S4        1.0  0.66584  0.50411  0.86335  1.0000
  C   C63       1.0  0.7017400000000001  0.63796  0.83879  1.0000
  C   C64       1.0  0.7149100000000003  0.69925  0.8249999999999998  1.0000
  N   N11       1.0  0.68858  0.7532399999999999  0.8236899999999998  1.0000
  C   C65       1.0  0.69618  0.81304  0.8471199999999999  1.0000
  C   C66       1.0  0.6631500000000002  0.8494999999999999  0.83478  1.0000
  N   N12       1.0  0.63474  0.8131999999999999  0.8037099999999999  1.0000
  C   C67       1.0  0.65119  0.7548699999999999  0.79786  1.0000
  C   C68       1.0  0.75414  0.70719  0.81141  1.0000
  H   H28       1.0  0.78676  0.55446  0.8297999999999998  1.0000
  H   H29       1.0  0.7684300000000002  0.35911  0.8094  1.0000
  H   H30       1.0  0.7345500000000003  0.32278  0.8955  1.0000
  H   H31       1.0  0.72551  0.32934  0.7551299999999999  1.0000
  H   H32       1.0  0.67154  0.63171  0.8491199999999999  1.0000
  H   H33       1.0  0.72345  0.82921  0.87293  1.0000
  H   H34       1.0  0.6599000000000003  0.89957  0.84784  1.0000
  H   H35       1.0  0.63586  0.71441  0.7735  1.0000
  H   H36       1.0  0.76459  0.75403  0.79889  1.0000
  C   C69       1.0  0.44969  0.62825  0.4757399999999999  1.0000
  C   C70       1.0  0.47879000000000005  0.5815  0.49142  1.0000
  C   C71       1.0  0.4702700000000001  0.52144  0.53092  1.0000
  C   C72       1.0  0.50125  0.47408  0.55651  1.0000
  N   N13       1.0  0.53709  0.47858  0.5193299999999998  1.0000
  C   C73       1.0  0.56023  0.43188  0.55836  1.0000
  C   C74       1.0  0.60175  0.42703  0.5308099999999999  1.0000
  C   C75       1.0  0.54193  0.39163  0.62716  1.0000
  S   S5        1.0  0.49475  0.41228  0.6422799999999999  1.0000
  C   C76       1.0  0.43194000000000005  0.50758  0.54986  1.0000
  C   C77       1.0  0.40249  0.55335  0.53364  1.0000
  N   N14       1.0  0.36321  0.53801  0.55111  1.0000
  C   C78       1.0  0.33387000000000006  0.57756  0.57649  1.0000
  C   C79       1.0  0.3015200000000001  0.54317  0.58486  1.0000
  N   N15       1.0  0.31016  0.4823200000000001  0.5642199999999999  1.0000
  C   C80       1.0  0.34796  0.48082  0.54408  1.0000
  C   C81       1.0  0.4118700000000001  0.61411  0.49991999999999986  1.0000
  H   H37       1.0  0.50819  0.59242  0.47571  1.0000
  H   H38       1.0  0.60914  0.46568999999999994  0.4753599999999999  1.0000
  H   H39       1.0  0.6192500000000002  0.43062  0.6029499999999999  1.0000
  H   H40       1.0  0.60846  0.38134  0.49273  1.0000
  H   H41       1.0  0.4249000000000001  0.46137  0.5792399999999999  1.0000
  H   H42       1.0  0.33563  0.62753  0.58947  1.0000
  H   H43       1.0  0.27329  0.56126  0.60517  1.0000
  H   H44       1.0  0.36383000000000004  0.43819  0.52313  1.0000
  H   H45       1.0  0.38959  0.65022  0.49112  1.0000
  C   C82       1.0  0.9880700000000001  0.86121  0.89132  1.0000
  C   C83       1.0  0.9875600000000001  0.9199600000000001  0.9403499999999998  1.0000
  C   C84       1.0  0.021630000000000007  0.9466000000000001  0.9723499999999999  1.0000
  C   C85       1.0  0.02064  0.00966  0.02108  1.0000
  N   N16       1.0  0.98876  0.04721  0.02088  1.0000
  C   C86       1.0  0.99493  0.10277  0.06492  1.0000
  C   C87       1.0  0.96367  0.15251  0.07369999999999999  1.0000
  C   C88       1.0  0.03211000000000001  0.10795  0.09984  1.0000
  S   S6        1.0  0.059739999999999994  0.04148  0.07767999999999999  1.0000
  C   C89       1.0  0.056460000000000024  0.91317  0.95539  1.0000
  C   C90       1.0  0.057550000000000004  0.85443  0.90619  1.0000
  N   N17       1.0  0.09342000000000003  0.82068  0.88855  1.0000
  C   C91       1.0  0.09927  0.75809  0.8782  1.0000
  C   C92       1.0  0.13762  0.74595  0.8623699999999997  1.0000
  N   N18       1.0  0.15605  0.8004400000000002  0.86246  1.0000
  C   C93       1.0  0.12830999999999998  0.8449900000000001  0.8786799999999998  1.0000
  C   C94       1.0  0.023150000000000007  0.829  0.87423  1.0000
  H   H46       1.0  0.9605300000000001  0.94506  0.9533399999999997  1.0000
  H   H47       1.0  0.9365200000000001  0.13499  0.04285999999999999  1.0000
  H   H48       1.0  0.9593899999999999  0.16497  0.15731  1.0000
  H   H49       1.0  0.9709800000000001  0.19512000000000002  0.027199999999999995  1.0000
  H   H50       1.0  0.08287000000000003  0.93262  0.98069  1.0000
  H   H51       1.0  0.07755  0.72334  0.88336  1.0000
  H   H52       1.0  0.15139  0.70007  0.85166  1.0000
  H   H53       1.0  0.13378  0.89469  0.8817899999999997  1.0000
  H   H54       1.0  0.023710000000000123  0.78413  0.83532  1.0000
  C   C95       1.0  0.5363600000000002  0.08562000000000002  0.81135  1.0000
  C   C96       1.0  0.52002  0.04669  0.8881299999999998  1.0000
  C   C97       1.0  0.50314  0.9903900000000001  0.8601  1.0000
  C   C98       1.0  0.48634  0.94923  0.94199  1.0000
  N   N19       1.0  0.48177000000000003  0.9681800000000002  0.04175  1.0000
  C   C99       1.0  0.46645  0.92327  0.10188  1.0000
  C   C100      1.0  0.45629000000000003  0.93438  0.21442999999999995  1.0000
  C   C101      1.0  0.45932000000000006  0.86906  0.04774  1.0000
  S   S7        1.0  0.47131000000000006  0.87475  0.9180599999999998  1.0000
  C   C102      1.0  0.50273  0.9736199999999999  0.75377  1.0000
  C   C103      1.0  0.51916  0.011769999999999997  0.67611  1.0000
  N   N20       1.0  0.5200700000000001  0.9927999999999999  0.56793  1.0000
  C   C104      1.0  0.52261  0.03024  0.48187  1.0000
  C   C105      1.0  0.52429  0.9925900000000001  0.39522  1.0000
  N   N21       1.0  0.52279  0.9316500000000001  0.4259  1.0000
  C   C106      1.0  0.5201300000000002  0.93349  0.53152  1.0000
  C   C107      1.0  0.53558  0.06796  0.7057099999999998  1.0000
  H   H55       1.0  0.5206  0.06022  0.9697599999999998  1.0000
  H   H56       1.0  0.46220000000000006  0.9834899999999999  0.23558999999999994  1.0000
  H   H57       1.0  0.42544000000000004  0.92705  0.22703  1.0000
  H   H58       1.0  0.47336  0.90163  0.26628  1.0000
  H   H59       1.0  0.48915000000000003  0.9312400000000001  0.73065  1.0000
  H   H60       1.0  0.52295  0.08117  0.4813899999999999  1.0000
  H   H61       1.0  0.5265400000000001  0.00862  0.31438  1.0000
  H   H62       1.0  0.51901  0.89155  0.58088  1.0000
  H   H63       1.0  0.5489  0.09706999999999999  0.64658  1.0000
  C   C108      1.0  0.06324  0.38702  0.41051999999999994  1.0000
  C   C109      1.0  0.03383000000000001  0.43084  0.43531  1.0000
  C   C110      1.0  0.04045  0.48025999999999996  0.50382  1.0000
  C   C111      1.0  0.008749999999999999  0.5246  0.53364  1.0000
  N   N22       1.0  0.97672  0.53223  0.47554999999999986  1.0000
  C   C112      1.0  0.95203  0.57414  0.51869  1.0000
  C   C113      1.0  0.91389  0.5899  0.47005999999999987  1.0000
  C   C114      1.0  0.96514  0.59838  0.61164  1.0000
  S   S8        1.0  0.009429999999999997  0.56826  0.64555  1.0000
  C   C115      1.0  0.07743  0.48685  0.54385  1.0000
  C   C116      1.0  0.10765999999999999  0.44477000000000005  0.5165399999999999  1.0000
  N   N23       1.0  0.14612  0.4545199999999999  0.5521  1.0000
  C   C117      1.0  0.17592000000000005  0.41247999999999996  0.55436  1.0000
  C   C118      1.0  0.20739  0.44222  0.5902699999999999  1.0000
  N   N24       1.0  0.19776000000000005  0.50271  0.61077  1.0000
  C   C119      1.0  0.16031  0.5086  0.58683  1.0000
  C   C120      1.0  0.09990000000000003  0.39406  0.45158  1.0000
  H   H64       1.0  0.005560000000000002  0.42537  0.4034099999999999  1.0000
  H   H65       1.0  0.9096700000000003  0.56075  0.3998499999999999  1.0000
  H   H66       1.0  0.89087  0.58036  0.52749  1.0000
  H   H67       1.0  0.9121300000000001  0.64031  0.4452  1.0000
  H   H68       1.0  0.08274  0.52517  0.59572  1.0000
  H   H69       1.0  0.17518  0.36356  0.5327499999999998  1.0000
  H   H70       1.0  0.2357  0.42105  0.6012  1.0000
  H   H71       1.0  0.14401  0.55257  0.59361  1.0000
  H   H72       1.0  0.12269000000000001  0.36133  0.42896999999999996  1.0000
