data_image0
_chemical_formula_structural       EuOCO6COC2EuOCO6COC2EuOCO6COC2EuOCO6COC3NC3ClCClC2ClCClH5CNC3ClCClC2ClCClH5CNC3ClCClC2ClCClH5CNC3ClCClC2ClCClH5CNC3ClCClC2ClCClH5CNC3ClCClC2ClCClH5CNC3ClCClC2ClCClH5CNC3ClCClC2ClCClH5
_chemical_formula_sum              "Eu4 O32 C80 N8 Cl32 H40"
_cell_length_a       38.7523
_cell_length_b       16.2316
_cell_length_c       17.1074
_cell_angle_alpha    85.02590000000001
_cell_angle_beta     90.66520000000001
_cell_angle_gamma    85.07960000000001

_symmetry_space_group_name_H-M    'P 1'
_symmetry_Int_Tables_number       1

loop_
  _symmetry_equiv_pos_as_xyz
  'x,y,z'

loop_
  _atom_site_type_symbol
  _atom_site_label
  _atom_site_symmetry_multiplicity
  _atom_site_fract_x
  _atom_site_fract_y
  _atom_site_fract_z
  _atom_site_occupancy
  Eu  Eu1       1.0  0.38958000000000004  0.74039  0.29111  1.0000
  O   O1        1.0  0.32195  0.8072099999999998  0.20755  1.0000
  C   C1        1.0  0.32957999999999993  0.63193  0.32407  1.0000
  O   O2        1.0  0.44919  0.73956  0.17616000000000007  1.0000
  O   O3        1.0  0.41654  0.84333  0.22446  1.0000
  O   O4        1.0  0.42602  0.62834  0.42894  1.0000
  O   O5        1.0  0.32614  0.64258  0.25271  1.0000
  O   O6        1.0  0.36151999999999995  0.6394  0.35927  1.0000
  O   O7        1.0  0.34585999999999995  0.83595  0.32051000000000013  1.0000
  C   C2        1.0  0.31725  0.83461  0.27084  1.0000
  O   O8        1.0  0.41812  0.7677399999999998  0.4023800000000001  1.0000
  C   C3        1.0  0.42839999999999995  0.69683  0.4515500000000001  1.0000
  C   C4        1.0  0.44538  0.81325  0.18522  1.0000
  Eu  Eu2       1.0  0.9240499999999999  0.7073  0.70097  1.0000
  O   O9        1.0  0.8492799999999999  0.7256  0.78669  1.0000
  C   C5        1.0  0.89612  0.53826  0.75371  1.0000
  O   O10       1.0  0.92919  0.83809  0.82467  1.0000
  O   O11       1.0  0.9543  0.8214099999999998  0.70774  1.0000
  O   O12       1.0  0.98017  0.6318999999999998  0.60837  1.0000
  O   O13       1.0  0.9066799999999999  0.55902  0.81609  1.0000
  O   O14       1.0  0.8937199999999998  0.5948099999999997  0.68708  1.0000
  O   O15       1.0  0.87441  0.79355  0.68371  1.0000
  C   C6        1.0  0.8555800000000002  0.79203  0.7528000000000002  1.0000
  O   O16       1.0  0.9322099999999999  0.71412  0.56938  1.0000
  C   C7        1.0  0.96037  0.65925  0.55447  1.0000
  C   C8        1.0  0.94186  0.87039  0.76583  1.0000
  Eu  Eu3       1.0  0.0909  0.2748099999999999  0.1651  1.0000
  O   O17       1.0  0.14625  0.15508  0.22453000000000006  1.0000
  C   C9        1.0  0.15359  0.3652499999999999  0.20868  1.0000
  O   O18       1.0  0.07577  0.27055  0.9952200000000001  1.0000
  O   O19       1.0  0.06144999999999999  0.18647  0.09907000000000003  1.0000
  O   O20       1.0  0.043370000000000006  0.40366  0.07891  1.0000
  O   O21       1.0  0.16322  0.32982  0.15194  1.0000
  O   O22       1.0  0.11984  0.36222  0.23352000000000006  1.0000
  O   O23       1.0  0.09322  0.18274  0.27315  1.0000
  C   C10       1.0  0.12556  0.13829  0.27548  1.0000
  O   O24       1.0  0.03980000000000001  0.33925  0.20076000000000005  1.0000
  C   C11       1.0  0.02834  0.39989  0.14135  1.0000
  C   C12       1.0  0.05881  0.21442  0.01999  1.0000
  Eu  Eu4       1.0  0.62856  0.23145  0.8346  1.0000
  O   O25       1.0  0.66067  0.19411000000000003  0.64725  1.0000
  C   C13       1.0  0.70086  0.2820899999999999  0.81093  1.0000
  O   O26       1.0  0.57614  0.2725999999999999  0.96251  1.0000
  O   O27       1.0  0.5916  0.15441  0.90628  1.0000
  O   O28       1.0  0.6132  0.40659  0.73564  1.0000
  O   O29       1.0  0.7013  0.22731999999999997  0.86408  1.0000
  O   O30       1.0  0.66943  0.30568999999999996  0.7717900000000002  1.0000
  O   O31       1.0  0.63371  0.13155000000000003  0.7475  1.0000
  C   C14       1.0  0.66298  0.14113999999999996  0.7024000000000002  1.0000
  O   O32       1.0  0.58194  0.29621  0.76278  1.0000
  C   C15       1.0  0.58547  0.37737  0.73255  1.0000
  C   C16       1.0  0.5808  0.19675999999999993  0.9701400000000001  1.0000
  C   C17       1.0  0.29884999999999995  0.61713  0.37389  1.0000
  N   N1        1.0  0.2797  0.5518099999999998  0.34451  1.0000
  C   C18       1.0  0.24653000000000005  0.5468999999999998  0.38448  1.0000
  C   C19       1.0  0.22297  0.49772  0.33868  1.0000
  C   C20       1.0  0.21259  0.4204  0.3705  1.0000
  Cl  Cl1       1.0  0.22783999999999996  0.37588  0.46416  1.0000
  C   C21       1.0  0.18993  0.37729  0.32756000000000013  1.0000
  Cl  Cl2       1.0  0.17711  0.28081  0.36803  1.0000
  C   C22       1.0  0.17793  0.41006  0.25225  1.0000
  C   C23       1.0  0.18842  0.4864299999999999  0.21986  1.0000
  Cl  Cl3       1.0  0.1729  0.52839  0.12561  1.0000
  C   C24       1.0  0.21068000000000003  0.53037  0.263  1.0000
  Cl  Cl4       1.0  0.22236  0.62821  0.22249  1.0000
  H   H1        1.0  0.28208  0.67646  0.37096  1.0000
  H   H2        1.0  0.3074  0.5998899999999998  0.43595  1.0000
  H   H3        1.0  0.29440999999999995  0.49496  0.35717  1.0000
  H   H4        1.0  0.23295999999999997  0.6097099999999998  0.3882500000000001  1.0000
  H   H5        1.0  0.25142  0.5201199999999998  0.44594  1.0000
  C   C25       1.0  0.84523  0.8715  0.78811  1.0000
  N   N2        1.0  0.80892  0.90013  0.76833  1.0000
  C   C26       1.0  0.8007900000000001  0.9834799999999998  0.79381  1.0000
  C   C27       1.0  0.76414  0.01646999999999997  0.7688600000000002  1.0000
  C   C28       1.0  0.73682  0.014729999999999981  0.8225800000000001  1.0000
  Cl  Cl5       1.0  0.74381  0.9634  0.91767  1.0000
  C   C29       1.0  0.70361  0.05314999999999998  0.80092  1.0000
  Cl  Cl6       1.0  0.67118  0.050309999999999994  0.87332  1.0000
  C   C30       1.0  0.6971399999999999  0.09337999999999999  0.7243  1.0000
  C   C31       1.0  0.72413  0.08806999999999998  0.6687100000000002  1.0000
  Cl  Cl7       1.0  0.71717  0.12626  0.5689200000000002  1.0000
  C   C32       1.0  0.75733  0.05091999999999997  0.6913800000000002  1.0000
  Cl  Cl8       1.0  0.7907699999999999  0.04831000000000007  0.62151  1.0000
  H   H6        1.0  0.86269  0.91851  0.7644  1.0000
  H   H7        1.0  0.84945  0.86152  0.85294  1.0000
  H   H8        1.0  0.7932300000000001  0.8600699999999998  0.79992  1.0000
  H   H9        1.0  0.8192  0.026679999999999992  0.76778  1.0000
  H   H10       1.0  0.8049299999999998  0.98292  0.85828  1.0000
  C   C33       1.0  0.13461999999999996  0.07001999999999999  0.3392600000000001  1.0000
  N   N3        1.0  0.17096999999999998  0.03787999999999999  0.33188000000000006  1.0000
  C   C34       1.0  0.17734  0.95093  0.36348  1.0000
  C   C35       1.0  0.21349  0.91802  0.34091  1.0000
  C   C36       1.0  0.23949999999999996  0.89141  0.39833  1.0000
  Cl  Cl9       1.0  0.23054  0.89216  0.49983  1.0000
  C   C37       1.0  0.27303  0.86333  0.37567  1.0000
  Cl  Cl10      1.0  0.30326  0.8224  0.4507500000000001  1.0000
  C   C38       1.0  0.28160999999999997  0.86427  0.29496  1.0000
  C   C39       1.0  0.2553099999999999  0.89139  0.23764000000000002  1.0000
  Cl  Cl11      1.0  0.26417  0.8979699999999998  0.13578  1.0000
  C   C40       1.0  0.22151  0.91577  0.26057  1.0000
  Cl  Cl12      1.0  0.18887999999999996  0.94377  0.18704  1.0000
  H   H11       1.0  0.11660999999999999  0.02096  0.33281  1.0000
  H   H12       1.0  0.1307  0.09489  0.39772  1.0000
  H   H13       1.0  0.18674999999999997  0.07413000000000002  0.36241  1.0000
  H   H14       1.0  0.15838  0.9121199999999999  0.33799  1.0000
  H   H15       1.0  0.17334999999999998  0.94672  0.42792  1.0000
  C   C41       1.0  0.88602  0.45168  0.7479  1.0000
  N   N4        1.0  0.8481999999999998  0.4510999999999998  0.7444300000000003  1.0000
  C   C42       1.0  0.8386099999999999  0.36857  0.72871  1.0000
  C   C43       1.0  0.8012  0.35986999999999997  0.7493600000000001  1.0000
  C   C44       1.0  0.77527  0.36207  0.6906300000000002  1.0000
  Cl  Cl13      1.0  0.78454  0.38994  0.59136  1.0000
  C   C45       1.0  0.74169  0.3413699999999999  0.71039  1.0000
  Cl  Cl14      1.0  0.71055  0.34083  0.63433  1.0000
  C   C46       1.0  0.73361  0.3197999999999999  0.7896000000000002  1.0000
  C   C47       1.0  0.7586699999999998  0.32704999999999995  0.8489300000000002  1.0000
  Cl  Cl15      1.0  0.74815  0.31452  0.94966  1.0000
  C   C48       1.0  0.7922699999999999  0.34613  0.82897  1.0000
  Cl  Cl16      1.0  0.8234600000000001  0.35096  0.90472  1.0000
  H   H16       1.0  0.8966699999999999  0.41025999999999996  0.7996900000000002  1.0000
  H   H17       1.0  0.8978499999999999  0.42762999999999995  0.6942800000000002  1.0000
  H   H18       1.0  0.8381599999999999  0.49350999999999995  0.6982100000000002  1.0000
  H   H19       1.0  0.85481  0.31957  0.76495  1.0000
  H   H20       1.0  0.84397  0.3565  0.6670200000000002  1.0000
  C   C49       1.0  0.44057  0.7062699999999995  0.53375  1.0000
  N   N5        1.0  0.4722199999999999  0.65164  0.5560900000000001  1.0000
  C   C50       1.0  0.46398  0.56802  0.58696  1.0000
  C   C51       1.0  0.49596999999999997  0.5192  0.6255300000000003  1.0000
  C   C52       1.0  0.49906  0.50467  0.70825  1.0000
  Cl  Cl17      1.0  0.46706  0.54683  0.77018  1.0000
  C   C53       1.0  0.52843  0.4578699999999999  0.74293  1.0000
  Cl  Cl18      1.0  0.53228  0.44049000000000005  0.8464900000000002  1.0000
  C   C54       1.0  0.55518  0.42714  0.69565  1.0000
  C   C55       1.0  0.55263  0.44252  0.61355  1.0000
  Cl  Cl19      1.0  0.58632  0.40347999999999995  0.5538800000000003  1.0000
  C   C56       1.0  0.52318  0.48866999999999994  0.5786100000000002  1.0000
  Cl  Cl20      1.0  0.52051  0.50738  0.47531  1.0000
  H   H21       1.0  0.41914999999999997  0.69551  0.57521  1.0000
  H   H22       1.0  0.44615999999999995  0.77211  0.53676  1.0000
  H   H23       1.0  0.48392  0.67808  0.60214  1.0000
  H   H24       1.0  0.45441  0.5332  0.5390300000000001  1.0000
  H   H25       1.0  0.44237000000000004  0.57278  0.62899  1.0000
  C   C57       1.0  0.94267  0.9627899999999999  0.75454  1.0000
  N   N6        1.0  0.9665999999999999  0.9910399999999999  0.81173  1.0000
  C   C58       1.0  0.9642899999999999  0.08227000000000005  0.8052100000000002  1.0000
  C   C59       1.0  0.98939  0.11283000000000001  0.86227  1.0000
  C   C60       1.0  0.023350000000000003  0.12714999999999996  0.83922  1.0000
  Cl  Cl21      1.0  0.03809  0.10377999999999998  0.74556  1.0000
  C   C61       1.0  0.0462  0.15919  0.8911  1.0000
  Cl  Cl22      1.0  0.08911  0.17332  0.8613  1.0000
  C   C62       1.0  0.03533  0.17746999999999996  0.96653  1.0000
  C   C63       1.0  0.001600000000000001  0.16115999999999997  0.9903800000000001  1.0000
  Cl  Cl23      1.0  0.98661  0.18647  0.08331  1.0000
  C   C64       1.0  0.9789900000000001  0.12761999999999998  0.93902  1.0000
  Cl  Cl24      1.0  0.9374699999999999  0.10447999999999988  0.9722500000000001  1.0000
  H   H26       1.0  0.9158799999999999  0.9911899999999999  0.7622  1.0000
  H   H27       1.0  0.9504999999999999  0.9814599999999997  0.6932600000000001  1.0000
  H   H28       1.0  0.99179  0.9695300000000001  0.7973000000000002  1.0000
  H   H29       1.0  0.9374  0.10777999999999997  0.8165  1.0000
  H   H30       1.0  0.96946  0.10719999999999996  0.74426  1.0000
  C   C65       1.0  0.57769  0.15076  0.0494699999999999  1.0000
  N   N7        1.0  0.55209  0.08927999999999998  0.04742000000000002  1.0000
  C   C66       1.0  0.54714  0.05259  0.12755  1.0000
  C   C67       1.0  0.52112  0.9877499999999999  0.12912  1.0000
  C   C68       1.0  0.53192  0.90261  0.14421  1.0000
  Cl  Cl25      1.0  0.57641  0.86711  0.14374000000000003  1.0000
  C   C69       1.0  0.50732  0.84442  0.1597  1.0000
  Cl  Cl26      1.0  0.52236  0.7397699999999999  0.18824  1.0000
  C   C70       1.0  0.47147999999999995  0.8708  0.1572  1.0000
  C   C71       1.0  0.4607899999999999  0.9548  0.13296000000000005  1.0000
  Cl  Cl27      1.0  0.4164200000000001  0.9885699999999998  0.11670000000000025  1.0000
  C   C72       1.0  0.48544  0.013060000000000072  0.11995  1.0000
  Cl  Cl28      1.0  0.4714499999999999  0.11860999999999995  0.09400000000000032  1.0000
  H   H31       1.0  0.57013  0.19607999999999995  0.093  1.0000
  H   H32       1.0  0.60375  0.11946999999999997  0.0672299999999999  1.0000
  H   H33       1.0  0.56255  0.041870000000000004  0.014569999999999974  1.0000
  H   H34       1.0  0.53751  0.10162  0.16537  1.0000
  H   H35       1.0  0.57234  0.026560000000000004  0.15434  1.0000
  C   C73       1.0  0.9972899999999999  0.4595799999999999  0.15263  1.0000
  N   N8        1.0  0.0006000000000000011  0.49825  0.22674000000000005  1.0000
  C   C74       1.0  0.9690300000000001  0.55223  0.23956  1.0000
  C   C75       1.0  0.96946  0.5804399999999997  0.32164  1.0000
  C   C76       1.0  0.97212  0.66441  0.3344000000000001  1.0000
  Cl  Cl29      1.0  0.9790999999999999  0.73863  0.25547  1.0000
  C   C77       1.0  0.9693899999999999  0.68993  0.41078  1.0000
  Cl  Cl30      1.0  0.9714  0.79596  0.42595  1.0000
  C   C78       1.0  0.96552  0.63136  0.47522  1.0000
  C   C79       1.0  0.9644299999999999  0.54704  0.46308  1.0000
  Cl  Cl31      1.0  0.95871  0.47321  0.5433  1.0000
  C   C80       1.0  0.96591  0.5219  0.38669  1.0000
  Cl  Cl32      1.0  0.96135  0.41682  0.3726700000000001  1.0000
  H   H36       1.0  0.9739999999999999  0.42408  0.15356000000000006  1.0000
  H   H37       1.0  0.99462  0.5089  0.10286000000000002  1.0000
  H   H38       1.0  0.021229999999999995  0.53608  0.22161000000000003  1.0000
  H   H39       1.0  0.9455199999999999  0.51823  0.23298  1.0000
  H   H40       1.0  0.96618  0.6044999999999998  0.19326  1.0000
