data_image0
_chemical_formula_structural       EuOCO6COC2EuOCO6COC2EuOCO6COC2EuOCO6COC3NC2N2COH5CNC2N2COH5CNC2N2COH5CNC2N2COH5CNC2N2COH5CNC2N2COH5CNC2N2COH5CNC2N2COH5
_chemical_formula_sum              "Eu4 O40 C48 N24 H40"
_cell_length_a       38.8689
_cell_length_b       15.84
_cell_length_c       8.1119
_cell_angle_alpha    88.7245
_cell_angle_beta     104.08950000000002
_cell_angle_gamma    81.9429

_space_group_name_H-M_alt    "P 1"
_space_group_IT_number       1

loop_
  _space_group_symop_operation_xyz
  'x, y, z'

loop_
  _atom_site_type_symbol
  _atom_site_label
  _atom_site_symmetry_multiplicity
  _atom_site_fract_x
  _atom_site_fract_y
  _atom_site_fract_z
  _atom_site_occupancy
  Eu  Eu1       1.0  0.37263999999999997  0.66551  0.83354  1.0000
  O   O1        1.0  0.30366  0.7842099999999997  0.7016899999999999  1.0000
  C   C1        1.0  0.33857  0.5028899999999997  0.82741  1.0000
  O   O2        1.0  0.43109  0.7138599999999998  0.6390700000000001  1.0000
  O   O3        1.0  0.38482  0.7879199999999997  0.7209600000000002  1.0000
  O   O4        1.0  0.44835  0.5768199999999998  0.9192  1.0000
  O   O5        1.0  0.32844  0.53319  0.68116  1.0000
  O   O6        1.0  0.36157  0.5430699999999998  0.94927  1.0000
  O   O7        1.0  0.3356  0.74455  0.97027  1.0000
  C   C2        1.0  0.3086  0.79672  0.85273  1.0000
  O   O8        1.0  0.41953999999999997  0.6718399999999998  0.061780000000000015  1.0000
  C   C3        1.0  0.45061999999999997  0.6264299999999998  0.03313  1.0000
  C   C4        1.0  0.42008999999999996  0.77577  0.708  1.0000
  Eu  Eu2       1.0  0.86953  0.73152  0.94229  1.0000
  O   O9        1.0  0.8260299999999999  0.9006599999999998  0.97227  1.0000
  C   C5        1.0  0.7993599999999998  0.67506  0.97768  1.0000
  O   O10       1.0  0.90164  0.8778699999999998  0.18895000000000017  1.0000
  O   O11       1.0  0.9238  0.7766099999999998  0.03387000000000007  1.0000
  O   O12       1.0  0.92164  0.56256  0.9355100000000002  1.0000
  O   O13       1.0  0.81723  0.6721699999999998  0.12407999999999997  1.0000
  O   O14       1.0  0.81502  0.6884099999999997  0.84428  1.0000
  O   O15       1.0  0.85056  0.8503699999999997  0.76199  1.0000
  C   C6        1.0  0.83254  0.91504  0.8355600000000002  1.0000
  O   O16       1.0  0.89114  0.6647  0.7352500000000002  1.0000
  C   C7        1.0  0.921  0.6050299999999997  0.8078300000000003  1.0000
  C   C8        1.0  0.9192999999999999  0.85985  0.08549999999999991  1.0000
  Eu  Eu3       1.0  0.12008  0.3000499999999999  0.23186000000000007  1.0000
  O   O17       1.0  0.15441  0.13043999999999994  0.13801  1.0000
  C   C9        1.0  0.18361999999999998  0.37653  0.14895  1.0000
  O   O18       1.0  0.05136000000000001  0.2954699999999999  0.36054  1.0000
  O   O19       1.0  0.08478  0.197  0.24409  1.0000
  O   O20       1.0  0.09126999999999999  0.4699399999999999  0.3357300000000001  1.0000
  O   O21       1.0  0.1905  0.3015599999999999  0.12262000000000002  1.0000
  O   O22       1.0  0.15383  0.40507  0.20972  1.0000
  O   O23       1.0  0.16988  0.20728  0.3683800000000001  1.0000
  C   C10       1.0  0.17679  0.14001999999999995  0.26793  1.0000
  O   O24       1.0  0.11553  0.34626  0.49158000000000013  1.0000
  C   C11       1.0  0.09929999999999997  0.4311799999999999  0.47504000000000013  1.0000
  C   C12       1.0  0.05351  0.22835999999999995  0.29142  1.0000
  Eu  Eu4       1.0  0.60448  0.23298999999999997  0.012240000000000029  1.0000
  O   O25       1.0  0.66126  0.09423999999999998  0.92962  1.0000
  C   C13       1.0  0.6737499999999998  0.3098499999999999  0.08482999999999996  1.0000
  O   O26       1.0  0.59403  0.08955999999999996  0.23456000000000013  1.0000
  O   O27       1.0  0.57277  0.12225  0.95177  1.0000
  O   O28       1.0  0.5616  0.41146  0.06085000000000007  1.0000
  O   O29       1.0  0.68484  0.23500999999999994  0.12851999999999997  1.0000
  O   O30       1.0  0.63793  0.3414699999999999  0.0708500000000001  1.0000
  O   O31       1.0  0.62576  0.20868999999999993  0.7764200000000002  1.0000
  C   C14       1.0  0.65638  0.14792999999999995  0.81308  1.0000
  O   O32       1.0  0.55877  0.32471  0.8416500000000002  1.0000
  C   C15       1.0  0.5548599999999999  0.40478999999999987  0.90721  1.0000
  C   C16       1.0  0.5809  0.06537999999999997  0.09386000000000005  1.0000
  C   C17       1.0  0.32677  0.42132999999999987  0.8763200000000001  1.0000
  N   N1        1.0  0.28919999999999996  0.43493  0.88718  1.0000
  C   C18       1.0  0.28366  0.49356  0.018880000000000008  1.0000
  C   C19       1.0  0.24857999999999997  0.4864999999999999  0.057840000000000016  1.0000
  N   N2        1.0  0.22251  0.55334  0.04897  1.0000
  N   N3        1.0  0.19554  0.52154  0.08561000000000003  1.0000
  C   C20       1.0  0.20653  0.43691999999999986  0.11352000000000002  1.0000
  O   O33       1.0  0.2394100000000001  0.4130799999999999  0.09719000000000003  1.0000
  H   H1        1.0  0.3445099999999999  0.3930899999999999  0.9996900000000001  1.0000
  H   H2        1.0  0.32977  0.37441999999999986  0.77889  1.0000
  H   H3        1.0  0.2727399999999999  0.4605199999999999  0.76937  1.0000
  H   H4        1.0  0.3051  0.47656  0.13824000000000006  1.0000
  H   H5        1.0  0.28389  0.56059  0.97566  1.0000
  C   C21       1.0  0.8215699999999998  0.0026699999999999515  0.74933  1.0000
  N   N4        1.0  0.78273  0.026989999999999847  0.72076  1.0000
  C   C22       1.0  0.77234  0.11885  0.67824  1.0000
  C   C23       1.0  0.73321  0.14358999999999994  0.66743  1.0000
  N   N5        1.0  0.7109799999999998  0.19945  0.54782  1.0000
  N   N6        1.0  0.67955  0.20623  0.5841800000000003  1.0000
  C   C24       1.0  0.68422  0.15415000000000004  0.72301  1.0000
  O   O34       1.0  0.71737  0.11433999999999998  0.77841  1.0000
  H   H6        1.0  0.82966  0.0047199999999998354  0.62692  1.0000
  H   H7        1.0  0.8360800000000002  0.04693999999999977  0.8363700000000002  1.0000
  H   H8        1.0  0.77029  0.9949999999999998  0.61622  1.0000
  H   H9        1.0  0.7873899999999998  0.15562999999999994  0.77927  1.0000
  H   H10       1.0  0.7781499999999999  0.1366699999999999  0.55525  1.0000
  C   C25       1.0  0.21234  0.08273999999999997  0.31774  1.0000
  N   N7        1.0  0.2188  0.031989999999999984  0.17562  1.0000
  C   C26       1.0  0.25634999999999997  0.9906599999999998  0.21376  1.0000
  C   C27       1.0  0.26432  0.9489699999999998  0.06052  1.0000
  N   N8        1.0  0.25213  0.9845499999999998  0.9012  1.0000
  N   N9        1.0  0.26623  0.9318699999999998  0.80356  1.0000
  C   C28       1.0  0.28673000000000004  0.8674699999999997  0.9093600000000001  1.0000
  O   O35       1.0  0.28644000000000003  0.8766699999999997  0.0704  1.0000
  H   H11       1.0  0.21307999999999996  0.04029999999999998  0.4302400000000001  1.0000
  H   H12       1.0  0.23331  0.12457999999999998  0.3553100000000001  1.0000
  H   H13       1.0  0.20256999999999997  0.9837899999999999  0.16291  1.0000
  H   H14       1.0  0.27478  0.0388  0.24866000000000005  1.0000
  H   H15       1.0  0.26195  0.94194  0.32192  1.0000
  C   C29       1.0  0.76067  0.6628699999999997  0.93996  1.0000
  N   N10       1.0  0.7576599999999999  0.5736899999999998  0.97983  1.0000
  C   C30       1.0  0.72071  0.55777  0.91003  1.0000
  C   C31       1.0  0.71701  0.4683599999999999  0.95886  1.0000
  N   N11       1.0  0.7398399999999998  0.39959  0.93909  1.0000
  N   N12       1.0  0.72742  0.33303  0.98945  1.0000
  C   C32       1.0  0.69774  0.36454  0.03852999999999996  1.0000
  O   O36       1.0  0.69023  0.44861  0.018920000000000048  1.0000
  H   H16       1.0  0.74834  0.68112  0.80279  1.0000
  H   H17       1.0  0.74658  0.7062799999999998  0.016669999999999966  1.0000
  H   H18       1.0  0.77422  0.53458  0.9189600000000002  1.0000
  H   H19       1.0  0.70155  0.6031499999999997  0.95871  1.0000
  H   H20       1.0  0.71362  0.5659699999999998  0.7686800000000003  1.0000
  C   C33       1.0  0.4865599999999999  0.64243  0.13255  1.0000
  N   N13       1.0  0.4914099999999999  0.6182999999999997  0.3131  1.0000
  C   C34       1.0  0.52951  0.59072  0.39497  1.0000
  C   C35       1.0  0.5338299999999999  0.5592499999999998  0.5744  1.0000
  N   N14       1.0  0.52929  0.61077  0.69891  1.0000
  N   N15       1.0  0.53601  0.5603799999999998  0.83759  1.0000
  C   C36       1.0  0.54395  0.4807799999999999  0.7899  1.0000
  O   O37       1.0  0.54284  0.4778799999999999  0.62672  1.0000
  H   H21       1.0  0.4885300000000001  0.71115  0.11296000000000003  1.0000
  H   H22       1.0  0.50723  0.60496  0.07927000000000002  1.0000
  H   H23       1.0  0.48254000000000014  0.6723999999999998  0.3724400000000001  1.0000
  H   H24       1.0  0.54051  0.5368999999999997  0.3274  1.0000
  H   H25       1.0  0.54518  0.64431  0.39265  1.0000
  C   C37       1.0  0.93356  0.9277699999999998  0.0014799999999999258  1.0000
  N   N16       1.0  0.95625  0.9749899999999998  0.12741000000000002  1.0000
  C   C38       1.0  0.97  0.03888999999999998  0.0368200000000003  1.0000
  C   C39       1.0  0.9882699999999999  0.09888999999999998  0.1558299999999999  1.0000
  N   N17       1.0  0.97148  0.14964999999999995  0.25189  1.0000
  N   N18       1.0  0.99395  0.20174999999999996  0.3181900000000001  1.0000
  C   C40       1.0  0.02328  0.18017  0.25971  1.0000
  O   O38       1.0  0.02055000000000002  0.11661999999999995  0.15752000000000033  1.0000
  H   H26       1.0  0.9104400000000002  0.9717299999999998  0.9212800000000002  1.0000
  H   H27       1.0  0.94945  0.8965099999999998  0.9167600000000001  1.0000
  H   H28       1.0  0.9399699999999999  0.00700999999999996  0.19919000000000006  1.0000
  H   H29       1.0  0.98941  0.006159999999999991  0.9696800000000002  1.0000
  H   H30       1.0  0.9477299999999999  0.07804999999999998  0.9406000000000001  1.0000
  C   C41       1.0  0.5743699999999999  0.9747099999999999  0.07390000000000008  1.0000
  N   N19       1.0  0.5358300000000001  0.9716699999999999  0.011679999999999914  1.0000
  C   C42       1.0  0.5300599999999999  0.8835699999999999  0.97521  1.0000
  C   C43       1.0  0.49108999999999997  0.8785499999999998  0.9043800000000001  1.0000
  N   N20       1.0  0.46427999999999997  0.9308499999999997  0.94393  1.0000
  N   N21       1.0  0.4345899999999999  0.90107  0.8717400000000001  1.0000
  C   C44       1.0  0.44479999999999986  0.8325299999999998  0.79126  1.0000
  O   O39       1.0  0.47982  0.81665  0.8092  1.0000
  H   H31       1.0  0.58525  0.9373099999999999  0.19855  1.0000
  H   H32       1.0  0.5892  0.9471699999999998  0.9816000000000003  1.0000
  H   H33       1.0  0.52378  0.99003  0.11040000000000003  1.0000
  H   H34       1.0  0.5447599999999999  0.85962  0.88001  1.0000
  H   H35       1.0  0.54008  0.8409299999999998  0.09333  1.0000
  C   C45       1.0  0.09101999999999998  0.4743099999999999  0.62631  1.0000
  N   N22       1.0  0.05217999999999999  0.50107  0.59498  1.0000
  C   C46       1.0  0.04327  0.53426  0.74899  1.0000
  C   C47       1.0  0.00419000000000002  0.5691199999999997  0.71341  1.0000
  N   N23       1.0  0.98802  0.6318699999999999  0.59424  1.0000
  N   N24       1.0  0.9548699999999999  0.6499799999999998  0.6091700000000002  1.0000
  C   C48       1.0  0.9525199999999999  0.5976499999999998  0.7371200000000002  1.0000
  O   O40       1.0  0.98288  0.5468899999999998  0.80568  1.0000
  H   H36       1.0  0.10532999999999998  0.53064  0.64852  1.0000
  H   H37       1.0  0.10084999999999998  0.4287299999999999  0.74006  1.0000
  H   H38       1.0  0.044959999999999986  0.55093  0.50051  1.0000
  H   H39       1.0  0.04968999999999999  0.4821899999999999  0.85071  1.0000
  H   H40       1.0  0.058860000000000044  0.5864799999999998  0.7954  1.0000
