data_image0
_chemical_formula_structural       EuOCO6COC2EuOCO6COC2EuOCO6COC2EuOCO6COC5NC2NC12H12C3NC2NC12H12C3NC2NC12H12C3NC2NC12H12C3NC2NC12H12C3NC2NC12H12C3NC2NC12H12C3NC2NC12H12
_chemical_formula_sum              "Eu4 O32 C152 N16 H96"
_cell_length_a       37.4344
_cell_length_b       20.2707
_cell_length_c       11.809000000000001
_cell_angle_alpha    85.90580000000001
_cell_angle_beta     90.0032
_cell_angle_gamma    86.2845

_symmetry_space_group_name_H-M    'P 1'
_symmetry_Int_Tables_number       1

loop_
  _symmetry_equiv_pos_as_xyz
  'x,y,z'

loop_
  _atom_site_type_symbol
  _atom_site_label
  _atom_site_symmetry_multiplicity
  _atom_site_fract_x
  _atom_site_fract_y
  _atom_site_fract_z
  _atom_site_occupancy
  Eu  Eu1       1.0  0.40032  0.72908  0.20934  1.0000
  O   O1        1.0  0.35873  0.8483999999999999  0.07156  1.0000
  C   C1        1.0  0.33774  0.63726  0.23165  1.0000
  O   O2        1.0  0.44001  0.8174  0.0489  1.0000
  O   O3        1.0  0.42863999999999997  0.82298  0.23591  1.0000
  O   O4        1.0  0.40477  0.61633  0.52409  1.0000
  O   O5        1.0  0.33611  0.64043  0.33412  1.0000
  O   O6        1.0  0.37066  0.63758  0.17707  1.0000
  O   O7        1.0  0.34704  0.7863100000000001  0.23256  1.0000
  C   C2        1.0  0.34355  0.84463  0.16306  1.0000
  O   O8        1.0  0.3987  0.70557  0.40098000000000006  1.0000
  C   C3        1.0  0.41718000000000005  0.64696  0.4423  1.0000
  C   C4        1.0  0.44192000000000004  0.84878  0.13298  1.0000
  Eu  Eu2       1.0  0.88231  0.76733  0.78623  1.0000
  O   O9        1.0  0.84071  0.87411  0.49309  1.0000
  C   C5        1.0  0.8114100000000001  0.69506  0.8043600000000001  1.0000
  O   O10       1.0  0.92819  0.85185  0.93569  1.0000
  O   O11       1.0  0.94218  0.77722  0.8067099999999999  1.0000
  O   O12       1.0  0.9317899999999999  0.71549  0.59421  1.0000
  O   O13       1.0  0.8325299999999999  0.65573  0.85619  1.0000
  O   O14       1.0  0.82229  0.75703  0.76563  1.0000
  O   O15       1.0  0.8820999999999999  0.81571  0.60476  1.0000
  C   C6        1.0  0.85478  0.8654299999999999  0.58648  1.0000
  O   O16       1.0  0.89585  0.6640400000000001  0.72235  1.0000
  C   C7        1.0  0.92165  0.66331  0.6366  1.0000
  C   C8        1.0  0.95127  0.82476  0.87928  1.0000
  Eu  Eu3       1.0  0.11479999999999999  0.25494  0.22234  1.0000
  O   O17       1.0  0.17469  0.15302  0.18848000000000004  1.0000
  C   C9        1.0  0.16929  0.3548  0.16893  1.0000
  O   O18       1.0  0.07762  0.20667  0.02926  1.0000
  O   O19       1.0  0.09106  0.15617  0.2018  1.0000
  O   O20       1.0  0.0582  0.36356  0.26799  1.0000
  O   O21       1.0  0.17686  0.30742  0.11316  1.0000
  O   O22       1.0  0.13977  0.35294  0.24045  1.0000
  O   O23       1.0  0.15715  0.20497  0.34329  1.0000
  C   C10       1.0  0.18126  0.16458  0.28591  1.0000
  O   O24       1.0  0.07789  0.27063  0.37197  1.0000
  C   C11       1.0  0.0543  0.32601  0.3516699999999999  1.0000
  C   C12       1.0  0.07793  0.1559  0.09165  1.0000
  Eu  Eu4       1.0  0.62409  0.23932  0.8196900000000001  1.0000
  O   O25       1.0  0.63784  0.08100000000000003  0.8572699999999999  1.0000
  C   C13       1.0  0.67839  0.3393  0.84792  1.0000
  O   O26       1.0  0.57079  0.27404  0.98083  1.0000
  O   O27       1.0  0.57768  0.18105  0.8886  1.0000
  O   O28       1.0  0.59192  0.37109000000000003  0.79564  1.0000
  O   O29       1.0  0.67223  0.31795  0.94478  1.0000
  O   O30       1.0  0.66899  0.30300999999999995  0.7581300000000001  1.0000
  O   O31       1.0  0.64674  0.15716  0.7129099999999999  1.0000
  C   C14       1.0  0.65803  0.10181  0.78382  1.0000
  O   O32       1.0  0.58911  0.28985  0.67657  1.0000
  C   C15       1.0  0.5814  0.35487  0.70445  1.0000
  C   C16       1.0  0.56032  0.21935  0.96795  1.0000
  C   C17       1.0  0.30497  0.63391  0.16458  1.0000
  C   C18       1.0  0.29812  0.67943  0.07112  1.0000
  C   C19       1.0  0.26743  0.6763  0.00388  1.0000
  N   N1        1.0  0.26016  0.7236  0.9083699999999999  1.0000
  C   C20       1.0  0.22782  0.74334  0.86301  1.0000
  C   C21       1.0  0.23290000000000002  0.78903  0.7736000000000001  1.0000
  N   N2        1.0  0.26811  0.79811  0.76206  1.0000
  C   C22       1.0  0.28388  0.75751  0.8456200000000001  1.0000
  C   C23       1.0  0.24415000000000003  0.62595  0.030199999999999998  1.0000
  C   C24       1.0  0.25037  0.57997  0.12444  1.0000
  C   C25       1.0  0.2277  0.52033  0.14078  1.0000
  C   C26       1.0  0.22568  0.48817  0.26285  1.0000
  C   C27       1.0  0.20677999999999996  0.43273  0.2718  1.0000
  C   C28       1.0  0.191  0.41491  0.15868  1.0000
  C   C29       1.0  0.16905  0.4778800000000001  0.11359  1.0000
  C   C30       1.0  0.18803  0.53306  0.10509  1.0000
  C   C31       1.0  0.22325999999999996  0.40922000000000003  0.0787  1.0000
  C   C32       1.0  0.24229  0.46407  0.06957  1.0000
  C   C33       1.0  0.28115  0.58469  0.19144  1.0000
  H   H1        1.0  0.31635  0.71801  0.05228  1.0000
  H   H2        1.0  0.20242  0.72659  0.89305  1.0000
  H   H3        1.0  0.21214  0.81418  0.71979  1.0000
  H   H4        1.0  0.31261000000000005  0.75226  0.8585299999999999  1.0000
  H   H5        1.0  0.22180999999999998  0.62118  0.974  1.0000
  H   H6        1.0  0.23629  0.509  0.33693  1.0000
  H   H7        1.0  0.20259  0.40529999999999994  0.35250999999999993  1.0000
  H   H8        1.0  0.14065  0.47944  0.09401999999999999  1.0000
  H   H9        1.0  0.1753  0.58168  0.08117  1.0000
  H   H10       1.0  0.23104999999999998  0.36536  0.03463  1.0000
  H   H11       1.0  0.26614  0.46676  0.01761  1.0000
  H   H12       1.0  0.28777  0.54841  0.26122  1.0000
  C   C34       1.0  0.84386  0.90938  0.67651  1.0000
  C   C35       1.0  0.8697899999999998  0.92937  0.75017  1.0000
  C   C36       1.0  0.86109  0.97862  0.82535  1.0000
  N   N3        1.0  0.88838  0.0035400000000000023  0.89482  1.0000
  C   C37       1.0  0.88328  0.035629999999999995  0.9902  1.0000
  C   C38       1.0  0.91612  0.05136  0.02873  1.0000
  N   N4        1.0  0.94184  0.030149999999999996  0.9578  1.0000
  C   C39       1.0  0.9239900000000001  0.001150000000000003  0.87733  1.0000
  C   C40       1.0  0.82561  0.005369999999999996  0.82908  1.0000
  C   C41       1.0  0.7984900000000001  0.98273  0.7619500000000001  1.0000
  C   C42       1.0  0.76017  0.01344  0.76791  1.0000
  C   C43       1.0  0.73038  0.96829  0.73824  1.0000
  C   C44       1.0  0.69664  0.99779  0.7420800000000001  1.0000
  C   C45       1.0  0.69542  0.06973999999999998  0.77547  1.0000
  C   C46       1.0  0.7155800000000001  0.06595  0.8890700000000001  1.0000
  C   C47       1.0  0.74909  0.03608000000000001  0.88579  1.0000
  C   C48       1.0  0.72015  0.10531000000000001  0.69057  1.0000
  C   C49       1.0  0.75388  0.07592999999999998  0.68684  1.0000
  C   C50       1.0  0.80835  0.9361900000000001  0.68254  1.0000
  H   H13       1.0  0.89699  0.90846  0.7449700000000001  1.0000
  H   H14       1.0  0.85783  0.0466  0.03022  1.0000
  H   H15       1.0  0.92109  0.07641  0.10452  1.0000
  H   H16       1.0  0.93744  0.97851  0.80734  1.0000
  H   H17       1.0  0.81931  0.04594  0.88162  1.0000
  H   H18       1.0  0.73507  0.91649  0.72209  1.0000
  H   H19       1.0  0.67292  0.9712099999999999  0.72868  1.0000
  H   H20       1.0  0.704  0.08329  0.96674  1.0000
  H   H21       1.0  0.76538  0.027169999999999993  0.9619400000000001  1.0000
  H   H22       1.0  0.71218  0.15035  0.63902  1.0000
  H   H23       1.0  0.77452  0.09611000000000003  0.63254  1.0000
  H   H24       1.0  0.78866  0.92125  0.62408  1.0000
  C   C51       1.0  0.21467  0.13675  0.34239  1.0000
  C   C52       1.0  0.22523  0.15978  0.44567000000000007  1.0000
  C   C53       1.0  0.25687  0.13359  0.50045  1.0000
  N   N5        1.0  0.26744  0.15693  0.60711  1.0000
  C   C54       1.0  0.30087  0.1549  0.65037  1.0000
  C   C55       1.0  0.29907  0.18222000000000002  0.75356  1.0000
  N   N6        1.0  0.2648  0.20137  0.77606  1.0000
  C   C56       1.0  0.24632000000000004  0.18528  0.6851  1.0000
  C   C57       1.0  0.278  0.08407999999999999  0.44996  1.0000
  C   C58       1.0  0.26843  0.06158  0.34479  1.0000
  C   C59       1.0  0.28975  0.00485  0.29326  1.0000
  C   C60       1.0  0.29167  0.010629999999999917  0.16229  1.0000
  C   C61       1.0  0.30903  0.95747  0.11723  1.0000
  C   C62       1.0  0.32337  0.9037  0.20707  1.0000
  C   C63       1.0  0.34665  0.9401  0.28589  1.0000
  C   C64       1.0  0.32934  0.9932899999999999  0.33021  1.0000
  C   C65       1.0  0.29062  0.8857300000000001  0.27816  1.0000
  C   C66       1.0  0.27317  0.9384500000000001  0.32321  1.0000
  C   C67       1.0  0.2362  0.08745  0.29321  1.0000
  H   H25       1.0  0.20905  0.19872  0.48279  1.0000
  H   H26       1.0  0.32488  0.13565  0.60998  1.0000
  H   H27       1.0  0.32144  0.18777  0.80926  1.0000
  H   H28       1.0  0.21751  0.19336000000000003  0.67764  1.0000
  H   H29       1.0  0.30125  0.06169  0.49533  1.0000
  H   H30       1.0  0.2814  0.05374000000000001  0.10955  1.0000
  H   H31       1.0  0.31292  0.95492  0.02656  1.0000
  H   H32       1.0  0.37503  0.9276200000000001  0.2999  1.0000
  H   H33       1.0  0.34369  0.026750000000000003  0.3784  1.0000
  H   H34       1.0  0.28185  0.8357600000000001  0.29204  1.0000
  H   H35       1.0  0.24955  0.9333500000000001  0.37571  1.0000
  H   H36       1.0  0.22753000000000004  0.06833  0.21518999999999996  1.0000
  C   C68       1.0  0.77441  0.67742  0.7816699999999999  1.0000
  C   C69       1.0  0.74915  0.72639  0.73651  1.0000
  C   C70       1.0  0.71423  0.71084  0.7112300000000001  1.0000
  N   N7        1.0  0.68808  0.76197  0.66898  1.0000
  C   C71       1.0  0.65242  0.76326  0.6842599999999999  1.0000
  C   C72       1.0  0.63758  0.8219900000000001  0.63405  1.0000
  N   N8        1.0  0.66362  0.85781  0.58738  1.0000
  C   C73       1.0  0.69404  0.81981  0.6103  1.0000
  C   C74       1.0  0.70479  0.64516  0.73099  1.0000
  C   C75       1.0  0.7291999999999998  0.59521  0.77911  1.0000
  C   C76       1.0  0.71699  0.52485  0.8001599999999999  1.0000
  C   C77       1.0  0.74088  0.47500000000000003  0.87696  1.0000
  C   C78       1.0  0.72845  0.41320999999999997  0.89022  1.0000
  C   C79       1.0  0.69312  0.40645  0.8277299999999999  1.0000
  C   C80       1.0  0.66739  0.46141000000000004  0.86977  1.0000
  C   C81       1.0  0.67987  0.5229  0.85633  1.0000
  C   C82       1.0  0.70061  0.42859  0.70339  1.0000
  C   C83       1.0  0.7129700000000001  0.49042  0.6891  1.0000
  C   C84       1.0  0.76434  0.61195  0.80239  1.0000
  H   H37       1.0  0.7565  0.7770300000000001  0.72235  1.0000
  H   H38       1.0  0.6382  0.72524  0.73068  1.0000
  H   H39       1.0  0.6094200000000001  0.8378600000000002  0.63176  1.0000
  H   H40       1.0  0.7201700000000001  0.83444  0.58313  1.0000
  H   H41       1.0  0.67815  0.63265  0.70868  1.0000
  H   H42       1.0  0.76438  0.4868700000000001  0.9229000000000002  1.0000
  H   H43       1.0  0.74198  0.37321  0.94313  1.0000
  H   H44       1.0  0.6416  0.45255  0.908  1.0000
  H   H45       1.0  0.66468  0.56619  0.88422  1.0000
  H   H46       1.0  0.69709  0.39815000000000006  0.63273  1.0000
  H   H47       1.0  0.71984  0.51254  0.60618  1.0000
  H   H48       1.0  0.78435  0.57437  0.83355  1.0000
  C   C85       1.0  0.4522300000000001  0.62383  0.3958999999999999  1.0000
  C   C86       1.0  0.46999  0.66331  0.31459  1.0000
  C   C87       1.0  0.50466  0.64444  0.27975  1.0000
  N   N9        1.0  0.52327  0.68668  0.1996  1.0000
  C   C88       1.0  0.54687  0.6675  0.12111000000000001  1.0000
  C   C89       1.0  0.55879  0.72354  0.06445  1.0000
  N   N10       1.0  0.54295  0.77782  0.10766  1.0000
  C   C90       1.0  0.52138  0.75352  0.19005  1.0000
  C   C91       1.0  0.52213  0.5858  0.32809  1.0000
  C   C92       1.0  0.50509  0.5455  0.41073000000000004  1.0000
  C   C93       1.0  0.52614  0.49158999999999997  0.48389  1.0000
  C   C94       1.0  0.50517  0.43063  0.52028  1.0000
  C   C95       1.0  0.52331  0.3856399999999999  0.59409  1.0000
  C   C96       1.0  0.56103  0.40486000000000005  0.62385  1.0000
  C   C97       1.0  0.5795  0.41631000000000007  0.50874  1.0000
  C   C98       1.0  0.56127  0.4612800000000001  0.43506000000000006  1.0000
  C   C99       1.0  0.55537  0.47429  0.6683  1.0000
  C   C100      1.0  0.53727  0.51915  0.59544  1.0000
  C   C101      1.0  0.47  0.56492  0.44266999999999995  1.0000
  H   H49       1.0  0.4574  0.70969  0.2805  1.0000
  H   H50       1.0  0.55485  0.61664  0.10552  1.0000
  H   H51       1.0  0.57802  0.72474  0.9961  1.0000
  H   H52       1.0  0.50536  0.7846300000000003  0.24390000000000003  1.0000
  H   H53       1.0  0.54974  0.57478  0.30627  1.0000
  H   H54       1.0  0.47880999999999996  0.42258999999999997  0.48789  1.0000
  H   H55       1.0  0.51217  0.33979  0.62557  1.0000
  H   H56       1.0  0.60398  0.3891  0.48530000000000006  1.0000
  H   H57       1.0  0.57019  0.47057000000000004  0.34844  1.0000
  H   H58       1.0  0.56487  0.48760000000000003  0.7499  1.0000
  H   H59       1.0  0.5315900000000001  0.57036  0.61495  1.0000
  H   H60       1.0  0.45725  0.53601  0.50992  1.0000
  C   C102      1.0  0.9888800000000001  0.84318  0.88259  1.0000
  C   C103      1.0  0.014229999999999965  0.80927  0.81702  1.0000
  C   C104      1.0  0.04906  0.82998  0.80479  1.0000
  N   N11       1.0  0.07438  0.7968300000000001  0.7326  1.0000
  C   C105      1.0  0.11039999999999998  0.7964900000000001  0.7369500000000001  1.0000
  C   C106      1.0  0.12406  0.76059  0.65053  1.0000
  N   N12       1.0  0.09701  0.73838  0.59161  1.0000
  C   C107      1.0  0.06718999999999999  0.76127  0.64398  1.0000
  C   C108      1.0  0.05834  0.88537  0.85959  1.0000
  C   C109      1.0  0.034339999999999996  0.9180500000000001  0.93196  1.0000
  C   C110      1.0  0.0452  0.9815499999999999  0.9806499999999999  1.0000
  C   C111      1.0  0.02563  0.0036  0.08791  1.0000
  C   C112      1.0  0.03617  0.06203  0.12336  1.0000
  C   C113      1.0  0.0655  0.09283000000000001  0.04974  1.0000
  C   C114      1.0  0.09576  0.03826  0.04836000000000001  1.0000
  C   C115      1.0  0.08516999999999998  0.9800099999999999  0.014059999999999961  1.0000
  C   C116      1.0  0.05005  0.09914000000000002  0.92877  1.0000
  C   C117      1.0  0.03941  0.041210000000000004  0.8930299999999999  1.0000
  C   C118      1.0  0.9994000000000001  0.8960799999999999  0.94342  1.0000
  H   H61       1.0  0.006680000000000022  0.76695  0.77401  1.0000
  H   H62       1.0  0.12575  0.82018  0.79819  1.0000
  H   H63       1.0  0.15212  0.75132  0.63123  1.0000
  H   H64       1.0  0.04047  0.75287  0.61552  1.0000
  H   H65       1.0  0.08422  0.90446  0.84257  1.0000
  H   H66       1.0  0.006529999999999996  0.97483  0.13558  1.0000
  H   H67       1.0  0.02545  0.08347  0.19884  1.0000
  H   H68       1.0  0.12305000000000002  0.04428  0.07499  1.0000
  H   H69       1.0  0.10338  0.93606  0.015570000000000084  1.0000
  H   H70       1.0  0.04693  0.14546  0.87667  1.0000
  H   H71       1.0  0.026869999999999998  0.03842  0.8107499999999999  1.0000
  H   H72       1.0  0.98011  0.92096  0.9962799999999999  1.0000
  C   C119      1.0  0.53033  0.19483999999999999  0.03791000000000011  1.0000
  C   C120      1.0  0.51206  0.23705000000000004  0.11146000000000002  1.0000
  C   C121      1.0  0.48498  0.21398  0.18308  1.0000
  N   N13       1.0  0.46697  0.25666  0.26066  1.0000
  C   C122      1.0  0.45316000000000006  0.23846000000000003  0.36257000000000006  1.0000
  C   C123      1.0  0.43875  0.29453  0.40892  1.0000
  N   N14       1.0  0.44305  0.3479  0.3365  1.0000
  C   C124      1.0  0.46039  0.32304  0.24714  1.0000
  C   C125      1.0  0.47601999999999994  0.14816  0.17981  1.0000
  C   C126      1.0  0.4933100000000001  0.10496  0.10603999999999998  1.0000
  C   C127      1.0  0.48133  0.03426  0.10829  1.0000
  C   C128      1.0  0.5003699999999999  0.98523  0.03  1.0000
  C   C129      1.0  0.48754000000000003  0.92365  0.0388  1.0000
  C   C130      1.0  0.45685  0.9161300000000001  0.12425  1.0000
  C   C131      1.0  0.47221  0.9367200000000001  0.23588  1.0000
  C   C132      1.0  0.48498  0.9981999999999999  0.22763  1.0000
  C   C133      1.0  0.4285900000000001  0.97158  0.08707  1.0000
  C   C134      1.0  0.44137  0.03298000000000001  0.07800000000000007  1.0000
  C   C135      1.0  0.52057  0.12913  0.03471000000000002  1.0000
  H   H73       1.0  0.51947  0.28761  0.11505  1.0000
  H   H74       1.0  0.45386999999999994  0.18835999999999997  0.40154  1.0000
  H   H75       1.0  0.42605000000000004  0.29641  0.49102  1.0000
  H   H76       1.0  0.46756999999999993  0.35334  0.17248  1.0000
  H   H77       1.0  0.45499  0.13028  0.23449999999999996  1.0000
  H   H78       1.0  0.52255  0.9958399999999998  0.97449  1.0000
  H   H79       1.0  0.49885  0.8835  0.9911999999999999  1.0000
  H   H80       1.0  0.47414  0.90481  0.31371  1.0000
  H   H81       1.0  0.49738  0.01876  0.29918  1.0000
  H   H82       1.0  0.4008  0.96338  0.0696000000000001  1.0000
  H   H83       1.0  0.42451  0.07699999999999999  0.05154999999999999  1.0000
  H   H84       1.0  0.53465  0.09767999999999999  0.97735  1.0000
  C   C136      1.0  0.02481  0.33853  0.43187000000000003  1.0000
  C   C137      1.0  0.013780000000000002  0.28605  0.50466  1.0000
  C   C138      1.0  0.9862600000000001  0.29651  0.58298  1.0000
  N   N15       1.0  0.9746700000000001  0.24250000000000002  0.65678  1.0000
  C   C139      1.0  0.94187  0.23678999999999997  0.70174  1.0000
  C   C140      1.0  0.94231  0.17811  0.76783  1.0000
  N   N16       1.0  0.97515  0.14685000000000004  0.76513  1.0000
  C   C141      1.0  0.9941800000000001  0.18742  0.6966  1.0000
  C   C142      1.0  0.9704499999999999  0.36064  0.58985  1.0000
  C   C143      1.0  0.98145  0.41453000000000007  0.51962  1.0000
  C   C144      1.0  0.9659000000000001  0.4837000000000001  0.54253  1.0000
  C   C145      1.0  0.97597  0.5433  0.46249  1.0000
  C   C146      1.0  0.96134  0.60281  0.49283  1.0000
  C   C147      1.0  0.9378  0.59802  0.5997  1.0000
  C   C148      1.0  0.9100300000000001  0.54874  0.57274  1.0000
  C   C149      1.0  0.92466  0.48927  0.54257  1.0000
  C   C150      1.0  0.96205  0.56126  0.69125  1.0000
  C   C151      1.0  0.97671  0.50194  0.66158  1.0000
  C   C152      1.0  0.008349999999999998  0.40251000000000003  0.43866  1.0000
  H   H85       1.0  0.02623  0.23665  0.49916999999999995  1.0000
  H   H86       1.0  0.91916  0.27215  0.6867800000000001  1.0000
  H   H87       1.0  0.9199900000000001  0.15917999999999996  0.81518  1.0000
  H   H88       1.0  0.02223  0.17703  0.67814  1.0000
  H   H89       1.0  0.95023  0.36934  0.65355  1.0000
  H   H90       1.0  0.99141  0.54023  0.3853  1.0000
  H   H91       1.0  0.96499  0.64871  0.44237  1.0000
  H   H92       1.0  0.8813100000000001  0.55994  0.575  1.0000
  H   H93       1.0  0.9084  0.44981999999999994  0.51929  1.0000
  H   H94       1.0  0.9677700000000001  0.58076  0.77205  1.0000
  H   H95       1.0  0.99478  0.47076000000000007  0.71769  1.0000
  H   H96       1.0  0.017819999999999996  0.44241  0.38375  1.0000
