data_image0
_chemical_formula_structural       EuOCO6COC2EuOCO6COC2EuOCO6COC2EuOCO6COC12N3H9C10N3H9C10N3H9C10N3H9C10N3H9C10N3H9C10N3H9C10N3H9
_chemical_formula_sum              "Eu4 O32 C96 N24 H72"
_cell_length_a       33.1818
_cell_length_b       20.1823
_cell_length_c       10.881100000000002
_cell_angle_alpha    90.7723
_cell_angle_beta     87.248
_cell_angle_gamma    89.2431

_symmetry_space_group_name_H-M    'P 1'
_symmetry_Int_Tables_number       1

loop_
  _symmetry_equiv_pos_as_xyz
  'x,y,z'

loop_
  _atom_site_type_symbol
  _atom_site_label
  _atom_site_symmetry_multiplicity
  _atom_site_fract_x
  _atom_site_fract_y
  _atom_site_fract_z
  _atom_site_occupancy
  Eu  Eu1       1.0  0.40603  0.71457  0.17662  1.0000
  O   O1        1.0  0.34511  0.79486  0.05574  1.0000
  C   C1        1.0  0.332  0.63214  0.10854  1.0000
  O   O2        1.0  0.43275  0.8017300000000002  0.9628399999999999  1.0000
  O   O3        1.0  0.45606  0.7903800000000001  0.15283  1.0000
  O   O4        1.0  0.46779  0.6192100000000001  0.25302  1.0000
  O   O5        1.0  0.34187  0.65675  0.00995  1.0000
  O   O6        1.0  0.35642  0.63886  0.20834999999999998  1.0000
  O   O7        1.0  0.36261  0.79514  0.25321  1.0000
  C   C2        1.0  0.3386  0.81665  0.15985  1.0000
  O   O8        1.0  0.42832999999999993  0.69154  0.36622  1.0000
  C   C3        1.0  0.45833  0.64262  0.35454  1.0000
  C   C4        1.0  0.45713  0.8186500000000001  0.03706  1.0000
  Eu  Eu2       1.0  0.89195  0.74118  0.78989  1.0000
  O   O9        1.0  0.81929  0.8324  0.78539  1.0000
  C   C5        1.0  0.81745  0.6682600000000001  0.8804  1.0000
  O   O10       1.0  0.8967499999999998  0.8551800000000002  0.96265  1.0000
  O   O11       1.0  0.934  0.8293  0.7888299999999999  1.0000
  O   O12       1.0  0.93367  0.6046700000000002  0.78297  1.0000
  O   O13       1.0  0.81943  0.7163200000000001  0.94903  1.0000
  O   O14       1.0  0.84884  0.65456  0.7939199999999998  1.0000
  O   O15       1.0  0.8581599999999999  0.7844600000000002  0.63164  1.0000
  C   C6        1.0  0.82517  0.8227500000000001  0.67499  1.0000
  O   O16       1.0  0.9337999999999997  0.6883800000000001  0.64713  1.0000
  C   C7        1.0  0.94435  0.62458  0.68145  1.0000
  C   C8        1.0  0.92629  0.867  0.89573  1.0000
  Eu  Eu3       1.0  0.11623  0.23622000000000004  0.13848  1.0000
  O   O17       1.0  0.17554  0.12334  0.11885  1.0000
  C   C9        1.0  0.15809  0.36358  0.06541  1.0000
  O   O18       1.0  0.03175  0.22613  0.027679999999999996  1.0000
  O   O19       1.0  0.07291  0.15139000000000002  0.11212  1.0000
  O   O20       1.0  0.06242  0.36067  0.15347  1.0000
  O   O21       1.0  0.13276  0.35548  0.98926  1.0000
  O   O22       1.0  0.16116  0.31875  0.16024  1.0000
  O   O23       1.0  0.14688  0.17721000000000003  0.2847  1.0000
  C   C10       1.0  0.16949  0.12532  0.23041  1.0000
  O   O24       1.0  0.07646  0.28291  0.2935  1.0000
  C   C11       1.0  0.06377  0.34612  0.26169  1.0000
  C   C12       1.0  0.04348  0.16882000000000003  0.03127  1.0000
  Eu  Eu4       1.0  0.62737  0.222  0.83901  1.0000
  O   O25       1.0  0.64172  0.07913000000000002  0.85919  1.0000
  C   C13       1.0  0.68205  0.33653  0.91101  1.0000
  O   O26       1.0  0.57535  0.16373  0.044910000000000005  1.0000
  O   O27       1.0  0.5691800000000001  0.16315  0.83916  1.0000
  O   O28       1.0  0.58446  0.34461  0.87074  1.0000
  O   O29       1.0  0.6585499999999997  0.33469  0.00038999999999989043  1.0000
  O   O30       1.0  0.6848499999999997  0.28289  0.82929  1.0000
  O   O31       1.0  0.65657  0.14756000000000002  0.70186  1.0000
  C   C14       1.0  0.65769  0.08574  0.75698  1.0000
  O   O32       1.0  0.6019799999999998  0.28955  0.69497  1.0000
  C   C15       1.0  0.58527  0.34426000000000007  0.75862  1.0000
  C   C16       1.0  0.55561  0.1473  0.9580599999999999  1.0000
  C   C17       1.0  0.29377  0.5937  0.1233  1.0000
  C   C18       1.0  0.25662999999999997  0.63783  0.1147  1.0000
  C   C19       1.0  0.25149  0.6912600000000001  0.19891  1.0000
  C   C20       1.0  0.21703  0.73166  0.20041  1.0000
  C   C21       1.0  0.18673999999999993  0.71873  0.11951999999999999  1.0000
  C   C22       1.0  0.19105  0.66615  0.03546  1.0000
  C   C23       1.0  0.22577  0.62526  0.031149999999999997  1.0000
  C   C24       1.0  0.22765000000000002  0.56771  0.94079  1.0000
  C   C25       1.0  0.21514999999999995  0.50537  0.00434  1.0000
  C   C26       1.0  0.18374  0.4650100000000001  0.9753499999999999  1.0000
  N   N1        1.0  0.18353  0.41595  0.05777  1.0000
  N   N2        1.0  0.21311  0.42571000000000003  0.13304  1.0000
  N   N3        1.0  0.23292  0.4799900000000001  0.10254  1.0000
  H   H1        1.0  0.29236  0.57055  0.21547  1.0000
  H   H2        1.0  0.29556  0.5525700000000001  0.05514  1.0000
  H   H3        1.0  0.27419  0.70129  0.26473  1.0000
  H   H4        1.0  0.2136  0.7726400000000001  0.26542  1.0000
  H   H5        1.0  0.15961  0.74908  0.12238  1.0000
  H   H6        1.0  0.16677  0.65653  0.9748699999999999  1.0000
  H   H7        1.0  0.25826  0.56189  0.89601  1.0000
  H   H8        1.0  0.20722  0.5770900000000001  0.86459  1.0000
  H   H9        1.0  0.16296  0.4709900000000001  0.90247  1.0000
  C   C27       1.0  0.7969899999999998  0.85215  0.58562  1.0000
  C   C28       1.0  0.81003  0.91899  0.53535  1.0000
  C   C29       1.0  0.8506599999999997  0.9388600000000001  0.5386  1.0000
  C   C30       1.0  0.86275  7.000000000001482e-05  0.49303  1.0000
  C   C31       1.0  0.83468  0.04308000000000001  0.44471  1.0000
  C   C32       1.0  0.79454  0.02438000000000007  0.43879  1.0000
  C   C33       1.0  0.78181  0.9621700000000001  0.48117  1.0000
  C   C34       1.0  0.73837  0.94351  0.46467  1.0000
  C   C35       1.0  0.71195  0.96891  0.57075  1.0000
  C   C36       1.0  0.69809  0.03312  0.5904  1.0000
  N   N4        1.0  0.67658  0.0328  0.69825  1.0000
  N   N5        1.0  0.67705  0.9718900000000001  0.7417800000000001  1.0000
  N   N6        1.0  0.69832  0.9316700000000001  0.6655  1.0000
  H   H10       1.0  0.76692  0.8572200000000001  0.63431  1.0000
  H   H11       1.0  0.794  0.8167800000000002  0.50763  1.0000
  H   H12       1.0  0.87353  0.9071300000000001  0.57527  1.0000
  H   H13       1.0  0.89405  0.0142199999999999  0.49566999999999994  1.0000
  H   H14       1.0  0.84414  0.09076  0.41036999999999996  1.0000
  H   H15       1.0  0.77324  0.05846000000000018  0.40018  1.0000
  H   H16       1.0  0.73521  0.8890400000000003  0.45466999999999996  1.0000
  H   H17       1.0  0.72759  0.9646700000000001  0.37804  1.0000
  H   H18       1.0  0.70358  0.07582  0.5332  1.0000
  C   C37       1.0  0.18539  0.07145  0.30898  1.0000
  C   C38       1.0  0.16673  0.00618  0.27524  1.0000
  C   C39       1.0  0.1288  0.9912800000000002  0.33082  1.0000
  C   C40       1.0  0.10979  0.93199  0.30373  1.0000
  C   C41       1.0  0.12824  0.88674  0.22056  1.0000
  C   C42       1.0  0.16552999999999998  0.9009600000000002  0.16292  1.0000
  C   C43       1.0  0.18521999999999997  0.9604900000000001  0.18848  1.0000
  C   C44       1.0  0.22503  0.97301  0.11976  1.0000
  C   C45       1.0  0.2579  0.931  0.16928  1.0000
  C   C46       1.0  0.28272  0.88681  0.1034  1.0000
  N   N7        1.0  0.30811  0.86181  0.18421  1.0000
  N   N8        1.0  0.2992  0.88899  0.29371  1.0000
  N   N9        1.0  0.26865  0.9316500000000001  0.28732  1.0000
  H   H19       1.0  0.17746  0.08373  0.40722  1.0000
  H   H20       1.0  0.21881  0.06959  0.30178  1.0000
  H   H21       1.0  0.11381  0.02592  0.39540999999999993  1.0000
  H   H22       1.0  0.08063  0.9211600000000001  0.34719  1.0000
  H   H23       1.0  0.11348999999999998  0.8406600000000001  0.20038  1.0000
  H   H24       1.0  0.17908  0.86575  0.09684999999999999  1.0000
  H   H25       1.0  0.23399  0.025530000000000004  0.12341  1.0000
  H   H26       1.0  0.22198  0.96131  0.02056  1.0000
  H   H27       1.0  0.2826  0.8747  0.00617  1.0000
  C   C47       1.0  0.7809  0.62538  0.88708  1.0000
  C   C48       1.0  0.76073  0.62555  0.76516  1.0000
  C   C49       1.0  0.74497  0.68634  0.72528  1.0000
  C   C50       1.0  0.7271800000000002  0.69089  0.61216  1.0000
  C   C51       1.0  0.72424  0.6346800000000001  0.53767  1.0000
  C   C52       1.0  0.73919  0.57374  0.5758  1.0000
  C   C53       1.0  0.75759  0.56798  0.68919  1.0000
  C   C54       1.0  0.77404  0.5006800000000001  0.72337  1.0000
  C   C55       1.0  0.74493  0.46524  0.8085999999999999  1.0000
  C   C56       1.0  0.72979  0.40264  0.79143  1.0000
  N   N10       1.0  0.70492  0.39149000000000006  0.8899999999999999  1.0000
  N   N11       1.0  0.70474  0.44432  0.96345  1.0000
  N   N12       1.0  0.72905  0.49005000000000004  0.9163099999999998  1.0000
  H   H28       1.0  0.75898  0.64437  0.9601699999999999  1.0000
  H   H29       1.0  0.79043  0.57553  0.91578  1.0000
  H   H30       1.0  0.7471  0.73079  0.78145  1.0000
  H   H31       1.0  0.71571  0.7381800000000001  0.58219  1.0000
  H   H32       1.0  0.71059  0.63842  0.4496  1.0000
  H   H33       1.0  0.73645  0.53082  0.51613  1.0000
  H   H34       1.0  0.80374  0.50526  0.7648499999999999  1.0000
  H   H35       1.0  0.78  0.46964000000000006  0.63911  1.0000
  H   H36       1.0  0.73599  0.36898000000000003  0.71443  1.0000
  C   C57       1.0  0.47863000000000006  0.61804  0.46607  1.0000
  C   C58       1.0  0.52326  0.63417  0.47132  1.0000
  C   C59       1.0  0.54232  0.67659  0.38477000000000006  1.0000
  C   C60       1.0  0.58306  0.69173  0.39092999999999994  1.0000
  C   C61       1.0  0.60567  0.6654  0.48346  1.0000
  C   C62       1.0  0.58767  0.62351  0.57019  1.0000
  C   C63       1.0  0.54659  0.60746  0.56586  1.0000
  C   C64       1.0  0.52884  0.56298  0.665  1.0000
  C   C65       1.0  0.54595  0.49397  0.6533  1.0000
  C   C66       1.0  0.55705  0.45503  0.74893  1.0000
  N   N13       1.0  0.57062  0.39748  0.69766  1.0000
  N   N14       1.0  0.5679  0.40088000000000007  0.57687  1.0000
  N   N15       1.0  0.55264  0.45929  0.54701  1.0000
  H   H37       1.0  0.47505000000000003  0.56339  0.46738  1.0000
  H   H38       1.0  0.46250999999999987  0.63948  0.54949  1.0000
  H   H39       1.0  0.52595  0.6989500000000002  0.31218  1.0000
  H   H40       1.0  0.59708  0.7243700000000001  0.32384  1.0000
  H   H41       1.0  0.63717  0.67781  0.4883  1.0000
  H   H42       1.0  0.60581  0.6037400000000002  0.64176  1.0000
  H   H43       1.0  0.49560999999999994  0.55974  0.66486  1.0000
  H   H44       1.0  0.53553  0.58431  0.7565  1.0000
  H   H45       1.0  0.55542  0.4673800000000001  0.84635  1.0000
  C   C67       1.0  0.9547999999999999  0.92038  0.93069  1.0000
  C   C68       1.0  0.9967899999999998  0.89159  0.94294  1.0000
  C   C69       1.0  0.0019299999999999996  0.8416800000000001  0.030359999999999943  1.0000
  C   C70       1.0  0.03937  0.81069  0.041730000000000045  1.0000
  C   C71       1.0  0.07250999999999999  0.82989  0.96793  1.0000
  C   C72       1.0  0.06845  0.88065  0.8835499999999998  1.0000
  C   C73       1.0  0.030899999999999997  0.91238  0.86991  1.0000
  C   C74       1.0  0.028719999999999996  0.9677700000000001  0.77803  1.0000
  C   C75       1.0  0.021570000000000002  0.033580000000000006  0.84138  1.0000
  C   C76       1.0  0.04363  0.06042000000000001  0.93347  1.0000
  N   N16       1.0  0.0289  0.12211  0.9535699999999999  1.0000
  N   N17       1.0  0.9993999999999998  0.13265  0.8779899999999999  1.0000
  N   N18       1.0  0.99419  0.07921  0.8085999999999999  1.0000
  H   H46       1.0  0.9444399999999998  0.9437100000000003  0.02008999999999994  1.0000
  H   H47       1.0  0.95364  0.9593500000000001  0.8605599999999999  1.0000
  H   H48       1.0  0.97654  0.82579  0.08845999999999998  1.0000
  H   H49       1.0  0.04267999999999999  0.77158  0.10777999999999999  1.0000
  H   H50       1.0  0.1015  0.80554  0.97637  1.0000
  H   H51       1.0  0.09491  0.89546  0.82914  1.0000
  H   H52       1.0  0.004879999999999996  0.95771  0.71222  1.0000
  H   H53       1.0  0.05750000000000001  0.9709099999999999  0.72187  1.0000
  H   H54       1.0  0.06895999999999998  0.03812000000000001  0.97752  1.0000
  C   C77       1.0  0.51689  0.11049  0.9806499999999999  1.0000
  C   C78       1.0  0.49672999999999995  0.09427  0.86214  1.0000
  C   C79       1.0  0.46674  0.13798000000000002  0.82273  1.0000
  C   C80       1.0  0.44758  0.12582  0.71342  1.0000
  C   C81       1.0  0.45817  0.07009  0.64148  1.0000
  C   C82       1.0  0.48811999999999994  0.026480000000000063  0.67813  1.0000
  C   C83       1.0  0.50764  0.03754  0.78839  1.0000
  C   C84       1.0  0.53931  0.9879  0.8245199999999999  1.0000
  C   C85       1.0  0.52203  0.94042  0.91683  1.0000
  C   C86       1.0  0.49004999999999993  0.89857  0.90181  1.0000
  N   N19       1.0  0.48539999999999994  0.8653  0.00772  1.0000
  N   N20       1.0  0.51316  0.8854000000000001  0.08289  1.0000
  N   N21       1.0  0.53606  0.9312  0.0297  1.0000
  H   H55       1.0  0.49635  0.14165  0.041749999999999954  1.0000
  H   H56       1.0  0.52288  0.06475  0.03227000000000002  1.0000
  H   H57       1.0  0.4584  0.18213  0.8761799999999998  1.0000
  H   H58       1.0  0.42448  0.15975000000000003  0.68429  1.0000
  H   H59       1.0  0.44331  0.06083  0.55661  1.0000
  H   H60       1.0  0.49588  0.98355  0.62059  1.0000
  H   H61       1.0  0.5655  0.013779999999999903  0.8614199999999999  1.0000
  H   H62       1.0  0.55109  0.9588300000000001  0.7428099999999999  1.0000
  H   H63       1.0  0.4718800000000001  0.89322  0.82229  1.0000
  C   C87       1.0  0.05278  0.39662000000000003  0.36031  1.0000
  C   C88       1.0  0.07979  0.45657  0.34845999999999994  1.0000
  C   C89       1.0  0.12144  0.44695000000000007  0.36223  1.0000
  C   C90       1.0  0.14813  0.49957000000000007  0.35039  1.0000
  C   C91       1.0  0.13376000000000002  0.5628  0.32505  1.0000
  C   C92       1.0  0.09258  0.57382  0.31271  1.0000
  C   C93       1.0  0.06504  0.52151  0.3247  1.0000
  C   C94       1.0  0.020690000000000097  0.5373800000000001  0.31409  1.0000
  C   C95       1.0  0.99991  0.5444200000000001  0.43925  1.0000
  C   C96       1.0  0.97989  0.5999800000000001  0.48649  1.0000
  N   N22       1.0  0.9663799999999999  0.58436  0.60075  1.0000
  N   N23       1.0  0.97744  0.5225600000000001  0.62252  1.0000
  N   N24       1.0  0.9979999999999999  0.49688000000000004  0.52534  1.0000
  H   H64       1.0  0.05639999999999999  0.37447  0.45210999999999996  1.0000
  H   H65       1.0  0.020389999999999995  0.40868000000000004  0.35455  1.0000
  H   H66       1.0  0.13333  0.3981800000000001  0.38173  1.0000
  H   H67       1.0  0.18003  0.49132  0.36134  1.0000
  H   H68       1.0  0.15453999999999998  0.60354  0.31607  1.0000
  H   H69       1.0  0.08207  0.62372  0.29534  1.0000
  H   H70       1.0  0.005819999999999936  0.4995  0.25776  1.0000
  H   H71       1.0  0.01690999999999998  0.58469  0.26432  1.0000
  H   H72       1.0  0.97554  0.6469900000000001  0.44201  1.0000
