data_image0
_chemical_formula_structural       EuOCO6COC2EuOCO6COC2EuOCO6COC2EuOCO6COC2N2COC6H4N2COC6H4N2COC6H4N2COC6H4N2COC6H4N2COC6H4N2COC6H4N2COC6H4
_chemical_formula_sum              "Eu4 O40 C72 N16 H32"
_cell_length_a       36.9925
_cell_length_b       18.632300000000004
_cell_length_c       12.8982
_cell_angle_alpha    82.2749
_cell_angle_beta     83.4558
_cell_angle_gamma    90.0993

_symmetry_space_group_name_H-M    'P 1'
_symmetry_Int_Tables_number       1

loop_
  _symmetry_equiv_pos_as_xyz
  'x,y,z'

loop_
  _atom_site_type_symbol
  _atom_site_label
  _atom_site_symmetry_multiplicity
  _atom_site_fract_x
  _atom_site_fract_y
  _atom_site_fract_z
  _atom_site_occupancy
  Eu  Eu1       1.0  0.39115  0.71404  0.19473999999999994  1.0000
  O   O1        1.0  0.3646  0.8597999999999999  0.09509999999999998  1.0000
  C   C1        1.0  0.32022  0.6887099999999999  0.10224999999999997  1.0000
  O   O2        1.0  0.43922999999999995  0.82978  0.04667  1.0000
  O   O3        1.0  0.44279  0.77616  0.21231999999999995  1.0000
  O   O4        1.0  0.40607  0.55884  0.28789  1.0000
  O   O5        1.0  0.3363  0.73336  0.03532  1.0000
  O   O6        1.0  0.33868  0.65311  0.18154  1.0000
  O   O7        1.0  0.35728  0.8028399999999998  0.26167  1.0000
  C   C2        1.0  0.35033  0.85941  0.18502  1.0000
  O   O8        1.0  0.39046000000000003  0.65861  0.36324  1.0000
  C   C3        1.0  0.39812  0.58534  0.36852999999999997  1.0000
  C   C4        1.0  0.44988000000000006  0.8336499999999998  0.13173  1.0000
  Eu  Eu2       1.0  0.89811  0.79425  0.6603099999999997  1.0000
  O   O9        1.0  0.82029  0.8354499999999999  0.67308  1.0000
  C   C5        1.0  0.8561100000000001  0.6779500000000002  0.8157399999999998  1.0000
  O   O10       1.0  0.93123  0.8914499999999997  0.79077  1.0000
  O   O11       1.0  0.9319099999999999  0.8980699999999998  0.61496  1.0000
  O   O12       1.0  0.94768  0.6759500000000002  0.7028399999999999  1.0000
  O   O13       1.0  0.85133  0.7283999999999998  0.8662299999999998  1.0000
  O   O14       1.0  0.86354  0.69123  0.70637  1.0000
  O   O15       1.0  0.86228  0.83362  0.533  1.0000
  C   C6        1.0  0.82971  0.85706  0.58061  1.0000
  O   O16       1.0  0.93563  0.7357099999999999  0.54822  1.0000
  C   C7        1.0  0.95132  0.6788  0.60742  1.0000
  C   C8        1.0  0.9389000000000001  0.92692  0.70459  1.0000
  Eu  Eu3       1.0  0.10991  0.21237999999999993  0.23061  1.0000
  O   O17       1.0  0.17193  0.10125999999999998  0.23503  1.0000
  C   C9        1.0  0.17812000000000003  0.30418  0.20854999999999999  1.0000
  O   O18       1.0  0.04052000000000001  0.20886  0.13896999999999998  1.0000
  O   O19       1.0  0.07779  0.11858  0.18744999999999995  1.0000
  O   O20       1.0  0.07351  0.35047999999999996  0.3154499999999999  1.0000
  O   O21       1.0  0.18551  0.2523499999999999  0.16225  1.0000
  O   O22       1.0  0.14396  0.3062999999999999  0.2657399999999999  1.0000
  O   O23       1.0  0.13288  0.13962999999999998  0.36264  1.0000
  C   C10       1.0  0.16453000000000004  0.10557  0.32833999999999997  1.0000
  O   O24       1.0  0.06257  0.22986000000000004  0.35428999999999994  1.0000
  C   C11       1.0  0.05677000000000001  0.30102  0.3722499999999999  1.0000
  C   C12       1.0  0.04927  0.14628999999999998  0.13398  1.0000
  Eu  Eu4       1.0  0.61925  0.28481  0.82985  1.0000
  O   O25       1.0  0.66612  0.16699999999999998  0.8995299999999999  1.0000
  C   C13       1.0  0.6591  0.4243  0.84599  1.0000
  O   O26       1.0  0.57298  0.25689  0.030469999999999994  1.0000
  O   O27       1.0  0.58136  0.18922999999999998  0.8973799999999998  1.0000
  O   O28       1.0  0.54276  0.32849  0.8296  1.0000
  O   O29       1.0  0.63608  0.4157799999999998  0.92215  1.0000
  O   O30       1.0  0.65789  0.38004  0.76787  1.0000
  O   O31       1.0  0.65536  0.21201  0.73541  1.0000
  C   C14       1.0  0.67351  0.16563999999999998  0.8052299999999999  1.0000
  O   O32       1.0  0.58527  0.31537  0.6943799999999999  1.0000
  C   C15       1.0  0.55098  0.33638999999999986  0.73438  1.0000
  C   C16       1.0  0.56698  0.19952999999999993  0.9984  1.0000
  N   N1        1.0  0.28166  0.67917  0.1051  1.0000
  N   N2        1.0  0.26394  0.61895  0.12346999999999998  1.0000
  C   C17       1.0  0.27882  0.5473499999999999  0.13447  1.0000
  O   O33       1.0  0.31135000000000007  0.53822  0.11330999999999998  1.0000
  C   C18       1.0  0.25387  0.48378  0.16261999999999996  1.0000
  C   C19       1.0  0.21791  0.49158  0.20784999999999998  1.0000
  C   C20       1.0  0.19361000000000003  0.43243999999999994  0.22699  1.0000
  C   C21       1.0  0.2047  0.36465  0.19982999999999998  1.0000
  C   C22       1.0  0.24097000000000002  0.35627  0.15784  1.0000
  C   C23       1.0  0.26537  0.4150599999999999  0.14013  1.0000
  H   H1        1.0  0.20840999999999998  0.5435999999999999  0.22729999999999997  1.0000
  H   H2        1.0  0.16589000000000004  0.44018999999999997  0.26003  1.0000
  H   H3        1.0  0.25034  0.30449  0.13709  1.0000
  H   H4        1.0  0.29288  0.40736  0.10531999999999997  1.0000
  N   N3        1.0  0.80708  0.9043199999999998  0.52001  1.0000
  N   N4        1.0  0.78801  0.9558699999999999  0.55283  1.0000
  C   C24       1.0  0.78788  0.98155  0.65363  1.0000
  O   O34       1.0  0.81324  0.9689999999999999  0.7059899999999999  1.0000
  C   C25       1.0  0.75781  0.027000000000000014  0.6921499999999998  1.0000
  C   C26       1.0  0.73588  0.06524  0.6217199999999999  1.0000
  C   C27       1.0  0.70852  0.11044999999999998  0.6584  1.0000
  C   C28       1.0  0.70216  0.11720999999999998  0.76616  1.0000
  C   C29       1.0  0.72361  0.07790000000000001  0.8366599999999998  1.0000
  C   C30       1.0  0.7512200000000001  0.03357000000000003  0.7999599999999998  1.0000
  H   H5        1.0  0.7405600000000001  0.06167999999999999  0.53814  1.0000
  H   H6        1.0  0.69242  0.14013  0.60229  1.0000
  H   H7        1.0  0.7193000000000002  0.08167  0.92022  1.0000
  H   H8        1.0  0.76734  0.003970000000000008  0.8562399999999999  1.0000
  N   N5        1.0  0.18677  0.07267000000000001  0.40523999999999993  1.0000
  N   N6        1.0  0.22026000000000004  0.055929999999999994  0.3893599999999999  1.0000
  C   C31       1.0  0.24407000000000004  0.07225999999999999  0.29296  1.0000
  O   O35       1.0  0.2414  0.12913  0.23552999999999996  1.0000
  C   C32       1.0  0.27302  0.02091999999999999  0.26599  1.0000
  C   C33       1.0  0.28124  0.96358  0.34164  1.0000
  C   C34       1.0  0.30688000000000004  0.91237  0.31516  1.0000
  C   C35       1.0  0.32492  0.91709  0.21249999999999994  1.0000
  C   C36       1.0  0.31744  0.97555  0.13694  1.0000
  C   C37       1.0  0.29171  0.026939999999999995  0.16366  1.0000
  H   H9        1.0  0.26754  0.9574299999999999  0.42105999999999993  1.0000
  H   H10       1.0  0.31219  0.8682499999999999  0.37505  1.0000
  H   H11       1.0  0.33104  0.9812399999999999  0.05707999999999999  1.0000
  H   H12       1.0  0.28595000000000004  0.07055999999999996  0.10371  1.0000
  N   N7        1.0  0.83652  0.67011  0.72673  1.0000
  N   N8        1.0  0.80332  0.64515  0.73477  1.0000
  C   C38       1.0  0.77999  0.62383  0.8312699999999997  1.0000
  O   O36       1.0  0.78623  0.64533  0.91264  1.0000
  C   C39       1.0  0.74785  0.5762599999999998  0.83182  1.0000
  C   C40       1.0  0.7445  0.5370099999999999  0.74759  1.0000
  C   C41       1.0  0.71521  0.48879  0.7511799999999998  1.0000
  C   C42       1.0  0.68862  0.47906999999999994  0.83882  1.0000
  C   C43       1.0  0.69136  0.5200399999999998  0.92147  1.0000
  C   C44       1.0  0.72071  0.5678199999999999  0.91824  1.0000
  H   H13       1.0  0.7650100000000001  0.54197  0.6800999999999999  1.0000
  H   H14       1.0  0.71377  0.4581  0.6861299999999999  1.0000
  H   H15       1.0  0.67118  0.51405  0.9898499999999998  1.0000
  H   H16       1.0  0.7223100000000001  0.59767  0.9840299999999998  1.0000
  N   N9        1.0  0.39304  0.54094  0.46888999999999986  1.0000
  N   N10       1.0  0.41513000000000005  0.49469  0.50744  1.0000
  C   C45       1.0  0.45085  0.47734  0.4616  1.0000
  O   O37       1.0  0.46034000000000014  0.49360999999999994  0.3679399999999999  1.0000
  C   C46       1.0  0.47611000000000003  0.43798  0.52995  1.0000
  C   C47       1.0  0.46526  0.4184499999999999  0.6382299999999999  1.0000
  C   C48       1.0  0.48939  0.38447999999999993  0.7041  1.0000
  C   C49       1.0  0.52495  0.36892  0.66332  1.0000
  C   C50       1.0  0.53558  0.38644000000000006  0.55484  1.0000
  C   C51       1.0  0.5114700000000001  0.4209599999999999  0.48881  1.0000
  H   H17       1.0  0.4382  0.43000999999999995  0.6728499999999997  1.0000
  H   H18       1.0  0.48026  0.37104  0.78729  1.0000
  H   H19       1.0  0.56277  0.37477  0.52113  1.0000
  H   H20       1.0  0.52067  0.4351299999999999  0.40572  1.0000
  N   N11       1.0  0.95227  9.999999999999529e-05  0.69496  1.0000
  N   N12       1.0  0.97218  0.025509999999999918  0.75658  1.0000
  C   C52       1.0  0.98956  0.9850199999999999  0.83943  1.0000
  O   O38       1.0  0.99756  0.92176  0.83503  1.0000
  C   C53       1.0  0.0021399999999999987  0.023220000000000005  0.92277  1.0000
  C   C54       1.0  0.98969  0.09307999999999998  0.93616  1.0000
  C   C55       1.0  0.0039900000000000005  0.13206  0.007689999999999999  1.0000
  C   C56       1.0  0.03122  0.10223  0.0672  1.0000
  C   C57       1.0  0.042600000000000006  0.0313  0.05713999999999997  1.0000
  C   C58       1.0  0.028070000000000005  0.99203  0.98608  1.0000
  H   H21       1.0  0.9693600000000001  0.11822999999999999  0.88976  1.0000
  H   H22       1.0  0.99444  0.18641  0.01426  1.0000
  H   H23       1.0  0.06339  0.006679999999999999  0.10231  1.0000
  H   H24       1.0  0.03802000000000001  0.9381199999999998  0.97822  1.0000
  N   N13       1.0  0.54583  0.14332  0.06461999999999989  1.0000
  N   N14       1.0  0.53015  0.15508999999999998  0.15386999999999995  1.0000
  C   C59       1.0  0.50958  0.10107999999999998  0.22614  1.0000
  O   O39       1.0  0.50194  0.11306  0.31654  1.0000
  C   C60       1.0  0.49769  0.031239999999999997  0.19667  1.0000
  C   C61       1.0  0.48688  0.026700000000000005  0.09678000000000009  1.0000
  C   C62       1.0  0.47257000000000005  0.96163  0.07414999999999992  1.0000
  C   C63       1.0  0.4686  0.9001099999999999  0.15104  1.0000
  C   C64       1.0  0.48025000000000007  0.9043499999999998  0.2499  1.0000
  C   C65       1.0  0.49444000000000005  0.9692799999999999  0.27260999999999996  1.0000
  H   H25       1.0  0.48792  0.07392999999999998  0.037609999999999914  1.0000
  H   H26       1.0  0.46345  0.9603399999999999  0.9975799999999998  1.0000
  H   H27       1.0  0.47755  0.858  0.31072  1.0000
  H   H28       1.0  0.50246  0.97135  0.35032  1.0000
  N   N15       1.0  0.03321000000000001  0.31301  0.46435  1.0000
  N   N16       1.0  0.016870000000000003  0.37094  0.48422999999999994  1.0000
  C   C66       1.0  0.015000000000000126  0.43821  0.41613  1.0000
  O   O40       1.0  0.021050000000000013  0.4408999999999997  0.32085  1.0000
  C   C67       1.0  0.0015799999999999157  0.50299  0.463  1.0000
  C   C68       1.0  0.99959  0.50322  0.57238  1.0000
  C   C69       1.0  0.9843500000000001  0.56141  0.61873  1.0000
  C   C70       1.0  0.97049  0.62059  0.55678  1.0000
  C   C71       1.0  0.97355  0.6217499999999999  0.44706  1.0000
  C   C72       1.0  0.9890900000000001  0.5636200000000001  0.40046  1.0000
  H   H29       1.0  0.00937  0.45795  0.62277  1.0000
  H   H30       1.0  0.98266  0.55908  0.7034799999999999  1.0000
  H   H31       1.0  0.96321  0.66679  0.39746  1.0000
  H   H32       1.0  0.9903600000000001  0.56524  0.31589999999999996  1.0000
