data_image0
_chemical_formula_structural       EuOCO6COC2EuOCO6COC2EuOCO6COC2EuOCO6COC10BrCH9C8BrCH9C8BrCH9C8BrCH9C8BrCH9C8BrCH9C8BrCH9C8BrCH9
_chemical_formula_sum              "Eu4 O32 C88 Br8 H72"
_cell_length_a       36.2384
_cell_length_b       19.8573
_cell_length_c       9.2518
_cell_angle_alpha    91.8401
_cell_angle_beta     87.8184
_cell_angle_gamma    86.9928

_space_group_name_H-M_alt    "P 1"
_space_group_IT_number       1

loop_
  _space_group_symop_operation_xyz
  'x, y, z'

loop_
  _atom_site_type_symbol
  _atom_site_label
  _atom_site_symmetry_multiplicity
  _atom_site_fract_x
  _atom_site_fract_y
  _atom_site_fract_z
  _atom_site_occupancy
  Eu  Eu1       1.0  0.38773999999999986  0.73562  0.2538  1.0000
  O   O1        1.0  0.32804999999999995  0.822  0.13273  1.0000
  C   C1        1.0  0.34617  0.60782  0.30355  1.0000
  O   O2        1.0  0.41029  0.8703400000000001  0.11283  1.0000
  O   O3        1.0  0.44041  0.79382  0.24692  1.0000
  O   O4        1.0  0.45365  0.66428  0.35803  1.0000
  O   O5        1.0  0.37846  0.58764  0.29857  1.0000
  O   O6        1.0  0.33651  0.67395  0.26774  1.0000
  O   O7        1.0  0.35313  0.8261800000000001  0.35119  1.0000
  C   C2        1.0  0.3256899999999999  0.8447599999999998  0.25678  1.0000
  O   O8        1.0  0.40213999999999994  0.70578  0.48101999999999995  1.0000
  C   C3        1.0  0.43785  0.67626  0.47576  1.0000
  C   C4        1.0  0.43820999999999993  0.8541  0.17515999999999998  1.0000
  Eu  Eu2       1.0  0.8765399999999999  0.74073  0.81724  1.0000
  O   O9        1.0  0.81658  0.8467099999999999  0.85895  1.0000
  C   C5        1.0  0.81513  0.63566  0.79265  1.0000
  O   O10       1.0  0.9076299999999999  0.87435  0.91393  1.0000
  O   O11       1.0  0.93445  0.78029  0.80158  1.0000
  O   O12       1.0  0.93624  0.63704  0.7879  1.0000
  O   O13       1.0  0.84263  0.59806  0.77939  1.0000
  O   O14       1.0  0.8177  0.7037200000000001  0.82992  1.0000
  O   O15       1.0  0.8567999999999998  0.8238600000000001  0.66943  1.0000
  C   C6        1.0  0.8293799999999998  0.8647499999999999  0.74339  1.0000
  O   O16       1.0  0.8932799999999999  0.66669  0.6296399999999999  1.0000
  C   C7        1.0  0.92142  0.62295  0.67581  1.0000
  C   C8        1.0  0.93396  0.84849  0.84212  1.0000
  Eu  Eu3       1.0  0.11933999999999999  0.28481  0.16070999999999996  1.0000
  O   O17       1.0  0.14913  0.17274  0.96618  1.0000
  C   C9        1.0  0.18978  0.33653  0.027429999999999996  1.0000
  O   O18       1.0  0.06609000000000001  0.19977  0.9714700000000001  1.0000
  O   O19       1.0  0.07843999999999998  0.20420000000000002  0.20861999999999997  1.0000
  O   O20       1.0  0.10946  0.42108000000000007  0.33858  1.0000
  O   O21       1.0  0.18168  0.30184000000000005  0.9236299999999998  1.0000
  O   O22       1.0  0.16179999999999997  0.36369  0.12195  1.0000
  O   O23       1.0  0.16641  0.20599000000000003  0.18815  1.0000
  C   C10       1.0  0.16993999999999998  0.16356  0.06501  1.0000
  O   O24       1.0  0.11672999999999999  0.31218  0.40148  1.0000
  C   C11       1.0  0.10190999999999999  0.37785  0.42418  1.0000
  C   C12       1.0  0.06788  0.17019  0.08458  1.0000
  Eu  Eu4       1.0  0.62415  0.24359  0.71778  1.0000
  O   O25       1.0  0.68276  0.13478  0.36588  1.0000
  C   C13       1.0  0.6869599999999998  0.29188  0.88645  1.0000
  O   O26       1.0  0.57601  0.20034  0.9465699999999999  1.0000
  O   O27       1.0  0.56796  0.19829  0.70622  1.0000
  O   O28       1.0  0.57037  0.36505  0.82015  1.0000
  O   O29       1.0  0.67634  0.2468  0.9613100000000001  1.0000
  O   O30       1.0  0.67958  0.29018  0.74021  1.0000
  O   O31       1.0  0.6397799999999999  0.20028  0.49162  1.0000
  C   C14       1.0  0.6689599999999998  0.15173  0.48442999999999997  1.0000
  O   O32       1.0  0.60401  0.34025  0.61295  1.0000
  C   C15       1.0  0.58503  0.38554000000000005  0.71056  1.0000
  C   C16       1.0  0.55672  0.1846  0.8471799999999999  1.0000
  C   C17       1.0  0.31667  0.56262  0.3535  1.0000
  C   C18       1.0  0.31173  0.50473  0.24366999999999997  1.0000
  C   C19       1.0  0.28465  0.45526  0.30618  1.0000
  C   C20       1.0  0.27514  0.40234  0.19532  1.0000
  C   C21       1.0  0.2383  0.39663  0.15658  1.0000
  C   C22       1.0  0.22887999999999997  0.34551  0.05856000000000001  1.0000
  C   C23       1.0  0.25685  0.30012  0.99858  1.0000
  C   C24       1.0  0.2935  0.30529  0.03739  1.0000
  Br  Br1       1.0  0.331  0.24159000000000003  0.9597300000000001  1.0000
  C   C25       1.0  0.3026099999999999  0.35601  0.13573  1.0000
  H   H1        1.0  0.32436  0.5421  0.45926  1.0000
  H   H2        1.0  0.29007  0.59279  0.37002  1.0000
  H   H3        1.0  0.30095  0.52572  0.14253  1.0000
  H   H4        1.0  0.3389  0.47762  0.21716  1.0000
  H   H5        1.0  0.25908999999999993  0.48399000000000003  0.34836  1.0000
  H   H6        1.0  0.2971199999999999  0.42973  0.39922  1.0000
  H   H7        1.0  0.21688  0.43138  0.20454  1.0000
  H   H8        1.0  0.25012  0.25946  0.92509  1.0000
  H   H9        1.0  0.33097999999999994  0.35867000000000004  0.16708  1.0000
  C   C26       1.0  0.8174  0.93194  0.6844099999999999  1.0000
  C   C27       1.0  0.7806199999999998  0.9624800000000001  0.7540799999999999  1.0000
  C   C28       1.0  0.77553  0.03835  0.7263699999999998  1.0000
  C   C29       1.0  0.7353099999999998  0.06333  0.7318399999999999  1.0000
  C   C30       1.0  0.72083  0.09636  0.61317  1.0000
  C   C31       1.0  0.68363  0.12048  0.61484  1.0000
  C   C32       1.0  0.66077  0.11065  0.73724  1.0000
  C   C33       1.0  0.6750399999999999  0.07816999999999999  0.85664  1.0000
  Br  Br2       1.0  0.6434299999999998  0.06356  0.02122  1.0000
  C   C34       1.0  0.71226  0.05499  0.85445  1.0000
  H   H10       1.0  0.8399599999999998  0.9667600000000001  0.70189  1.0000
  H   H11       1.0  0.81428  0.92555  0.56572  1.0000
  H   H12       1.0  0.75748  0.93494  0.70877  1.0000
  H   H13       1.0  0.77994  0.95637  0.8732499999999999  1.0000
  H   H14       1.0  0.78839  0.04871  0.61892  1.0000
  H   H15       1.0  0.79044  0.06726  0.80848  1.0000
  H   H16       1.0  0.73861  0.10353  0.51892  1.0000
  H   H17       1.0  0.6317  0.12607  0.73879  1.0000
  H   H18       1.0  0.7229599999999998  0.0295  0.94684  1.0000
  C   C35       1.0  0.1992  0.10713000000000002  0.05228  1.0000
  C   C36       1.0  0.19593  0.05893  0.17841  1.0000
  C   C37       1.0  0.21354999999999993  0.9877000000000001  0.13816  1.0000
  C   C38       1.0  0.23825  0.95835  0.25141  1.0000
  C   C39       1.0  0.27014  0.91895  0.20601999999999998  1.0000
  C   C40       1.0  0.29361999999999994  0.8895099999999999  0.30677  1.0000
  C   C41       1.0  0.28515  0.90079  0.45502  1.0000
  C   C42       1.0  0.25297  0.9385600000000001  0.50132  1.0000
  Br  Br3       1.0  0.24114  0.9518800000000001  0.70311  1.0000
  C   C43       1.0  0.22916  0.96606  0.40029  1.0000
  H   H19       1.0  0.19633  0.0793  0.9472999999999999  1.0000
  H   H20       1.0  0.22684999999999997  0.12893  0.05159  1.0000
  H   H21       1.0  0.20904999999999996  0.08232  0.27328  1.0000
  H   H22       1.0  0.16623  0.05329000000000005  0.20851  1.0000
  H   H23       1.0  0.22983  0.9883300000000002  0.03375  1.0000
  H   H24       1.0  0.19123999999999997  0.9525400000000002  0.11885000000000001  1.0000
  H   H25       1.0  0.2765  0.91044  0.09139  1.0000
  H   H26       1.0  0.30299  0.87871  0.53444  1.0000
  H   H27       1.0  0.20392  0.99376  0.4382599999999999  1.0000
  C   C44       1.0  0.77752  0.60938  0.76741  1.0000
  C   C45       1.0  0.77129  0.54644  0.85444  1.0000
  C   C46       1.0  0.73101  0.52656  0.8486499999999999  1.0000
  C   C47       1.0  0.72451  0.46523  0.9360499999999999  1.0000
  C   C48       1.0  0.7118699999999998  0.40653  0.86991  1.0000
  C   C49       1.0  0.70431  0.35039  0.9527799999999998  1.0000
  C   C50       1.0  0.71046  0.35294000000000003  0.10200000000000009  1.0000
  C   C51       1.0  0.72283  0.41127  0.16827  1.0000
  Br  Br4       1.0  0.72975  0.41487  0.37225  1.0000
  C   C52       1.0  0.72937  0.46742  0.08609  1.0000
  H   H28       1.0  0.77522  0.59719  0.6501599999999998  1.0000
  H   H29       1.0  0.75606  0.6497  0.79968  1.0000
  H   H30       1.0  0.78991  0.50389  0.80955  1.0000
  H   H31       1.0  0.77825  0.55702  0.9685500000000001  1.0000
  H   H32       1.0  0.7241999999999997  0.51728  0.7337  1.0000
  H   H33       1.0  0.71225  0.5688  0.89345  1.0000
  H   H34       1.0  0.70691  0.40551  0.75496  1.0000
  H   H35       1.0  0.7049499999999997  0.31025  0.1677599999999999  1.0000
  H   H36       1.0  0.73812  0.51281  0.13954  1.0000
  C   C53       1.0  0.45648  0.66009  0.61412  1.0000
  C   C54       1.0  0.49567999999999995  0.62846  0.58538  1.0000
  C   C55       1.0  0.51469  0.61117  0.72579  1.0000
  C   C56       1.0  0.5497  0.56825  0.69147  1.0000
  C   C57       1.0  0.5519799999999999  0.49981  0.72646  1.0000
  C   C58       1.0  0.58298  0.45805000000000007  0.68038  1.0000
  C   C59       1.0  0.61214  0.48565  0.60196  1.0000
  C   C60       1.0  0.6104699999999998  0.55401  0.57038  1.0000
  Br  Br5       1.0  0.6502  0.59056  0.46192  1.0000
  C   C61       1.0  0.57947  0.59526  0.6151899999999999  1.0000
  H   H37       1.0  0.45779  0.70748  0.68058  1.0000
  H   H38       1.0  0.43956  0.6244  0.6745399999999999  1.0000
  H   H39       1.0  0.49393  0.58152  0.51749  1.0000
  H   H40       1.0  0.51247  0.66439  0.52479  1.0000
  H   H41       1.0  0.49549999999999994  0.58366  0.79641  1.0000
  H   H42       1.0  0.52126  0.65825  0.7855799999999998  1.0000
  H   H43       1.0  0.52901  0.47843  0.78415  1.0000
  H   H44       1.0  0.6362999999999998  0.45421000000000006  0.56614  1.0000
  H   H45       1.0  0.57818  0.64788  0.58764  1.0000
  C   C62       1.0  0.9648999999999999  0.8902200000000001  0.79162  1.0000
  C   C63       1.0  0.9839  0.92389  0.91809  1.0000
  C   C64       1.0  0.01767000000000001  0.96037  0.8617099999999999  1.0000
  C   C65       1.0  0.03686999999999999  0.9955000000000002  0.9823  1.0000
  C   C66       1.0  0.04118999999999999  0.06555  0.9811400000000001  1.0000
  C   C67       1.0  0.06063999999999999  0.09772  0.08999  1.0000
  C   C68       1.0  0.07541  0.05922  0.20087  1.0000
  C   C69       1.0  0.07159  0.98963  0.20151000000000008  1.0000
  Br  Br6       1.0  0.09339999999999998  0.9376600000000002  0.34936999999999996  1.0000
  C   C70       1.0  0.05254999999999998  0.9578300000000001  0.0926800000000001  1.0000
  H   H46       1.0  0.9855099999999999  0.85718  0.72677  1.0000
  H   H47       1.0  0.9536199999999999  0.92946  0.71987  1.0000
  H   H48       1.0  0.96403  0.96094  0.97649  1.0000
  H   H49       1.0  0.99273  0.88445  0.99425  1.0000
  H   H50       1.0  0.008550000000000058  0.99729  0.78047  1.0000
  H   H51       1.0  0.037869999999999994  0.92326  0.80571  1.0000
  H   H52       1.0  0.02986  0.09483000000000001  0.89483  1.0000
  H   H53       1.0  0.09093  0.08269  0.28474  1.0000
  H   H54       1.0  0.05045  0.9036300000000002  0.09349000000000007  1.0000
  C   C71       1.0  0.52062  0.15281000000000003  0.87863  1.0000
  C   C72       1.0  0.52619  0.08454000000000002  0.9521000000000001  1.0000
  C   C73       1.0  0.49482999999999994  0.07465  0.06485  1.0000
  C   C74       1.0  0.49745  0.005370000000000097  0.12762  1.0000
  C   C75       1.0  0.46815  0.9618700000000001  0.11491  1.0000
  C   C76       1.0  0.46984999999999993  0.89849  0.17865  1.0000
  C   C77       1.0  0.50164  0.87822  0.25187  1.0000
  C   C78       1.0  0.53077  0.92112  0.26476  1.0000
  Br  Br7       1.0  0.5733  0.89321  0.36802  1.0000
  C   C79       1.0  0.52844  0.98471  0.20479  1.0000
  H   H55       1.0  0.50315  0.18907  0.9491399999999999  1.0000
  H   H56       1.0  0.50605  0.14530000000000004  0.7764299999999998  1.0000
  H   H57       1.0  0.52714  0.04284  0.86848  1.0000
  H   H58       1.0  0.5529099999999999  0.08203  0.00747999999999993  1.0000
  H   H59       1.0  0.46770999999999996  0.08385  0.01453  1.0000
  H   H60       1.0  0.4964600000000001  0.11292  0.15439  1.0000
  H   H61       1.0  0.44392  0.97793  0.05748  1.0000
  H   H62       1.0  0.50375  0.82968  0.30177  1.0000
  H   H63       1.0  0.5508299999999999  0.0180499999999999  0.21875  1.0000
  C   C80       1.0  0.07490999999999999  0.39414  0.54845  1.0000
  C   C81       1.0  0.03717  0.41679  0.49161000000000005  1.0000
  C   C82       1.0  0.006310000000000001  0.41568  0.6093  1.0000
  C   C83       1.0  0.97258  0.45672  0.56612  1.0000
  C   C84       1.0  0.9626099999999999  0.51852  0.63836  1.0000
  C   C85       1.0  0.9322499999999999  0.55909  0.59524  1.0000
  C   C86       1.0  0.9118399999999999  0.53688  0.4786599999999999  1.0000
  C   C87       1.0  0.9212599999999999  0.47471  0.40783  1.0000
  Br  Br8       1.0  0.89243  0.44435  0.25244  1.0000
  C   C88       1.0  0.9515  0.43467  0.45124999999999993  1.0000
  H   H64       1.0  0.07223  0.34835  0.61345  1.0000
  H   H65       1.0  0.08539999999999999  0.43499000000000004  0.61811  1.0000
  H   H66       1.0  0.03889999999999999  0.46873000000000004  0.45071  1.0000
  H   H67       1.0  0.030180000000000085  0.38294  0.39955  1.0000
  H   H68       1.0  0.016340000000000007  0.43599  0.7133099999999999  1.0000
  H   H69       1.0  0.9989999999999999  0.36282  0.62701  1.0000
  H   H70       1.0  0.9787799999999999  0.53526  0.72762  1.0000
  H   H71       1.0  0.88831  0.56717  0.4437999999999999  1.0000
  H   H72       1.0  0.95869  0.38674  0.39521  1.0000
