data_image0
_chemical_formula_structural       EuOCO6COC2EuOCO6COC2EuOCO6COC2EuOCO6COC7OC2NC5H7C5OC2NC5H7C5OC2NC5H7C5OC2NC5H7C5OC2NC5H7C5OC2NC5H7C5OC2NC5H7C5OC2NC5H7
_chemical_formula_sum              "Eu4 O40 C112 N8 H56"
_cell_length_a       35.8671
_cell_length_b       20.4671
_cell_length_c       12.791999999999998
_cell_angle_alpha    93.21200000000002
_cell_angle_beta     88.8545
_cell_angle_gamma    92.9553

_symmetry_space_group_name_H-M    'P 1'
_symmetry_Int_Tables_number       1

loop_
  _symmetry_equiv_pos_as_xyz
  'x,y,z'

loop_
  _atom_site_type_symbol
  _atom_site_label
  _atom_site_symmetry_multiplicity
  _atom_site_fract_x
  _atom_site_fract_y
  _atom_site_fract_z
  _atom_site_occupancy
  Eu  Eu1       1.0  0.38899  0.76663  0.25674  1.0000
  O   O1        1.0  0.3353199999999999  0.91469  0.28419999999999995  1.0000
  C   C1        1.0  0.3196499999999999  0.69729  0.15701999999999994  1.0000
  O   O2        1.0  0.4806899999999999  0.90066  0.17113999999999996  1.0000
  O   O3        1.0  0.4401699999999999  0.83752  0.26043  1.0000
  O   O4        1.0  0.44694  0.66643  0.27911  1.0000
  O   O5        1.0  0.33428  0.7283500000000002  0.08740999999999997  1.0000
  O   O6        1.0  0.33763  0.69611  0.25227  1.0000
  O   O7        1.0  0.3597099999999999  0.83601  0.37379  1.0000
  C   C2        1.0  0.32977  0.86426  0.32968  1.0000
  O   O8        1.0  0.41062  0.71878  0.39877  1.0000
  C   C3        1.0  0.43909  0.67726  0.37135  1.0000
  C   C4        1.0  0.44995  0.8723400000000001  0.17215  1.0000
  Eu  Eu2       1.0  0.88167  0.74619  0.76061  1.0000
  O   O9        1.0  0.84144  0.8700600000000001  0.8062799999999999  1.0000
  C   C5        1.0  0.82791  0.6479  0.8484699999999998  1.0000
  O   O10       1.0  0.9166099999999999  0.7998400000000001  0.9492899999999997  1.0000
  O   O11       1.0  0.9209  0.8355800000000001  0.7865799999999998  1.0000
  O   O12       1.0  0.97061  0.68118  0.66639  1.0000
  O   O13       1.0  0.82675  0.69583  0.90921  1.0000
  O   O14       1.0  0.8419499999999999  0.65615  0.7478199999999999  1.0000
  O   O15       1.0  0.8453399999999998  0.80453  0.6594999999999998  1.0000
  C   C6        1.0  0.83705  0.8635900000000001  0.7119999999999997  1.0000
  O   O16       1.0  0.91498  0.71306  0.61546  1.0000
  C   C7        1.0  0.93889  0.66497  0.63968  1.0000
  C   C8        1.0  0.92316  0.84601  0.8944199999999999  1.0000
  Eu  Eu3       1.0  0.12705  0.26571  0.24518999999999994  1.0000
  O   O17       1.0  0.19617  0.18186  0.24992999999999999  1.0000
  C   C9        1.0  0.19174  0.36725  0.31324  1.0000
  O   O18       1.0  0.07688  0.21992000000000003  0.13932  1.0000
  O   O19       1.0  0.07915  0.21579  0.14887999999999998  1.0000
  O   O20       1.0  0.05553  0.33792000000000005  0.26769999999999994  1.0000
  O   O21       1.0  0.22495  0.37988000000000005  0.3257599999999999  1.0000
  O   O22       1.0  0.1761  0.3076  0.3446499999999999  1.0000
  O   O23       1.0  0.13564999999999997  0.16301000000000002  0.2966  1.0000
  C   C10       1.0  0.17098  0.14217  0.27022  1.0000
  O   O24       1.0  0.08590999999999999  0.28091  0.38235999999999987  1.0000
  C   C11       1.0  0.057129999999999986  0.32009  0.35664999999999997  1.0000
  C   C12       1.0  0.06315999999999997  0.2522400000000001  0.07448  1.0000
  Eu  Eu4       1.0  0.61948  0.23404000000000003  0.7690799999999999  1.0000
  O   O25       1.0  0.6739699999999998  0.1179  0.6929399999999998  1.0000
  C   C13       1.0  0.66642  0.35859  0.8563299999999998  1.0000
  O   O26       1.0  0.5650199999999999  0.17295  0.9215399999999998  1.0000
  O   O27       1.0  0.58791  0.13437  0.7663599999999998  1.0000
  O   O28       1.0  0.53891  0.3133  0.79975  1.0000
  O   O29       1.0  0.6554699999999998  0.40712000000000004  0.9045899999999998  1.0000
  O   O30       1.0  0.6482699999999998  0.33593  0.7655099999999998  1.0000
  O   O31       1.0  0.6522399999999998  0.20622  0.6201199999999999  1.0000
  C   C14       1.0  0.68021  0.16354  0.63688  1.0000
  O   O32       1.0  0.5747899999999998  0.27198  0.6679799999999998  1.0000
  C   C15       1.0  0.5573999999999998  0.32355000000000006  0.7208899999999998  1.0000
  C   C16       1.0  0.5612099999999998  0.13373999999999994  0.8468099999999997  1.0000
  C   C17       1.0  0.28309  0.66173  0.14064  1.0000
  C   C18       1.0  0.26457  0.63115  0.22384999999999994  1.0000
  C   C19       1.0  0.2298  0.59833  0.20910999999999993  1.0000
  C   C20       1.0  0.21312  0.5939  0.11017  1.0000
  C   C21       1.0  0.17602999999999996  0.55928  0.09387999999999999  1.0000
  O   O33       1.0  0.15695  0.57332  0.021309999999999996  1.0000
  C   C22       1.0  0.16082999999999995  0.50962  0.16508  1.0000
  C   C23       1.0  0.12373999999999999  0.51154  0.20150999999999994  1.0000
  N   N1        1.0  0.11043  0.46892  0.27257  1.0000
  C   C24       1.0  0.13186  0.42244  0.30824999999999997  1.0000
  C   C25       1.0  0.16845  0.41629  0.27086  1.0000
  C   C26       1.0  0.18305  0.46076  0.19927999999999996  1.0000
  C   C27       1.0  0.23153  0.62511  0.02719  1.0000
  C   C28       1.0  0.26612  0.65867  0.04218999999999999  1.0000
  H   H1        1.0  0.27671  0.6331200000000001  0.30088999999999994  1.0000
  H   H2        1.0  0.2158099999999999  0.57715  0.27579999999999993  1.0000
  H   H3        1.0  0.10583999999999998  0.54849  0.17666999999999994  1.0000
  H   H4        1.0  0.12098  0.3919000000000001  0.3688099999999999  1.0000
  H   H5        1.0  0.21159  0.45757  0.17064  1.0000
  H   H6        1.0  0.21924  0.62332  0.95036  1.0000
  H   H7        1.0  0.27963  0.68195  0.97646  1.0000
  C   C29       1.0  0.82449  0.9187  0.65363  1.0000
  C   C30       1.0  0.81717  0.9792700000000001  0.70571  1.0000
  C   C31       1.0  0.80792  0.03255999999999999  0.6491299999999998  1.0000
  C   C32       1.0  0.8061099999999999  0.026440000000000005  0.53943  1.0000
  C   C33       1.0  0.8004  0.08416999999999998  0.47784  1.0000
  O   O34       1.0  0.81655  0.08835  0.39342  1.0000
  C   C34       1.0  0.77624  0.13751  0.51507  1.0000
  C   C35       1.0  0.7867299999999999  0.20256000000000002  0.4942599999999999  1.0000
  N   N2        1.0  0.7634699999999998  0.25138  0.52022  1.0000
  C   C36       1.0  0.7294499999999999  0.23937000000000003  0.56548  1.0000
  C   C37       1.0  0.71745  0.17535  0.58836  1.0000
  C   C38       1.0  0.74146  0.12425000000000001  0.56422  1.0000
  C   C39       1.0  0.8127799999999998  0.96568  0.48768  1.0000
  C   C40       1.0  0.82164  0.91226  0.5441799999999999  1.0000
  H   H8        1.0  0.8195  0.98599  0.7899899999999999  1.0000
  H   H9        1.0  0.8035999999999998  0.07921  0.69074  1.0000
  H   H10       1.0  0.81337  0.2145  0.45688  1.0000
  H   H11       1.0  0.71189  0.28003  0.5844  1.0000
  H   H12       1.0  0.73253  0.07426999999999999  0.5795399999999999  1.0000
  H   H13       1.0  0.81158  0.9597300000000001  0.4031199999999999  1.0000
  H   H14       1.0  0.82712  0.86636  0.50174  1.0000
  C   C41       1.0  0.17751  0.07195  0.267  1.0000
  C   C42       1.0  0.20562999999999998  0.0484  0.32672  1.0000
  C   C43       1.0  0.21004  0.98102  0.32878999999999997  1.0000
  C   C44       1.0  0.18780999999999995  0.9360400000000001  0.26616  1.0000
  C   C45       1.0  0.19168  0.8637600000000001  0.26730999999999994  1.0000
  O   O35       1.0  0.16604  0.8271200000000001  0.23486999999999994  1.0000
  C   C46       1.0  0.22481  0.8339100000000002  0.30894  1.0000
  C   C47       1.0  0.2203299999999999  0.77566  0.36182  1.0000
  N   N3        1.0  0.25018  0.7496200000000001  0.40446999999999994  1.0000
  C   C48       1.0  0.28518  0.77767  0.39620999999999995  1.0000
  C   C49       1.0  0.2916299999999999  0.83425  0.34023  1.0000
  C   C50       1.0  0.26108  0.86166  0.2953  1.0000
  C   C51       1.0  0.15990999999999997  0.9605300000000001  0.20539999999999994  1.0000
  C   C52       1.0  0.15442  0.027700000000000002  0.20721  1.0000
  H   H15       1.0  0.22325999999999996  0.08205000000000001  0.3746699999999999  1.0000
  H   H16       1.0  0.23039  0.96468  0.3813099999999999  1.0000
  H   H17       1.0  0.19299  0.75147  0.3709499999999999  1.0000
  H   H18       1.0  0.30795999999999996  0.75522  0.43242  1.0000
  H   H19       1.0  0.2655100000000001  0.9048100000000001  0.25046999999999997  1.0000
  H   H20       1.0  0.14196999999999996  0.92763  0.15713  1.0000
  H   H21       1.0  0.13237  0.045200000000000004  0.16100999999999993  1.0000
  C   C53       1.0  0.81754  0.5821  0.8848899999999997  1.0000
  C   C54       1.0  0.81185  0.52814  0.81328  1.0000
  C   C55       1.0  0.8040699999999998  0.46545  0.8491399999999998  1.0000
  C   C56       1.0  0.80266  0.45561000000000007  0.9569999999999997  1.0000
  C   C57       1.0  0.7953899999999998  0.38915  0.99477  1.0000
  O   O36       1.0  0.815  0.37021  0.06259  1.0000
  C   C58       1.0  0.76452  0.34564  0.9522599999999998  1.0000
  C   C59       1.0  0.7683399999999998  0.27797  0.9364199999999998  1.0000
  N   N4        1.0  0.73987  0.23899000000000004  0.8950299999999998  1.0000
  C   C60       1.0  0.70697  0.2635  0.8690699999999998  1.0000
  C   C61       1.0  0.70139  0.33044999999999997  0.8860099999999997  1.0000
  C   C62       1.0  0.73052  0.3714300000000001  0.92787  1.0000
  C   C63       1.0  0.80842  0.5094400000000001  0.02851999999999988  1.0000
  C   C64       1.0  0.81533  0.57223  0.99284  1.0000
  H   H22       1.0  0.81353  0.53432  0.7297799999999999  1.0000
  H   H23       1.0  0.79995  0.42431  0.79277  1.0000
  H   H24       1.0  0.79406  0.2563  0.95572  1.0000
  H   H25       1.0  0.6850099999999998  0.23066  0.8371  1.0000
  H   H26       1.0  0.72688  0.42356  0.94044  1.0000
  H   H27       1.0  0.80732  0.503  0.11199999999999997  1.0000
  H   H28       1.0  0.81989  0.61293  0.049819999999999975  1.0000
  C   C65       1.0  0.45931  0.64634  0.4537  1.0000
  C   C66       1.0  0.48137999999999986  0.59285  0.42844  1.0000
  C   C67       1.0  0.49926  0.56218  0.50688  1.0000
  C   C68       1.0  0.49624  0.58515  0.6124699999999998  1.0000
  C   C69       1.0  0.51376  0.55074  0.6971399999999998  1.0000
  O   O37       1.0  0.5036899999999999  0.56128  0.7879099999999999  1.0000
  C   C70       1.0  0.5419699999999997  0.5015299999999999  0.6739999999999999  1.0000
  C   C71       1.0  0.5730399999999999  0.51549  0.6092899999999999  1.0000
  N   N5        1.0  0.5969699999999999  0.46802000000000005  0.58123  1.0000
  C   C72       1.0  0.59206  0.40636  0.61495  1.0000
  C   C73       1.0  0.5621599999999999  0.3903  0.6827499999999999  1.0000
  C   C74       1.0  0.53735  0.43901  0.7134899999999998  1.0000
  C   C75       1.0  0.47456  0.63944  0.6372999999999999  1.0000
  C   C76       1.0  0.4562  0.66954  0.5588299999999999  1.0000
  H   H29       1.0  0.48422  0.57372  0.34814999999999996  1.0000
  H   H30       1.0  0.5147499999999999  0.51954  0.4843099999999999  1.0000
  H   H31       1.0  0.57789  0.5637800000000001  0.57965  1.0000
  H   H32       1.0  0.61186  0.37024  0.5898299999999999  1.0000
  H   H33       1.0  0.51376  0.42778000000000005  0.7648399999999999  1.0000
  H   H34       1.0  0.47152999999999995  0.65841  0.71764  1.0000
  H   H35       1.0  0.43963  0.71113  0.58052  1.0000
  C   C77       1.0  0.9302799999999998  0.91245  0.94234  1.0000
  C   C78       1.0  0.9452  0.96295  0.8822299999999997  1.0000
  C   C79       1.0  0.9508099999999999  0.026430000000000002  0.92704  1.0000
  C   C80       1.0  0.9405499999999998  0.0412  0.032319999999999995  1.0000
  C   C81       1.0  0.9468  0.1082  0.08248999999999997  1.0000
  O   O38       1.0  0.9347099999999999  0.12017  0.1709  1.0000
  C   C82       1.0  0.9698199999999999  0.15990000000000001  0.03234  1.0000
  C   C83       1.0  0.9589999999999997  0.1868  0.94005  1.0000
  N   N6        1.0  0.98158  0.23315999999999998  0.8949199999999999  1.0000
  C   C84       1.0  0.014749999999999997  0.25523  0.9372099999999999  1.0000
  C   C85       1.0  0.02661  0.23028000000000004  0.029989999999999992  1.0000
  C   C86       1.0  0.0033499999999999997  0.18303  0.07807999999999998  1.0000
  C   C87       1.0  0.9251599999999999  0.9902900000000001  0.09179999999999998  1.0000
  C   C88       1.0  0.92041  0.9265800000000001  0.047589999999999986  1.0000
  H   H36       1.0  0.9527799999999997  0.95328  0.80064  1.0000
  H   H37       1.0  0.96319  0.06343  0.87839  1.0000
  H   H38       1.0  0.9328999999999997  0.17042000000000002  0.9036699999999999  1.0000
  H   H39       1.0  0.03212  0.29118000000000005  0.89757  1.0000
  H   H40       1.0  0.011429999999999996  0.16329  0.15063  1.0000
  H   H41       1.0  0.9170599999999999  0.9994  0.17312999999999995  1.0000
  H   H42       1.0  0.90837  0.88852  0.09531999999999997  1.0000
  C   C89       1.0  0.52801  0.08766999999999998  0.8401799999999998  1.0000
  C   C90       1.0  0.50092  0.08724000000000001  0.92116  1.0000
  C   C91       1.0  0.46912999999999994  0.044890000000000006  0.9132899999999998  1.0000
  C   C92       1.0  0.46396  0.0016000000000000025  0.8249  1.0000
  C   C93       1.0  0.4308099999999999  0.95521  0.81725  1.0000
  O   O39       1.0  0.41537  0.94592  0.7332299999999999  1.0000
  C   C94       1.0  0.41599999999999987  0.91988  0.90883  1.0000
  C   C95       1.0  0.37842  0.89773  0.91476  1.0000
  N   N7        1.0  0.3648599999999999  0.869  0.0017999999999998015  1.0000
  C   C96       1.0  0.38681  0.85967  0.08457999999999999  1.0000
  C   C97       1.0  0.4249599999999999  0.8782700000000002  0.0818  1.0000
  C   C98       1.0  0.4392699999999999  0.9077500000000001  0.9917699999999998  1.0000
  C   C99       1.0  0.49057999999999996  0.003040000000000001  0.74309  1.0000
  C   C100      1.0  0.5224  0.0454  0.7508599999999997  1.0000
  H   H43       1.0  0.5041899999999999  0.11979000000000001  0.99051  1.0000
  H   H44       1.0  0.44853999999999994  0.046  0.9763499999999999  1.0000
  H   H45       1.0  0.3596199999999999  0.90458  0.8514899999999997  1.0000
  H   H46       1.0  0.37394999999999995  0.8396200000000003  0.15261  1.0000
  H   H47       1.0  0.46869  0.9220800000000001  0.98673  1.0000
  H   H48       1.0  0.48701  0.97061  0.67375  1.0000
  H   H49       1.0  0.54253  0.04513999999999999  0.6866999999999999  1.0000
  C   C101      1.0  0.03005  0.34294  0.4375599999999999  1.0000
  C   C102      1.0  0.0020899999999999994  0.38487  0.41278  1.0000
  C   C103      1.0  0.9787599999999999  0.41125  0.49118  1.0000
  C   C104      1.0  0.9828  0.39623  0.59634  1.0000
  C   C105      1.0  0.9602099999999999  0.42835  0.6813799999999999  1.0000
  O   O40       1.0  0.96286  0.41307  0.7715999999999997  1.0000
  C   C106      1.0  0.9353  0.48049000000000003  0.65914  1.0000
  C   C107      1.0  0.8991799999999999  0.4647  0.6233799999999999  1.0000
  N   N8        1.0  0.8777699999999998  0.51254  0.5920099999999999  1.0000
  C   C108      1.0  0.89019  0.57647  0.59549  1.0000
  C   C109      1.0  0.92577  0.59521  0.6338499999999999  1.0000
  C   C110      1.0  0.94846  0.5461799999999999  0.6652999999999998  1.0000
  C   C111      1.0  0.009650000000000002  0.35182  0.62003  1.0000
  C   C112      1.0  0.03304  0.32556000000000007  0.54149  1.0000
  H   H50       1.0  0.9987  0.39853  0.33304  1.0000
  H   H51       1.0  0.9580499999999998  0.44433  0.46907  1.0000
  H   H52       1.0  0.8883799999999998  0.41428000000000004  0.61828  1.0000
  H   H53       1.0  0.8722599999999998  0.6125700000000001  0.56799  1.0000
  H   H54       1.0  0.97646  0.55868  0.69284  1.0000
  H   H55       1.0  0.013259999999999827  0.33848  0.6997699999999999  1.0000
  H   H56       1.0  0.05402999999999999  0.29277  0.5626099999999999  1.0000
