data_image0
_chemical_formula_structural       EuOCO6COC2EuOCO6COC2EuOCO6COC2EuOCO6COC5OC4BrCBrC2BrCBrCH4C3OC4BrCBrC2BrCBrCH4C3OC4BrCBrC2BrCBrCH4C3OC4BrCBrC2BrCBrCH4C3OC4BrCBrC2BrCBrCH4C3OC4BrCBrC2BrCBrCH4C3OC4BrCBrC2BrCBrCH4C3OC4BrCBrC2BrCBrCH4
_chemical_formula_sum              "Eu4 O40 C112 Br32 H32"
_cell_length_a       40.7491
_cell_length_b       19.380600000000005
_cell_length_c       12.792899999999998
_cell_angle_alpha    90.64089999999999
_cell_angle_beta     90.683
_cell_angle_gamma    88.7966

_space_group_name_H-M_alt    "P 1"
_space_group_IT_number       1

loop_
  _space_group_symop_operation_xyz
  'x, y, z'

loop_
  _atom_site_type_symbol
  _atom_site_label
  _atom_site_symmetry_multiplicity
  _atom_site_fract_x
  _atom_site_fract_y
  _atom_site_fract_z
  _atom_site_occupancy
  Eu  Eu1       1.0  0.38802999999999993  0.73187  0.21178  1.0000
  O   O1        1.0  0.33821  0.82386  0.09428  1.0000
  C   C1        1.0  0.3222  0.68391  0.13772  1.0000
  O   O2        1.0  0.42057999999999995  0.76595  0.025150000000000002  1.0000
  O   O3        1.0  0.43299  0.79729  0.18995  1.0000
  O   O4        1.0  0.4346499999999999  0.63356  0.31451  1.0000
  O   O5        1.0  0.33817  0.66729  0.21472  1.0000
  O   O6        1.0  0.34158  0.6668  0.22421000000000002  1.0000
  O   O7        1.0  0.35842  0.82864  0.25784  1.0000
  C   C2        1.0  0.33381  0.8423299999999999  0.18437999999999996  1.0000
  O   O8        1.0  0.40135  0.71601  0.38296  1.0000
  C   C3        1.0  0.42547999999999997  0.66467  0.39255  1.0000
  C   C4        1.0  0.43622999999999995  0.80379  0.08278000000000002  1.0000
  Eu  Eu2       1.0  0.8816  0.7668999999999999  0.7278  1.0000
  O   O9        1.0  0.8212899999999999  0.85074  0.71814  1.0000
  C   C5        1.0  0.8446299999999999  0.62918  0.7311  1.0000
  O   O10       1.0  0.93966  0.8407899999999999  0.8484  1.0000
  O   O11       1.0  0.89201  0.87824  0.77396  1.0000
  O   O12       1.0  0.9448399999999999  0.69766  0.7773399999999999  1.0000
  O   O13       1.0  0.82722  0.66735  0.7839  1.0000
  O   O14       1.0  0.87161  0.65565  0.6816100000000002  1.0000
  O   O15       1.0  0.8516  0.80541  0.5877  1.0000
  C   C6        1.0  0.8251999999999999  0.84519  0.6241  1.0000
  O   O16       1.0  0.92837  0.75402  0.63339  1.0000
  C   C7        1.0  0.94665  0.70221  0.6826800000000001  1.0000
  C   C8        1.0  0.91732  0.8835300000000001  0.84726  1.0000
  Eu  Eu3       1.0  0.11378999999999999  0.24859999999999996  0.27381  1.0000
  O   O17       1.0  0.18189  0.17411  0.27071  1.0000
  C   C9        1.0  0.16509  0.35355  0.23456  1.0000
  O   O18       1.0  0.04705  0.2559  0.17194  1.0000
  O   O19       1.0  0.07896  0.16494  0.21973  1.0000
  O   O20       1.0  0.07327  0.37684  0.32674  1.0000
  O   O21       1.0  0.15867  0.32493  0.15176  1.0000
  O   O22       1.0  0.14955  0.33195  0.32424000000000003  1.0000
  O   O23       1.0  0.13872  0.16864  0.37802  1.0000
  C   C10       1.0  0.16528  0.13866  0.32670000000000005  1.0000
  O   O24       1.0  0.07936  0.27473  0.40774  1.0000
  C   C11       1.0  0.06367  0.33828  0.39383  1.0000
  C   C12       1.0  0.05034  0.19341  0.17701  1.0000
  Eu  Eu4       1.0  0.61764  0.26136  0.79353  1.0000
  O   O25       1.0  0.65574  0.13414  0.80025  1.0000
  C   C13       1.0  0.68297  0.32364  0.85933  1.0000
  O   O26       1.0  0.57335  0.16066  0.91148  1.0000
  O   O27       1.0  0.58366  0.17616  0.7404500000000002  1.0000
  O   O28       1.0  0.5545  0.32697  0.80256  1.0000
  O   O29       1.0  0.68662  0.26577  0.89433  1.0000
  O   O30       1.0  0.65153  0.34893  0.83831  1.0000
  O   O31       1.0  0.65523  0.21706  0.6785100000000001  1.0000
  C   C14       1.0  0.66557  0.15291  0.71584  1.0000
  O   O32       1.0  0.59223  0.33295  0.67668  1.0000
  C   C15       1.0  0.56271  0.35387  0.72158  1.0000
  C   C16       1.0  0.56967  0.14046  0.82167  1.0000
  C   C17       1.0  0.28798  0.66322  0.12254  1.0000
  C   C18       1.0  0.26945  0.6993  0.04719  1.0000
  C   C19       1.0  0.23718  0.68139  0.02409  1.0000
  O   O33       1.0  0.21948999999999996  0.71861  0.94852  1.0000
  C   C20       1.0  0.22335999999999998  0.62592  0.07571  1.0000
  C   C21       1.0  0.24153999999999998  0.589  0.15138  1.0000
  C   C22       1.0  0.22682  0.52704  0.19673  1.0000
  C   C23       1.0  0.23786999999999997  0.46082  0.16460999999999998  1.0000
  Br  Br1       1.0  0.27755  0.44976  0.08434  1.0000
  C   C24       1.0  0.21882  0.40291  0.18502999999999997  1.0000
  Br  Br2       1.0  0.23414  0.31235  0.14071  1.0000
  C   C25       1.0  0.18846  0.41101  0.23641  1.0000
  C   C26       1.0  0.17905  0.47630000000000006  0.27741  1.0000
  Br  Br3       1.0  0.13824  0.48854  0.35115  1.0000
  C   C27       1.0  0.19836  0.53413  0.25795  1.0000
  Br  Br4       1.0  0.18524  0.62402  0.31123  1.0000
  C   C28       1.0  0.2738  0.60855  0.17632  1.0000
  H   H1        1.0  0.2801  0.74187  0.00611  1.0000
  H   H2        1.0  0.19621999999999998  0.70224  0.93765  1.0000
  H   H3        1.0  0.19859999999999997  0.61071  0.05576  1.0000
  H   H4        1.0  0.28799  0.57982  0.23399  1.0000
  C   C29       1.0  0.8022599999999999  0.8806799999999999  0.55087  1.0000
  C   C30       1.0  0.8032399999999998  0.86637  0.443  1.0000
  C   C31       1.0  0.78123  0.89946  0.37403999999999993  1.0000
  O   O34       1.0  0.7826599999999999  0.8834799999999999  0.26745  1.0000
  C   C32       1.0  0.75806  0.94759  0.4129  1.0000
  C   C33       1.0  0.75706  0.96275  0.52005  1.0000
  C   C34       1.0  0.73276  0.01330000000000009  0.56138  1.0000
  C   C35       1.0  0.70075  0.99239  0.58349  1.0000
  Br  Br5       1.0  0.68808  0.89885  0.55284  1.0000
  C   C36       1.0  0.67834  0.03908  0.63037  1.0000
  Br  Br6       1.0  0.63449  0.00972  0.65998  1.0000
  C   C37       1.0  0.68788  0.10697999999999999  0.65536  1.0000
  C   C38       1.0  0.7197  0.12829  0.63043  1.0000
  Br  Br7       1.0  0.73385  0.21935999999999997  0.66859  1.0000
  C   C39       1.0  0.74205  0.08157  0.58314  1.0000
  Br  Br8       1.0  0.78574  0.11034  0.55001  1.0000
  C   C40       1.0  0.77906  0.9293000000000001  0.58869  1.0000
  H   H5        1.0  0.8208099999999999  0.8289499999999999  0.41211000000000003  1.0000
  H   H6        1.0  0.76541  0.9088699999999998  0.22402  1.0000
  H   H7        1.0  0.74079  0.9730699999999999  0.36024  1.0000
  H   H8        1.0  0.77806  0.94159  0.6715199999999999  1.0000
  C   C41       1.0  0.17206  0.06386  0.33516  1.0000
  C   C42       1.0  0.14713  0.01944  0.36545  1.0000
  C   C43       1.0  0.15224  0.9478400000000001  0.3627699999999999  1.0000
  O   O35       1.0  0.12681  0.90497  0.39158999999999994  1.0000
  C   C44       1.0  0.1826  0.92031  0.33026  1.0000
  C   C45       1.0  0.20818  0.96412  0.30429  1.0000
  C   C46       1.0  0.24062999999999998  0.93468  0.27417  1.0000
  C   C47       1.0  0.25289  0.94534  0.17323  1.0000
  Br  Br9       1.0  0.22656  0.99546  0.0714  1.0000
  C   C48       1.0  0.28381  0.91769  0.14499  1.0000
  Br  Br10      1.0  0.30083  0.94028  0.00942  1.0000
  C   C49       1.0  0.30209  0.87568  0.21589  1.0000
  C   C50       1.0  0.28907  0.86358  0.3163  1.0000
  Br  Br11      1.0  0.31003  0.79961  0.41237  1.0000
  C   C51       1.0  0.25911  0.8949000000000001  0.34614  1.0000
  Br  Br12      1.0  0.24373999999999998  0.8845699999999999  0.48754  1.0000
  C   C52       1.0  0.20277  0.03584  0.30707  1.0000
  H   H9        1.0  0.12332  0.03999  0.38839  1.0000
  H   H10       1.0  0.13277  0.8539899999999999  0.38645000000000007  1.0000
  H   H11       1.0  0.18652  0.86486  0.32633  1.0000
  H   H12       1.0  0.22241  0.06967  0.28589  1.0000
  C   C53       1.0  0.8375500000000001  0.5549600000000001  0.71924  1.0000
  C   C54       1.0  0.86043  0.51019  0.67012  1.0000
  C   C55       1.0  0.85419  0.43983  0.65848  1.0000
  O   O36       1.0  0.87742  0.39686  0.60952  1.0000
  C   C56       1.0  0.82477  0.41372000000000003  0.69573  1.0000
  C   C57       1.0  0.80167  0.45776000000000006  0.7439  1.0000
  C   C58       1.0  0.77013  0.4299299999999999  0.77737  1.0000
  C   C59       1.0  0.76678  0.40462  0.8792399999999999  1.0000
  Br  Br13      1.0  0.80259  0.41253  0.97824  1.0000
  C   C60       1.0  0.73765  0.37239  0.90788  1.0000
  Br  Br14      1.0  0.73274  0.34082  0.049309999999999965  1.0000
  C   C61       1.0  0.7118499999999999  0.365  0.83421  1.0000
  C   C62       1.0  0.71473  0.39351  0.73352  1.0000
  Br  Br15      1.0  0.67995  0.3849  0.6306  1.0000
  C   C63       1.0  0.7439499999999999  0.42535  0.70513  1.0000
  Br  Br16      1.0  0.74877  0.46066  0.56568  1.0000
  C   C64       1.0  0.80812  0.52817  0.75612  1.0000
  H   H13       1.0  0.8833200000000001  0.52956  0.6410700000000001  1.0000
  H   H14       1.0  0.87113  0.34652  0.60725  1.0000
  H   H15       1.0  0.8196399999999999  0.35938  0.68619  1.0000
  H   H16       1.0  0.7900199999999998  0.56191  0.7929399999999999  1.0000
  C   C65       1.0  0.43980000000000014  0.64826  0.49624999999999997  1.0000
  C   C66       1.0  0.43115999999999993  0.68844  0.58436  1.0000
  C   C67       1.0  0.44466  0.67365  0.68282  1.0000
  O   O37       1.0  0.43579  0.71512  0.76837  1.0000
  C   C68       1.0  0.46685999999999994  0.61787  0.69387  1.0000
  C   C69       1.0  0.47562  0.57735  0.60675  1.0000
  C   C70       1.0  0.49862999999999996  0.51832  0.62022  1.0000
  C   C71       1.0  0.4864299999999999  0.45146  0.63101  1.0000
  Br  Br17      1.0  0.44019  0.43541  0.61105  1.0000
  C   C72       1.0  0.5078  0.39671  0.659  1.0000
  Br  Br18      1.0  0.49072  0.30514  0.67464  1.0000
  C   C73       1.0  0.54155  0.40859  0.67523  1.0000
  C   C74       1.0  0.55405  0.47472999999999993  0.65708  1.0000
  Br  Br19      1.0  0.60009  0.49205  0.6773  1.0000
  C   C75       1.0  0.53254  0.52955  0.62987  1.0000
  Br  Br20      1.0  0.54911  0.62083  0.60921  1.0000
  C   C76       1.0  0.46221  0.59264  0.50817  1.0000
  H   H17       1.0  0.41401  0.73163  0.57707  1.0000
  H   H18       1.0  0.44739  0.70155  0.83581  1.0000
  H   H19       1.0  0.47725  0.60582  0.77006  1.0000
  H   H20       1.0  0.46913999999999995  0.5609  0.44135  1.0000
  C   C77       1.0  0.9161899999999998  0.93974  0.92537  1.0000
  C   C78       1.0  0.8858299999999999  0.9602699999999998  0.9675100000000001  1.0000
  C   C79       1.0  0.88406  0.011230000000000073  0.04538999999999999  1.0000
  O   O38       1.0  0.8537  0.027830000000000018  0.08962  1.0000
  C   C80       1.0  0.9127199999999999  0.0442800000000001  0.07827  1.0000
  C   C81       1.0  0.94314  0.02540000000000009  0.03511  1.0000
  C   C82       1.0  0.97266  0.06358  0.0674  1.0000
  C   C83       1.0  0.9864199999999999  0.05402  0.16787  1.0000
  Br  Br21      1.0  0.97011  0.9827899999999999  0.25651  1.0000
  C   C84       1.0  0.011859999999999999  0.09649  0.20378  1.0000
  Br  Br22      1.0  0.028139999999999995  0.08711  0.34542  1.0000
  C   C85       1.0  0.02409  0.14796  0.13842  1.0000
  C   C86       1.0  0.01108  0.1558  0.03636  1.0000
  Br  Br23      1.0  0.029269999999999997  0.22204  0.94271  1.0000
  C   C87       1.0  0.9851799999999998  0.11422  0.0014300000000000421  1.0000
  Br  Br24      1.0  0.96581  0.12872  0.86472  1.0000
  C   C88       1.0  0.94493  0.9721299999999999  0.9599199999999999  1.0000
  H   H21       1.0  0.86353  0.93527  0.94204  1.0000
  H   H22       1.0  0.85504  0.06347999999999998  0.14799  1.0000
  H   H23       1.0  0.9113699999999999  0.08491  0.13699  1.0000
  H   H24       1.0  0.9684299999999999  0.95718  0.92684  1.0000
  C   C89       1.0  0.55072  0.07804  0.79673  1.0000
  C   C90       1.0  0.54996  0.0534  0.69292  1.0000
  C   C91       1.0  0.53288  0.99421  0.66582  1.0000
  O   O39       1.0  0.5333  0.97073  0.56221  1.0000
  C   C92       1.0  0.5156  0.95974  0.74252  1.0000
  C   C93       1.0  0.51556  0.9838799999999999  0.84632  1.0000
  C   C94       1.0  0.49536  0.9477999999999999  0.92304  1.0000
  C   C95       1.0  0.51013  0.9032899999999999  0.99725  1.0000
  Br  Br25      1.0  0.55725  0.89945  0.013079999999999979  1.0000
  C   C96       1.0  0.49057  0.85872  0.05519  1.0000
  Br  Br26      1.0  0.51087  0.79534  0.15277  1.0000
  C   C97       1.0  0.45639  0.85786  0.03732  1.0000
  C   C98       1.0  0.44153  0.90547  0.96799  1.0000
  Br  Br27      1.0  0.39444  0.90854  0.9493199999999999  1.0000
  C   C99       1.0  0.46092  0.95067  0.91172  1.0000
  Br  Br28      1.0  0.44035  0.015059999999999999  0.81587  1.0000
  C   C100      1.0  0.53346  0.04271  0.87378  1.0000
  H   H25       1.0  0.56288  0.07974  0.63212  1.0000
  H   H26       1.0  0.52034  0.92726  0.55004  1.0000
  H   H27       1.0  0.50167  0.91471  0.72109  1.0000
  H   H28       1.0  0.53356  0.06115  0.9540299999999999  1.0000
  C   C101      1.0  0.03542  0.35801  0.4595  1.0000
  C   C102      1.0  0.01808  0.3068  0.51115  1.0000
  C   C103      1.0  0.99128  0.32444  0.57394  1.0000
  O   O40       1.0  0.97445  0.27218  0.62345  1.0000
  C   C104      1.0  0.98194  0.39402  0.58668  1.0000
  C   C105      1.0  0.99921  0.4456300000000001  0.53623  1.0000
  C   C106      1.0  0.99008  0.51867  0.55559  1.0000
  C   C107      1.0  0.007410000000000001  0.55702  0.6312800000000001  1.0000
  Br  Br29      1.0  0.04707  0.51896  0.69368  1.0000
  C   C108      1.0  0.99493  0.62157  0.66501  1.0000
  Br  Br30      1.0  0.01906  0.67421  0.76817  1.0000
  C   C109      1.0  0.9648699999999999  0.64766  0.62382  1.0000
  C   C110      1.0  0.94979  0.61279  0.53872  1.0000
  Br  Br31      1.0  0.91108  0.6503199999999999  0.46998  1.0000
  C   C111      1.0  0.96222  0.54787  0.50581  1.0000
  Br  Br32      1.0  0.9403600000000001  0.49685  0.39573  1.0000
  C   C112      1.0  0.02563  0.42754999999999993  0.47161000000000003  1.0000
  H   H29       1.0  0.025130000000000003  0.25286  0.5021  1.0000
  H   H30       1.0  0.95539  0.28987  0.6670800000000001  1.0000
  H   H31       1.0  0.96149  0.4081  0.63656  1.0000
  H   H32       1.0  0.03891  0.46774  0.43312  1.0000
