data_image0
_chemical_formula_structural       EuOCO6COC2EuOCO6COC2EuOCO6COC2EuOCO6COC5OC4SC3OC2OCH10C3OC4SC3OC2OCH10C3OC4SC3OC2OCH10C3OC4SC3OC2OCH10C3OC4SC3OC2OCH10C3OC4SC3OC2OCH10C3OC4SC3OC2OCH10C3OC4SC3OC2OCH10
_chemical_formula_sum              "Eu4 O56 C120 S8 H80"
_cell_length_a       35.3083
_cell_length_b       21.822699999999998
_cell_length_c       10.6191
_cell_angle_alpha    90.47089999999999
_cell_angle_beta     93.6868
_cell_angle_gamma    85.4275

_symmetry_space_group_name_H-M    'P 1'
_symmetry_Int_Tables_number       1

loop_
  _symmetry_equiv_pos_as_xyz
  'x,y,z'

loop_
  _atom_site_type_symbol
  _atom_site_label
  _atom_site_symmetry_multiplicity
  _atom_site_fract_x
  _atom_site_fract_y
  _atom_site_fract_z
  _atom_site_occupancy
  Eu  Eu1       1.0  0.38562000000000013  0.7387899999999998  0.20195  1.0000
  O   O1        1.0  0.34251  0.8553699999999997  0.13293  1.0000
  C   C1        1.0  0.31658  0.65578  0.18093  1.0000
  O   O2        1.0  0.46847  0.7603  0.15282  1.0000
  O   O3        1.0  0.41777  0.8249299999999999  0.19700999999999996  1.0000
  O   O4        1.0  0.43473000000000017  0.6254299999999999  0.28147  1.0000
  O   O5        1.0  0.2975  0.7008399999999999  0.21615  1.0000
  O   O6        1.0  0.35577  0.64985  0.20728  1.0000
  O   O7        1.0  0.33921000000000007  0.79509  0.3027099999999999  1.0000
  C   C2        1.0  0.32975  0.84917  0.23543999999999998  1.0000
  O   O8        1.0  0.41941  0.71353  0.3856299999999999  1.0000
  C   C3        1.0  0.4421900000000002  0.65944  0.36956  1.0000
  C   C4        1.0  0.45462  0.8130699999999998  0.15952999999999998  1.0000
  Eu  Eu2       1.0  0.8813799999999999  0.73807  0.79706  1.0000
  O   O9        1.0  0.81706  0.83513  0.77934  1.0000
  C   C5        1.0  0.81303  0.66037  0.81738  1.0000
  O   O10       1.0  0.9085900000000001  0.85769  0.90005  1.0000
  O   O11       1.0  0.9407200000000001  0.7685399999999999  0.8489  1.0000
  O   O12       1.0  0.9535300000000001  0.65449  0.7770099999999999  1.0000
  O   O13       1.0  0.83877  0.62891  0.87297  1.0000
  O   O14       1.0  0.8214300000000002  0.71036  0.7471199999999999  1.0000
  O   O15       1.0  0.8694400000000001  0.82178  0.6690099999999999  1.0000
  C   C6        1.0  0.83843  0.8579099999999998  0.71078  1.0000
  O   O16       1.0  0.9033600000000002  0.6766  0.63747  1.0000
  C   C7        1.0  0.93775  0.6441999999999999  0.6747099999999999  1.0000
  C   C8        1.0  0.9393300000000001  0.8286499999999999  0.89342  1.0000
  Eu  Eu3       1.0  0.10888000000000005  0.26109  0.13076  1.0000
  O   O17       1.0  0.18081  0.17174  0.15496  1.0000
  C   C9        1.0  0.14136  0.38576999999999995  0.12444999999999998  1.0000
  O   O18       1.0  0.02751  0.22775  0.03245  1.0000
  O   O19       1.0  0.08542  0.17547999999999997  0.03964  1.0000
  O   O20       1.0  0.05302  0.37235  0.17049  1.0000
  O   O21       1.0  0.12607  0.3791  0.019609999999999995  1.0000
  O   O22       1.0  0.1349  0.34514  0.21959  1.0000
  O   O23       1.0  0.13575  0.19948  0.2898299999999999  1.0000
  C   C10       1.0  0.16436  0.15856  0.24725  1.0000
  O   O24       1.0  0.05736000000000001  0.27631  0.24970999999999996  1.0000
  C   C11       1.0  0.040890000000000024  0.33625  0.24186  1.0000
  C   C12       1.0  0.0459  0.17823  0.028849999999999997  1.0000
  Eu  Eu4       1.0  0.6146200000000002  0.25600999999999996  0.92128  1.0000
  O   O25       1.0  0.6913000000000002  0.18817999999999996  0.94313  1.0000
  C   C13       1.0  0.66005  0.36968  0.95324  1.0000
  O   O26       1.0  0.59244  0.12448  0.99716  1.0000
  O   O27       1.0  0.55919  0.20934  0.91538  1.0000
  O   O28       1.0  0.55838  0.36232  0.89418  1.0000
  O   O29       1.0  0.63131  0.38481  0.006820000000000048  1.0000
  O   O30       1.0  0.6679700000000002  0.30842  0.92044  1.0000
  O   O31       1.0  0.64197  0.18002999999999997  0.7999  1.0000
  C   C14       1.0  0.6790400000000001  0.16378  0.84713  1.0000
  O   O32       1.0  0.59109  0.30985  0.74733  1.0000
  C   C15       1.0  0.5678000000000001  0.35985  0.78585  1.0000
  C   C16       1.0  0.5616  0.14974  0.9620399999999999  1.0000
  C   C17       1.0  0.29873000000000005  0.60685  0.10879999999999998  1.0000
  C   C18       1.0  0.31570000000000004  0.5837  0.00067  1.0000
  C   C19       1.0  0.29964  0.53667  0.92852  1.0000
  O   O33       1.0  0.31520999999999993  0.51094  0.8190299999999999  1.0000
  C   C20       1.0  0.34864000000000006  0.53488  0.7766499999999998  1.0000
  C   C21       1.0  0.26680000000000004  0.51283  0.96811  1.0000
  C   C22       1.0  0.25013000000000013  0.53404  0.0788  1.0000
  C   C23       1.0  0.21790000000000007  0.50268  0.12424  1.0000
  S   S1        1.0  0.18468000000000004  0.4717999999999999  0.02217  1.0000
  C   C24       1.0  0.16828000000000004  0.43365  0.14587  1.0000
  C   C25       1.0  0.18673  0.44658  0.26061  1.0000
  C   C26       1.0  0.21527999999999997  0.48502  0.24798  1.0000
  O   O34       1.0  0.24069000000000002  0.49933  0.34908  1.0000
  C   C27       1.0  0.24046  0.45977999999999997  0.4563499999999999  1.0000
  C   C28       1.0  0.19961  0.44638  0.48363999999999996  1.0000
  O   O35       1.0  0.18053000000000002  0.41926  0.37596  1.0000
  C   C29       1.0  0.2659700000000001  0.58207  0.14788  1.0000
  H   H1        1.0  0.3411100000000001  0.6033  0.97331  1.0000
  H   H2        1.0  0.37262  0.5284  0.8497  1.0000
  H   H3        1.0  0.35708  0.5093  0.69086  1.0000
  H   H4        1.0  0.34284  0.58424  0.75156  1.0000
  H   H5        1.0  0.25505  0.47587  0.9136  1.0000
  H   H6        1.0  0.25421  0.48202  0.53985  1.0000
  H   H7        1.0  0.25733  0.41577  0.43808999999999987  1.0000
  H   H8        1.0  0.1834  0.48991  0.5096  1.0000
  H   H9        1.0  0.20049  0.41440999999999995  0.56471  1.0000
  H   H10       1.0  0.2534  0.59932  0.23293  1.0000
  C   C30       1.0  0.8324800000000001  0.92393  0.67954  1.0000
  C   C31       1.0  0.8628  0.9561999999999999  0.64275  1.0000
  C   C32       1.0  0.8581400000000002  0.02071  0.6262  1.0000
  O   O36       1.0  0.8874100000000003  0.05673999999999999  0.5931  1.0000
  C   C33       1.0  0.92435  0.02699  0.57859  1.0000
  C   C34       1.0  0.82266  0.0516  0.6451599999999998  1.0000
  C   C35       1.0  0.7919900000000001  0.019600000000000062  0.6787  1.0000
  C   C36       1.0  0.75536  0.05313999999999999  0.70379  1.0000
  S   S2        1.0  0.75249  0.11558999999999998  0.8028599999999998  1.0000
  C   C37       1.0  0.70374  0.1182  0.78223  1.0000
  C   C38       1.0  0.69086  0.07343  0.70144  1.0000
  C   C39       1.0  0.72027  0.03549000000000002  0.6593  1.0000
  O   O37       1.0  0.71445  0.9856099999999999  0.57814  1.0000
  C   C40       1.0  0.67631  0.9668499999999999  0.57337  1.0000
  C   C41       1.0  0.6467  0.022799999999999928  0.56633  1.0000
  O   O38       1.0  0.6525  0.06394999999999995  0.67091  1.0000
  C   C42       1.0  0.79707  0.9559199999999999  0.69614  1.0000
  H   H11       1.0  0.8900199999999999  0.93107  0.6314499999999998  1.0000
  H   H12       1.0  0.9233100000000001  0.99245  0.50125  1.0000
  H   H13       1.0  0.94363  0.06196999999999998  0.55286  1.0000
  H   H14       1.0  0.93604  0.00529  0.66871  1.0000
  H   H15       1.0  0.8190400000000002  0.10103999999999999  0.63337  1.0000
  H   H16       1.0  0.67257  0.93955  0.65899  1.0000
  H   H17       1.0  0.6718200000000001  0.93696  0.48949  1.0000
  H   H18       1.0  0.6176  0.006879999999999997  0.56674  1.0000
  H   H19       1.0  0.64886  0.04784999999999995  0.47662999999999994  1.0000
  H   H20       1.0  0.7737100000000001  0.9315799999999999  0.7267299999999999  1.0000
  C   C43       1.0  0.1737  0.09876  0.31102  1.0000
  C   C44       1.0  0.14616  0.07260999999999998  0.37865999999999994  1.0000
  C   C45       1.0  0.15371  0.013670000000000071  0.4332  1.0000
  O   O39       1.0  0.12698  0.98343  0.4980199999999999  1.0000
  C   C46       1.0  0.08909000000000004  0.011479999999999935  0.4997099999999999  1.0000
  C   C47       1.0  0.18951000000000004  0.9824299999999998  0.42185999999999996  1.0000
  C   C48       1.0  0.21750000000000005  0.00827  0.35623999999999995  1.0000
  C   C49       1.0  0.25446  0.97308  0.34033  1.0000
  S   S3        1.0  0.258  0.8956099999999999  0.30526  1.0000
  C   C50       1.0  0.30561  0.89959  0.28709  1.0000
  C   C51       1.0  0.31797  0.95714  0.31046999999999997  1.0000
  C   C52       1.0  0.28881  0.9990399999999999  0.33954999999999996  1.0000
  O   O40       1.0  0.29457  0.06084  0.36714  1.0000
  C   C53       1.0  0.32985000000000003  0.0797  0.32664999999999994  1.0000
  C   C54       1.0  0.3628400000000001  0.03076  0.35935  1.0000
  O   O41       1.0  0.35547  0.97265  0.30203  1.0000
  C   C55       1.0  0.20921  0.06618  0.29957  1.0000
  H   H21       1.0  0.11872000000000002  0.09779999999999997  0.38515999999999995  1.0000
  H   H22       1.0  0.07611  0.01760000000000006  0.40200999999999987  1.0000
  H   H23       1.0  0.07167000000000001  0.98096  0.5507199999999999  1.0000
  H   H24       1.0  0.08890000000000002  0.05615999999999998  0.5506  1.0000
  H   H25       1.0  0.19538000000000003  0.93739  0.46426  1.0000
  H   H26       1.0  0.33589  0.12400999999999998  0.37279  1.0000
  H   H27       1.0  0.3272  0.08692999999999998  0.22282  1.0000
  H   H28       1.0  0.3664  0.02522  0.46355  1.0000
  H   H29       1.0  0.38975  0.04585999999999999  0.32604999999999995  1.0000
  H   H30       1.0  0.23009  0.08549999999999999  0.24447999999999998  1.0000
  C   C56       1.0  0.77304  0.6462  0.82423  1.0000
  C   C57       1.0  0.7437300000000001  0.69316  0.80433  1.0000
  C   C58       1.0  0.7053400000000001  0.6809799999999999  0.81234  1.0000
  O   O42       1.0  0.6745  0.72624  0.79834  1.0000
  C   C59       1.0  0.6824900000000002  0.78926  0.79145  1.0000
  C   C60       1.0  0.69682  0.6206  0.83444  1.0000
  C   C61       1.0  0.72569  0.57263  0.85207  1.0000
  C   C62       1.0  0.7154800000000002  0.5088799999999999  0.87272  1.0000
  S   S4        1.0  0.67487  0.49350999999999995  0.9443499999999999  1.0000
  C   C63       1.0  0.68555  0.4163899999999999  0.9203  1.0000
  C   C64       1.0  0.7189500000000002  0.40368  0.86133  1.0000
  C   C65       1.0  0.7355700000000002  0.4560399999999999  0.8317699999999999  1.0000
  O   O43       1.0  0.76838  0.45449  0.7631499999999999  1.0000
  C   C66       1.0  0.7784500000000002  0.39608  0.70557  1.0000
  C   C67       1.0  0.7725599999999999  0.34246  0.7936199999999999  1.0000
  O   O44       1.0  0.73385  0.34466  0.8280599999999999  1.0000
  C   C68       1.0  0.76389  0.58637  0.85062  1.0000
  H   H31       1.0  0.75121  0.7390599999999999  0.7846499999999997  1.0000
  H   H32       1.0  0.6975  0.79779  0.70529  1.0000
  H   H33       1.0  0.65519  0.8183399999999997  0.7857599999999999  1.0000
  H   H34       1.0  0.6994000000000001  0.80286  0.8776  1.0000
  H   H35       1.0  0.6672200000000001  0.61136  0.83711  1.0000
  H   H36       1.0  0.80873  0.3941  0.6822  1.0000
  H   H37       1.0  0.7605800000000001  0.39143  0.61646  1.0000
  H   H38       1.0  0.79175  0.34507  0.88032  1.0000
  H   H39       1.0  0.7797899999999999  0.29802  0.74579  1.0000
  H   H40       1.0  0.7865900000000001  0.55072  0.8697499999999999  1.0000
  C   C69       1.0  0.47598000000000007  0.6448199999999998  0.45547999999999994  1.0000
  C   C70       1.0  0.4959500000000001  0.6926999999999999  0.5089799999999999  1.0000
  C   C71       1.0  0.52906  0.67977  0.58889  1.0000
  O   O45       1.0  0.55144  0.7252999999999998  0.64212  1.0000
  C   C72       1.0  0.54512  0.7862099999999999  0.5928999999999999  1.0000
  C   C73       1.0  0.5408  0.6184499999999999  0.61753  1.0000
  C   C74       1.0  0.52125  0.57018  0.56371  1.0000
  C   C75       1.0  0.53405  0.50616  0.59729  1.0000
  S   S5        1.0  0.54278  0.48329  0.75146  1.0000
  C   C76       1.0  0.55555  0.41045  0.6991  1.0000
  C   C77       1.0  0.5539400000000002  0.40516  0.56967  1.0000
  C   C78       1.0  0.54037  0.45909  0.5114199999999999  1.0000
  O   O46       1.0  0.53555  0.46461  0.37965  1.0000
  C   C79       1.0  0.53558  0.40654  0.31464  1.0000
  C   C80       1.0  0.56748  0.3605999999999999  0.3708  1.0000
  O   O47       1.0  0.56353  0.35106  0.50275  1.0000
  C   C81       1.0  0.48906  0.58355  0.48154  1.0000
  H   H41       1.0  0.48582  0.7395599999999999  0.48569  1.0000
  H   H42       1.0  0.51649  0.8069199999999999  0.61446  1.0000
  H   H43       1.0  0.5666300000000001  0.81495  0.6388299999999999  1.0000
  H   H44       1.0  0.5485400000000002  0.78613  0.4896  1.0000
  H   H45       1.0  0.5660100000000002  0.60839  0.67976  1.0000
  H   H46       1.0  0.5397700000000001  0.4138499999999999  0.21334999999999998  1.0000
  H   H47       1.0  0.50762  0.38704  0.32236999999999993  1.0000
  H   H48       1.0  0.59556  0.37854  0.35761  1.0000
  H   H49       1.0  0.5665700000000001  0.31587  0.32075999999999993  1.0000
  H   H50       1.0  0.47344  0.54646  0.4416399999999999  1.0000
  C   C82       1.0  0.9749100000000002  0.85659  0.93348  1.0000
  C   C83       1.0  0.008809999999999988  0.81926  0.9579499999999997  1.0000
  C   C84       1.0  0.04274999999999999  0.84542  0.9989099999999999  1.0000
  O   O48       1.0  0.07791  0.8112  0.025740000000000096  1.0000
  C   C85       1.0  0.07995  0.74623  0.006869999999999932  1.0000
  C   C86       1.0  0.04211  0.9091799999999999  0.014420000000000098  1.0000
  C   C87       1.0  0.008690000000000002  0.9475399999999999  0.9879099999999997  1.0000
  C   C88       1.0  0.00974  0.01539  0.0002  1.0000
  S   S6        1.0  0.05113  0.05135  0.9894099999999999  1.0000
  C   C89       1.0  0.02671  0.12085  0.015569999999999999  1.0000
  C   C90       1.0  0.98875  0.11603999999999999  0.03315  1.0000
  C   C91       1.0  0.9788500000000001  0.05644999999999999  0.022409999999999996  1.0000
  O   O49       1.0  0.94208  0.04052999999999999  0.04377000000000009  1.0000
  C   C92       1.0  0.9139000000000002  0.0917  0.03724  1.0000
  C   C93       1.0  0.9284900000000001  0.14667  0.11203999999999999  1.0000
  O   O50       1.0  0.9627600000000003  0.16525  0.06312  1.0000
  C   C94       1.0  0.9752  0.9205999999999998  0.9468199999999999  1.0000
  H   H51       1.0  0.008320000000000107  0.77008  0.9459099999999999  1.0000
  H   H52       1.0  0.07251  0.73507  0.90646  1.0000
  H   H53       1.0  0.10962000000000004  0.7273  0.030580000000000048  1.0000
  H   H54       1.0  0.061089999999999985  0.7245  0.07027000000000005  1.0000
  H   H55       1.0  0.06822000000000002  0.9285799999999998  0.04757  1.0000
  H   H56       1.0  0.88746  0.07788999999999999  0.0762  1.0000
  H   H57       1.0  0.90725  0.10509999999999999  0.9369  1.0000
  H   H58       1.0  0.93438  0.13318  0.21257  1.0000
  H   H59       1.0  0.90651  0.18602  0.10736999999999998  1.0000
  H   H60       1.0  0.94944  0.9489599999999999  0.92109  1.0000
  C   C95       1.0  0.52612  0.11819  0.96751  1.0000
  C   C96       1.0  0.49111  0.15025  0.9303999999999999  1.0000
  C   C97       1.0  0.45669  0.12183999999999999  0.93289  1.0000
  O   O51       1.0  0.42059  0.15156  0.89831  1.0000
  C   C98       1.0  0.41869  0.21362999999999996  0.8552599999999999  1.0000
  C   C99       1.0  0.4579500000000001  0.060819999999999985  0.9722199999999998  1.0000
  C   C100      1.0  0.49255  0.028039999999999992  0.010860000000000092  1.0000
  C   C101      1.0  0.49235000000000007  0.96374  0.053419999999999995  1.0000
  S   S7        1.0  0.45518  0.93887  0.13067  1.0000
  C   C102      1.0  0.47550000000000003  0.8651  0.1234  1.0000
  C   C103      1.0  0.50959  0.86061  0.06573  1.0000
  C   C104      1.0  0.51947  0.91689  0.02755  1.0000
  O   O52       1.0  0.55102  0.92329  0.95616  1.0000
  C   C105      1.0  0.57766  0.8700199999999999  0.9576299999999999  1.0000
  C   C106      1.0  0.55688  0.81071  0.94284  1.0000
  O   O53       1.0  0.5311300000000002  0.8055099999999998  0.04079  1.0000
  C   C107      1.0  0.52663  0.05716  0.008999999999999897  1.0000
  H   H61       1.0  0.4909  0.19738999999999998  0.9001499999999999  1.0000
  H   H62       1.0  0.43413  0.21654  0.76783  1.0000
  H   H63       1.0  0.38847  0.22987  0.83299  1.0000
  H   H64       1.0  0.43036  0.24409  0.9299899999999998  1.0000
  H   H65       1.0  0.4315000000000001  0.03873  0.97102  1.0000
  H   H66       1.0  0.59541  0.8686  0.048069999999999995  1.0000
  H   H67       1.0  0.59671  0.8734799999999999  0.87924  1.0000
  H   H68       1.0  0.57786  0.7699599999999999  0.94502  1.0000
  H   H69       1.0  0.54037  0.81157  0.85032  1.0000
  H   H70       1.0  0.55334  0.032739999999999984  0.04132000000000002  1.0000
  C   C108      1.0  0.009560000000000004  0.3560499999999999  0.32224  1.0000
  C   C109      1.0  0.9877100000000001  0.31235  0.37257999999999997  1.0000
  C   C110      1.0  0.9591700000000001  0.33041  0.45569999999999994  1.0000
  O   O54       1.0  0.9365700000000001  0.28901  0.51181  1.0000
  C   C111      1.0  0.9441300000000001  0.22479  0.48847  1.0000
  C   C112      1.0  0.9532  0.39265999999999995  0.4876599999999999  1.0000
  C   C113      1.0  0.97533  0.43677  0.43989  1.0000
  C   C114      1.0  0.9720200000000001  0.50084  0.48778999999999995  1.0000
  S   S8        1.0  0.9299499999999999  0.53684  0.5345199999999999  1.0000
  C   C115      1.0  0.9547500000000001  0.59624  0.59393  1.0000
  C   C116      1.0  0.9931000000000001  0.5888999999999999  0.57568  1.0000
  C   C117      1.0  0.00304  0.53453  0.51658  1.0000
  O   O55       1.0  0.04103000000000002  0.51469  0.49696  1.0000
  C   C118      1.0  0.06871000000000002  0.54842  0.5668  1.0000
  C   C119      1.0  0.05643000000000001  0.61771  0.56832  1.0000
  O   O56       1.0  0.01996  0.6293  0.6201699999999999  1.0000
  C   C120      1.0  0.002729999999999994  0.41817  0.35441999999999996  1.0000
  H   H71       1.0  0.99321  0.26469  0.34622  1.0000
  H   H72       1.0  0.9737  0.20911  0.52276  1.0000
  H   H73       1.0  0.9243  0.19908  0.54073  1.0000
  H   H74       1.0  0.93921  0.21447  0.38642999999999994  1.0000
  H   H75       1.0  0.9321000000000004  0.40601999999999994  0.5543999999999999  1.0000
  H   H76       1.0  0.09647000000000001  0.5404699999999999  0.5233  1.0000
  H   H77       1.0  0.07228  0.53111  0.66532  1.0000
  H   H78       1.0  0.05491  0.63577  0.47041  1.0000
  H   H79       1.0  0.07785  0.64228  0.6257  1.0000
  H   H80       1.0  0.019620000000000002  0.4517799999999999  0.31554  1.0000
