data_image0
_chemical_formula_structural       GdOCO6COC2GdOCO6COC2GdOCO6COC2GdOCO6COC5BrC13H9C3BrC13H9C3BrC13H9C3BrC13H9C3BrC13H9C3BrC13H9C3BrC13H9C3BrC13H9
_chemical_formula_sum              "Gd4 O32 C144 Br8 H72"
_cell_length_a       27.7321
_cell_length_b       16.9508
_cell_length_c       10.9186
_cell_angle_alpha    90.6264
_cell_angle_beta     88.6077
_cell_angle_gamma    93.1368

_symmetry_space_group_name_H-M    'P 1'
_symmetry_Int_Tables_number       1

loop_
  _symmetry_equiv_pos_as_xyz
  'x,y,z'

loop_
  _atom_site_type_symbol
  _atom_site_label
  _atom_site_symmetry_multiplicity
  _atom_site_fract_x
  _atom_site_fract_y
  _atom_site_fract_z
  _atom_site_occupancy
  Gd  Gd1       1.0  0.41441999999999996  0.74845  0.18079  1.0000
  O   O1        1.0  0.45717  0.59683  0.28722  1.0000
  C   C1        1.0  0.47856  0.89426  0.08889  1.0000
  O   O2        1.0  0.33031  0.62316  0.32475  1.0000
  O   O3        1.0  0.37793  0.62521  0.15354  1.0000
  O   O4        1.0  0.35593  0.91409  0.21722000000000002  1.0000
  O   O5        1.0  0.47796  0.96315  0.05938  1.0000
  O   O6        1.0  0.45241999999999993  0.87096  0.19475  1.0000
  O   O7        1.0  0.44452  0.71752  0.36646000000000006  1.0000
  C   C2        1.0  0.4547699999999999  0.63853  0.37819  1.0000
  O   O8        1.0  0.34953  0.7903199999999999  0.29135  1.0000
  C   C3        1.0  0.3498  0.87208  0.30642  1.0000
  C   C4        1.0  0.33352  0.6139  0.21419  1.0000
  Gd  Gd2       1.0  0.86734  0.75311  0.78039  1.0000
  O   O9        1.0  0.97631  0.64327  0.57762  1.0000
  C   C5        1.0  0.93838  0.8862299999999999  0.88081  1.0000
  O   O10       1.0  0.76205  0.6362699999999998  0.67419  1.0000
  O   O11       1.0  0.84096  0.63099  0.7147900000000001  1.0000
  O   O12       1.0  0.77741  0.8651299999999997  0.73588  1.0000
  O   O13       1.0  0.97013  0.87742  0.80359  1.0000
  O   O14       1.0  0.89021  0.87642  0.84954  1.0000
  O   O15       1.0  0.9354899999999999  0.74204  0.66163  1.0000
  C   C6        1.0  0.95509  0.66813  0.66779  1.0000
  O   O16       1.0  0.83569  0.81282  0.61767  1.0000
  C   C7        1.0  0.8082  0.87532  0.6553200000000001  1.0000
  C   C8        1.0  0.79231  0.61618  0.7449  1.0000
  Gd  Gd3       1.0  0.08089000000000003  0.28764  0.25798  1.0000
  O   O17       1.0  0.04717  0.44867  0.34831000000000006  1.0000
  C   C9        1.0  0.00177  0.16136  0.16897  1.0000
  O   O18       1.0  0.10178999999999999  0.47236  0.10634  1.0000
  O   O19       1.0  0.13718  0.3914  0.23752  1.0000
  O   O20       1.0  0.17783  0.07625999999999998  0.17082  1.0000
  O   O21       1.0  0.96051  0.15556  0.13292  1.0000
  O   O22       1.0  0.01276  0.20425  0.2754  1.0000
  O   O23       1.0  0.05802999999999999  0.3344999999999999  0.44522000000000006  1.0000
  C   C10       1.0  0.03456  0.40396  0.4308700000000001  1.0000
  O   O24       1.0  0.13665  0.20467  0.34674000000000005  1.0000
  C   C11       1.0  0.18693  0.12313  0.2565  1.0000
  C   C12       1.0  0.13316  0.42644  0.12333000000000001  1.0000
  Gd  Gd4       1.0  0.62051  0.2568  0.65709  1.0000
  O   O25       1.0  0.56818  0.46599  0.55935  1.0000
  C   C13       1.0  0.58606  0.14251  0.87521  1.0000
  O   O26       1.0  0.73799  0.35891999999999996  0.84217  1.0000
  O   O27       1.0  0.6872  0.3374  0.6882000000000001  1.0000
  O   O28       1.0  0.73512  0.10373999999999997  0.73805  1.0000
  O   O29       1.0  0.57111  0.16704  0.97327  1.0000
  O   O30       1.0  0.62961  0.17573  0.82319  1.0000
  O   O31       1.0  0.59792  0.34775  0.51887  1.0000
  C   C14       1.0  0.56082  0.39454  0.55983  1.0000
  O   O32       1.0  0.66467  0.16338999999999998  0.7506200000000001  1.0000
  C   C15       1.0  0.70312  0.13241  0.6818700000000001  1.0000
  C   C16       1.0  0.6965  0.36045  0.80839  1.0000
  C   C17       1.0  0.29021  0.5950699999999998  0.14276  1.0000
  C   C18       1.0  0.26808  0.65719  0.08686  1.0000
  C   C19       1.0  0.22788  0.6419  0.014459999999999917  1.0000
  Br  Br1       1.0  0.19903  0.72682  0.93517  1.0000
  C   C20       1.0  0.20959  0.56439  0.99717  1.0000
  C   C21       1.0  0.23162999999999997  0.5008399999999997  0.05084000000000001  1.0000
  C   C22       1.0  0.21356  0.41925  0.0185  1.0000
  C   C23       1.0  0.24486  0.36598  0.9638300000000002  1.0000
  C   C24       1.0  0.22596  0.29732  0.9048  1.0000
  C   C25       1.0  0.25639  0.23980999999999997  0.86011  1.0000
  C   C26       1.0  0.2371  0.17333999999999994  0.79792  1.0000
  C   C27       1.0  0.18751  0.16313999999999995  0.7806000000000001  1.0000
  C   C28       1.0  0.15666  0.2192  0.82637  1.0000
  C   C29       1.0  0.17549  0.28586  0.89014  1.0000
  C   C30       1.0  0.14458  0.33788  0.9477400000000001  1.0000
  C   C31       1.0  0.16349999999999998  0.39956  0.02117  1.0000
  C   C32       1.0  0.27234  0.51653  0.1239  1.0000
  H   H1        1.0  0.28243  0.71749  0.09853  1.0000
  H   H2        1.0  0.17908  0.55347  0.93802  1.0000
  H   H3        1.0  0.28358  0.37876  0.9649100000000002  1.0000
  H   H4        1.0  0.29467  0.24523999999999999  0.87657  1.0000
  H   H5        1.0  0.26041  0.1295  0.7627000000000002  1.0000
  H   H6        1.0  0.17298  0.11131  0.7324800000000001  1.0000
  H   H7        1.0  0.11816  0.20964  0.81395  1.0000
  H   H8        1.0  0.10582  0.3260299999999999  0.9459000000000001  1.0000
  H   H9        1.0  0.29017  0.46828  0.16459  1.0000
  C   C33       1.0  0.81749  0.9541099999999999  0.6008500000000001  1.0000
  C   C34       1.0  0.8651899999999999  0.9842699999999999  0.58147  1.0000
  C   C35       1.0  0.87441  0.05970999999999999  0.53277  1.0000
  Br  Br2       1.0  0.9394399999999999  0.10012  0.50598  1.0000
  C   C36       1.0  0.83609  0.10544  0.50243  1.0000
  C   C37       1.0  0.78811  0.07613  0.52053  1.0000
  C   C38       1.0  0.74767  0.12041  0.47402000000000005  1.0000
  C   C39       1.0  0.75001  0.14179  0.34965  1.0000
  C   C40       1.0  0.71071  0.1742  0.29456  1.0000
  C   C41       1.0  0.7135699999999999  0.19817  0.17185000000000003  1.0000
  C   C42       1.0  0.6736599999999999  0.22953  0.11826000000000002  1.0000
  C   C43       1.0  0.63066  0.23603  0.18607000000000004  1.0000
  C   C44       1.0  0.62714  0.21109  0.30717  1.0000
  C   C45       1.0  0.66724  0.18103999999999995  0.36247000000000007  1.0000
  C   C46       1.0  0.6647  0.15942  0.48531000000000013  1.0000
  C   C47       1.0  0.70548  0.13593  0.54561  1.0000
  C   C48       1.0  0.77911  0.00011000000000000042  0.5696800000000001  1.0000
  H   H10       1.0  0.89522  0.94957  0.6051100000000001  1.0000
  H   H11       1.0  0.84371  0.16327  0.46290000000000003  1.0000
  H   H12       1.0  0.78227  0.13159  0.29492  1.0000
  H   H13       1.0  0.74659  0.19312  0.11793000000000002  1.0000
  H   H14       1.0  0.67605  0.24846999999999997  0.02406  1.0000
  H   H15       1.0  0.59978  0.26022  0.14543  1.0000
  H   H16       1.0  0.5934  0.21646999999999997  0.35796000000000006  1.0000
  H   H17       1.0  0.63062  0.16110999999999995  0.5337  1.0000
  H   H18       1.0  0.74225  0.97614  0.58105  1.0000
  C   C49       1.0  0.24028999999999998  0.10788  0.2760600000000001  1.0000
  C   C50       1.0  0.27593  0.14343  0.19738000000000003  1.0000
  C   C51       1.0  0.3242399999999999  0.12519  0.20577  1.0000
  Br  Br3       1.0  0.37206  0.17476  0.09884000000000003  1.0000
  C   C52       1.0  0.33747  0.07005  0.29118  1.0000
  C   C53       1.0  0.30212  0.02918  0.3639200000000001  1.0000
  C   C54       1.0  0.31665  0.97363  0.4586500000000001  1.0000
  C   C55       1.0  0.30537  0.9921399999999999  0.58165  1.0000
  C   C56       1.0  0.32425  0.9502199999999998  0.67769  1.0000
  C   C57       1.0  0.31451  0.9707499999999999  0.80053  1.0000
  C   C58       1.0  0.33651  0.9324199999999998  0.89508  1.0000
  C   C59       1.0  0.36842  0.87343  0.86807  1.0000
  C   C60       1.0  0.37758  0.85139  0.7463400000000002  1.0000
  C   C61       1.0  0.35505  0.8886  0.65066  1.0000
  C   C62       1.0  0.36288  0.8652299999999998  0.52872  1.0000
  C   C63       1.0  0.34322  0.9057799999999998  0.43160000000000004  1.0000
  C   C64       1.0  0.25357  0.0481  0.35547  1.0000
  H   H19       1.0  0.26603  0.18516  0.12915  1.0000
  H   H20       1.0  0.37526999999999994  0.05847  0.29999  1.0000
  H   H21       1.0  0.28354  0.04184999999999999  0.60239  1.0000
  H   H22       1.0  0.29036  0.01667  0.82396  1.0000
  H   H23       1.0  0.32913  0.9491899999999999  0.9892700000000001  1.0000
  H   H24       1.0  0.3859899999999999  0.8447299999999998  0.9415700000000001  1.0000
  H   H25       1.0  0.40271  0.80627  0.72661  1.0000
  H   H26       1.0  0.3849  0.8155099999999997  0.50907  1.0000
  H   H27       1.0  0.22629  0.016599999999999948  0.41145  1.0000
  C   C65       1.0  0.77745  0.57478  0.8595900000000002  1.0000
  C   C66       1.0  0.8097  0.57112  0.95642  1.0000
  C   C67       1.0  0.79548  0.53168  0.06456  1.0000
  Br  Br4       1.0  0.83862  0.52837  0.19747  1.0000
  C   C68       1.0  0.74968  0.4935  0.07561  1.0000
  C   C69       1.0  0.71754  0.49482  0.9788800000000001  1.0000
  C   C70       1.0  0.67095  0.44765  0.9852500000000001  1.0000
  C   C71       1.0  0.63792  0.46226  0.08136  1.0000
  C   C72       1.0  0.59205  0.4233299999999999  0.08476  1.0000
  C   C73       1.0  0.559  0.43697  0.1813  1.0000
  C   C74       1.0  0.51254  0.40047  0.18018000000000003  1.0000
  C   C75       1.0  0.49860999999999994  0.35072  0.08296  1.0000
  C   C76       1.0  0.53114  0.33664  0.98653  1.0000
  C   C77       1.0  0.5781  0.37225  0.98709  1.0000
  C   C78       1.0  0.61132  0.35676  0.89254  1.0000
  C   C79       1.0  0.6587499999999998  0.38998  0.89414  1.0000
  C   C80       1.0  0.73109  0.53727  0.87237  1.0000
  H   H28       1.0  0.8456  0.5993799999999998  0.94869  1.0000
  H   H29       1.0  0.7396499999999999  0.46098  0.15807000000000002  1.0000
  H   H30       1.0  0.6477  0.5051499999999998  0.15216  1.0000
  H   H31       1.0  0.56882  0.4765  0.25641  1.0000
  H   H32       1.0  0.48701999999999995  0.4112499999999999  0.25406000000000006  1.0000
  H   H33       1.0  0.46248  0.32315  0.08220999999999991  1.0000
  H   H34       1.0  0.51965  0.29797  0.91178  1.0000
  H   H35       1.0  0.60025  0.31648  0.82102  1.0000
  H   H36       1.0  0.70596  0.53866  0.79801  1.0000
  C   C81       1.0  0.46046  0.60451  0.50089  1.0000
  C   C82       1.0  0.44822  0.64777  0.6065  1.0000
  C   C83       1.0  0.44609  0.61169  0.7211300000000002  1.0000
  Br  Br5       1.0  0.42025  0.6653899999999999  0.86031  1.0000
  C   C84       1.0  0.45797  0.53321  0.73195  1.0000
  C   C85       1.0  0.47181  0.48966999999999994  0.62823  1.0000
  C   C86       1.0  0.47282  0.40269  0.6358600000000001  1.0000
  C   C87       1.0  0.42922  0.3631  0.67288  1.0000
  C   C88       1.0  0.42346  0.28111999999999987  0.6664300000000001  1.0000
  C   C89       1.0  0.37936999999999993  0.24257  0.70062  1.0000
  C   C90       1.0  0.37377  0.16036  0.69336  1.0000
  C   C91       1.0  0.41124  0.11663  0.64618  1.0000
  C   C92       1.0  0.45465  0.15511999999999998  0.60822  1.0000
  C   C93       1.0  0.46173  0.23703999999999997  0.62163  1.0000
  C   C94       1.0  0.50608  0.27542  0.58916  1.0000
  C   C95       1.0  0.51272  0.35816999999999993  0.59683  1.0000
  C   C96       1.0  0.47289  0.52564  0.5129700000000001  1.0000
  H   H37       1.0  0.43767  0.70795  0.59923  1.0000
  H   H38       1.0  0.45387999999999995  0.5047  0.8201700000000001  1.0000
  H   H39       1.0  0.39876  0.3968399999999999  0.7021  1.0000
  H   H40       1.0  0.34948  0.27641  0.7317300000000001  1.0000
  H   H41       1.0  0.3403  0.1307  0.72288  1.0000
  H   H42       1.0  0.4066699999999999  0.05308  0.6379  1.0000
  H   H43       1.0  0.48239  0.12141000000000002  0.5667000000000001  1.0000
  H   H44       1.0  0.53528  0.24045  0.5559300000000001  1.0000
  H   H45       1.0  0.48051  0.49047999999999997  0.43229000000000006  1.0000
  C   C97       1.0  0.95022  0.90827  0.00758  1.0000
  C   C98       1.0  0.92029  0.8791  0.10383  1.0000
  C   C99       1.0  0.9318  0.89659  0.22512  1.0000
  Br  Br6       1.0  0.89302  0.8498899999999999  0.35423000000000004  1.0000
  C   C100      1.0  0.97177  0.9471699999999998  0.2514  1.0000
  C   C101      1.0  0.001040000000000005  0.9796300000000001  0.15567  1.0000
  C   C102      1.0  0.0402  0.04034  0.17981000000000003  1.0000
  C   C103      1.0  0.06966  0.0339  0.28275  1.0000
  C   C104      1.0  0.10526  0.09217  0.30284  1.0000
  C   C105      1.0  0.14543  0.0986  0.44176  1.0000
  C   C106      1.0  0.19584999999999997  0.17957999999999996  0.4530600000000001  1.0000
  C   C107      1.0  0.20794999999999997  0.25276  0.32108  1.0000
  C   C108      1.0  0.16702000000000003  0.24381999999999998  0.17639000000000002  1.0000
  C   C109      1.0  0.11533999999999998  0.16469  0.17272  1.0000
  C   C110      1.0  0.08076  0.15858  0.08527000000000001  1.0000
  C   C111      1.0  0.03882  0.11285  0.11576  1.0000
  C   C112      1.0  0.99063  0.95835  0.03382  1.0000
  H   H46       1.0  0.8889999999999999  0.84016  0.08496  1.0000
  H   H47       1.0  0.9790499999999999  0.96251  0.34587  1.0000
  H   H48       1.0  0.06535  0.98423  0.34414000000000006  1.0000
  H   H49       1.0  0.13972  0.0562  0.5145700000000001  1.0000
  H   H50       1.0  0.21859  0.18301  0.53202  1.0000
  H   H51       1.0  0.24024  0.29653  0.34115  1.0000
  H   H52       1.0  0.19238  0.25928  0.23890000000000003  1.0000
  H   H53       1.0  0.07921  0.20584  0.02056  1.0000
  H   H54       1.0  0.01325  0.98255  0.95944  1.0000
  C   C113      1.0  0.56308  0.07094  0.82057  1.0000
  C   C114      1.0  0.5547799999999999  0.06741  0.69472  1.0000
  C   C115      1.0  0.53395  0.99876  0.64163  1.0000
  Br  Br7       1.0  0.52659  0.9905399999999999  0.46797  1.0000
  C   C116      1.0  0.52106  0.93373  0.71458  1.0000
  C   C117      1.0  0.53226  0.9340999999999998  0.83965  1.0000
  C   C118      1.0  0.53249  0.8570599999999998  0.90285  1.0000
  C   C119      1.0  0.55869  0.7993199999999998  0.8409900000000002  1.0000
  C   C120      1.0  0.55626  0.72135  0.87904  1.0000
  C   C121      1.0  0.57723  0.6627599999999998  0.8066700000000001  1.0000
  C   C122      1.0  0.5692599999999998  0.58343  0.8373200000000001  1.0000
  C   C123      1.0  0.54099  0.56285  0.94045  1.0000
  C   C124      1.0  0.52351  0.62096  0.018260000000000002  1.0000
  C   C125      1.0  0.5304000000000001  0.70081  0.9874200000000001  1.0000
  C   C126      1.0  0.50901  0.7595199999999999  0.05825000000000001  1.0000
  C   C127      1.0  0.50721  0.83743  0.01524  1.0000
  C   C128      1.0  0.55338  0.003269999999999999  0.89215  1.0000
  H   H55       1.0  0.56402  0.11812  0.6383700000000001  1.0000
  H   H56       1.0  0.50582  0.88035  0.6716900000000001  1.0000
  H   H57       1.0  0.57904  0.81442  0.75766  1.0000
  H   H58       1.0  0.59776  0.67798  0.7237500000000001  1.0000
  H   H59       1.0  0.58353  0.53779  0.7791500000000001  1.0000
  H   H60       1.0  0.53092  0.50186  0.9576900000000003  1.0000
  H   H61       1.0  0.50187  0.60304  0.09723  1.0000
  H   H62       1.0  0.49247  0.74321  0.14537  1.0000
  H   H63       1.0  0.56468  0.0031399999999999206  0.98649  1.0000
  C   C129      1.0  0.9919  0.42013  0.5070300000000001  1.0000
  C   C130      1.0  0.9465099999999999  0.38803  0.47233000000000014  1.0000
  C   C131      1.0  0.90487  0.40681  0.53863  1.0000
  Br  Br8       1.0  0.84314  0.36328  0.49026  1.0000
  C   C132      1.0  0.9084  0.45749999999999996  0.64023  1.0000
  C   C133      1.0  0.95363  0.48962999999999995  0.67608  1.0000
  C   C134      1.0  0.95683  0.53976  0.7872800000000002  1.0000
  C   C135      1.0  0.95991  0.50178  0.9003200000000001  1.0000
  C   C136      1.0  0.9599  0.54514  0.010189999999999921  1.0000
  C   C137      1.0  0.96372  0.50749  0.12329000000000014  1.0000
  C   C138      1.0  0.9632199999999999  0.55175  0.23215000000000008  1.0000
  C   C139      1.0  0.95932  0.63342  0.2291000000000001  1.0000
  C   C140      1.0  0.9558  0.67137  0.11717000000000001  1.0000
  C   C141      1.0  0.95581  0.62774  0.00727000000000011  1.0000
  C   C142      1.0  0.95242  0.66566  0.89481  1.0000
  C   C143      1.0  0.95363  0.62308  0.7839  1.0000
  C   C144      1.0  0.99551  0.47055  0.6095600000000001  1.0000
  H   H64       1.0  0.94343  0.3496  0.39258  1.0000
  H   H65       1.0  0.87603  0.4713099999999999  0.69183  1.0000
  H   H66       1.0  0.96215  0.43811  0.90234  1.0000
  H   H67       1.0  0.9667299999999999  0.4441299999999999  0.12769000000000008  1.0000
  H   H68       1.0  0.96534  0.52283  0.31926  1.0000
  H   H69       1.0  0.95892  0.66739  0.31361  1.0000
  H   H70       1.0  0.95329  0.73465  0.11647000000000031  1.0000
  H   H71       1.0  0.95026  0.7290400000000001  0.8937000000000003  1.0000
  H   H72       1.0  0.030539999999999998  0.49521999999999994  0.63691  1.0000
