data_image0
_chemical_formula_structural       EuOCO6COC2EuOCO6COC2EuOCO6COC2EuOCO6COC3OC2IC13IH14COC2IC13IH14COC2IC13IH14COC2IC13IH14COC2IC13IH14COC2IC13IH14COC2IC13IH14COC2IC13IH14
_chemical_formula_sum              "Eu4 O40 C144 I16 H112"
_cell_length_a       45.3017
_cell_length_b       27.7166
_cell_length_c       14.7149
_cell_angle_alpha    90.23970000000001
_cell_angle_beta     91.9952
_cell_angle_gamma    89.90759999999999

_space_group_name_H-M_alt    "P 1"
_space_group_IT_number       1

loop_
  _space_group_symop_operation_xyz
  'x, y, z'

loop_
  _atom_site_type_symbol
  _atom_site_label
  _atom_site_symmetry_multiplicity
  _atom_site_fract_x
  _atom_site_fract_y
  _atom_site_fract_z
  _atom_site_occupancy
  Eu  Eu1       1.0  0.38204  0.7618  0.23411999999999997  1.0000
  O   O1        1.0  0.33489  0.83798  0.24165999999999996  1.0000
  C   C1        1.0  0.35642000000000007  0.6626  0.18255999999999997  1.0000
  O   O2        1.0  0.41318000000000005  0.84262  0.13251  1.0000
  O   O3        1.0  0.41907000000000005  0.81353  0.2748599999999999  1.0000
  O   O4        1.0  0.43992  0.71065  0.23264999999999994  1.0000
  O   O5        1.0  0.38236  0.65687  0.16557  1.0000
  O   O6        1.0  0.3452700000000001  0.7089099999999999  0.19502999999999995  1.0000
  O   O7        1.0  0.35429  0.78883  0.3496599999999999  1.0000
  C   C2        1.0  0.3333  0.82197  0.31833999999999996  1.0000
  O   O8        1.0  0.40293  0.70672  0.33138  1.0000
  C   C3        1.0  0.42993  0.69136  0.29939  1.0000
  C   C4        1.0  0.42948  0.83706  0.19927  1.0000
  Eu  Eu2       1.0  0.90317  0.75161  0.7841999999999998  1.0000
  O   O9        1.0  0.85762  0.8292  0.8383  1.0000
  C   C5        1.0  0.8612100000000001  0.67211  0.8325199999999999  1.0000
  O   O10       1.0  0.98321  0.83499  0.7799  1.0000
  O   O11       1.0  0.9488800000000002  0.77822  0.74609  1.0000
  O   O12       1.0  0.9457500000000002  0.6792099999999999  0.6956799999999997  1.0000
  O   O13       1.0  0.8857600000000001  0.65544  0.84913  1.0000
  O   O14       1.0  0.85807  0.7216  0.8185699999999998  1.0000
  O   O15       1.0  0.8821200000000002  0.8156  0.70926  1.0000
  C   C6        1.0  0.86811  0.84595  0.7699899999999998  1.0000
  O   O16       1.0  0.8999  0.70512  0.6564  1.0000
  C   C7        1.0  0.92197  0.67021  0.65835  1.0000
  C   C8        1.0  0.9592200000000001  0.81782  0.79652  1.0000
  Eu  Eu3       1.0  0.10134  0.25441  0.27035  1.0000
  O   O17       1.0  0.13468000000000002  0.17444  0.18816999999999995  1.0000
  C   C9        1.0  0.16038  0.31189999999999996  0.25177  1.0000
  O   O18       1.0  0.06986  0.20927  0.09  1.0000
  O   O19       1.0  0.06331  0.20268  0.24141999999999994  1.0000
  O   O20       1.0  0.04557000000000001  0.30522  0.30791  1.0000
  O   O21       1.0  0.15533  0.30444  0.17111  1.0000
  O   O22       1.0  0.13851000000000002  0.3053699999999999  0.3143199999999999  1.0000
  O   O23       1.0  0.12676000000000004  0.19202  0.33547  1.0000
  C   C10       1.0  0.13914  0.16395  0.26797  1.0000
  O   O24       1.0  0.07968  0.27118  0.40356  1.0000
  C   C11       1.0  0.052640000000000006  0.29363999999999996  0.38563  1.0000
  C   C12       1.0  0.05378  0.19835  0.15126  1.0000
  Eu  Eu4       1.0  0.6245100000000001  0.2431  0.7281899999999998  1.0000
  O   O25       1.0  0.64086  0.1137  0.63812  1.0000
  C   C13       1.0  0.65515  0.34106999999999993  0.7603399999999999  1.0000
  O   O26       1.0  0.60942  0.1989  0.9033799999999997  1.0000
  O   O27       1.0  0.59213  0.18366  0.7601399999999998  1.0000
  O   O28       1.0  0.58433  0.33251  0.68911  1.0000
  O   O29       1.0  0.65852  0.30758  0.7082  1.0000
  O   O30       1.0  0.65832  0.30242  0.70068  1.0000
  O   O31       1.0  0.64658  0.19401  0.62597  1.0000
  C   C14       1.0  0.6549  0.14942  0.66138  1.0000
  O   O32       1.0  0.5941800000000002  0.26525  0.6086  1.0000
  C   C15       1.0  0.57848  0.30760999999999994  0.6224999999999998  1.0000
  C   C16       1.0  0.5937  0.17411  0.8529799999999997  1.0000
  C   C17       1.0  0.33663  0.6200399999999999  0.1921  1.0000
  O   O33       1.0  0.31994  0.6262  0.2719399999999999  1.0000
  C   C18       1.0  0.29958  0.5891699999999999  0.28419  1.0000
  C   C19       1.0  0.27089  0.5925499999999999  0.24517  1.0000
  I   I1        1.0  0.25722  0.65391  0.16950999999999994  1.0000
  C   C20       1.0  0.25072  0.55509  0.25654  1.0000
  C   C21       1.0  0.25891  0.51413  0.30713  1.0000
  C   C22       1.0  0.23743000000000003  0.47346  0.31879  1.0000
  C   C23       1.0  0.24425000000000005  0.43084  0.25561  1.0000
  C   C24       1.0  0.23015000000000005  0.38541  0.28916999999999987  1.0000
  C   C25       1.0  0.20389000000000002  0.36748999999999993  0.24799999999999994  1.0000
  C   C26       1.0  0.18963000000000002  0.32781  0.28594  1.0000
  C   C27       1.0  0.20218  0.30529  0.36323999999999995  1.0000
  C   C28       1.0  0.22876  0.32195  0.40296  1.0000
  C   C29       1.0  0.24166  0.2972  0.48564  1.0000
  C   C30       1.0  0.24261000000000002  0.36215  0.36602  1.0000
  C   C31       1.0  0.28726  0.51164  0.34855  1.0000
  C   C32       1.0  0.30744000000000005  0.54913  0.3379799999999999  1.0000
  I   I2        1.0  0.34947000000000006  0.54461  0.4048599999999999  1.0000
  H   H1        1.0  0.35011  0.5864699999999999  0.1973  1.0000
  H   H2        1.0  0.32174  0.61777  0.13065  1.0000
  H   H3        1.0  0.22876  0.55786  0.22549  1.0000
  H   H4        1.0  0.21440000000000003  0.48580999999999996  0.3037799999999999  1.0000
  H   H5        1.0  0.23852000000000004  0.4622  0.39133  1.0000
  H   H6        1.0  0.26849000000000006  0.42485  0.25254  1.0000
  H   H7        1.0  0.23602000000000006  0.43944  0.18542999999999996  1.0000
  H   H8        1.0  0.19382000000000002  0.38576  0.18977  1.0000
  H   H9        1.0  0.19118  0.27472  0.39292  1.0000
  H   H10       1.0  0.2256  0.29854  0.54093  1.0000
  H   H11       1.0  0.24638  0.25891  0.46894  1.0000
  H   H12       1.0  0.2625  0.31462  0.51046  1.0000
  H   H13       1.0  0.2628  0.37604  0.3979  1.0000
  H   H14       1.0  0.2936  0.48062999999999995  0.3893699999999999  1.0000
  C   C33       1.0  0.86824  0.89937  0.7553299999999997  1.0000
  O   O34       1.0  0.85404  0.91113  0.66981  1.0000
  C   C34       1.0  0.83366  0.94936  0.67214  1.0000
  C   C35       1.0  0.80428  0.94081  0.6430199999999999  1.0000
  I   I3        1.0  0.7908200000000001  0.87163  0.59694  1.0000
  C   C36       1.0  0.78334  0.97794  0.6448499999999999  1.0000
  C   C37       1.0  0.79144  0.02422  0.6754099999999997  1.0000
  C   C38       1.0  0.76887  0.06426  0.6775899999999998  1.0000
  C   C39       1.0  0.74593  0.05514  0.7499199999999998  1.0000
  C   C40       1.0  0.72659  0.09894  0.7609899999999999  1.0000
  C   C41       1.0  0.69931  0.10236  0.71331  1.0000
  C   C42       1.0  0.68223  0.14462  0.71802  1.0000
  C   C43       1.0  0.6923  0.18306  0.77309  1.0000
  C   C44       1.0  0.71917  0.17953  0.82289  1.0000
  C   C45       1.0  0.7293400000000001  0.22074  0.8823999999999997  1.0000
  C   C46       1.0  0.7363500000000001  0.13759  0.81605  1.0000
  C   C47       1.0  0.821  0.03331  0.7011999999999998  1.0000
  C   C48       1.0  0.8421700000000001  0.99658  0.6988099999999999  1.0000
  I   I4        1.0  0.88661  0.016659999999999897  0.7295  1.0000
  H   H15       1.0  0.8917000000000002  0.91058  0.75391  1.0000
  H   H16       1.0  0.8579000000000001  0.918  0.81366  1.0000
  H   H17       1.0  0.7607900000000002  0.9707599999999998  0.6220999999999998  1.0000
  H   H18       1.0  0.7576200000000001  0.06725  0.60948  1.0000
  H   H19       1.0  0.78004  0.09933  0.6920499999999998  1.0000
  H   H20       1.0  0.75718  0.04644  0.81625  1.0000
  H   H21       1.0  0.7322  0.023409999999999997  0.72956  1.0000
  H   H22       1.0  0.692  0.07288  0.66956  1.0000
  H   H23       1.0  0.6792500000000001  0.21569999999999998  0.7776399999999998  1.0000
  H   H24       1.0  0.7314800000000001  0.25385  0.8408999999999998  1.0000
  H   H25       1.0  0.71288  0.22715  0.9351999999999999  1.0000
  H   H26       1.0  0.7510300000000001  0.21309999999999998  0.9169599999999998  1.0000
  H   H27       1.0  0.75742  0.13506  0.8529199999999999  1.0000
  H   H28       1.0  0.82777  0.06924  0.72226  1.0000
  C   C49       1.0  0.15864000000000003  0.1222  0.29318999999999995  1.0000
  O   O35       1.0  0.15037  0.08097  0.23952  1.0000
  C   C50       1.0  0.16905000000000003  0.04138  0.25515  1.0000
  C   C51       1.0  0.19520000000000007  0.036469999999999995  0.20708999999999997  1.0000
  I   I5        1.0  0.2068  0.08714999999999999  0.10722999999999998  1.0000
  C   C52       1.0  0.21387  0.997  0.22361  1.0000
  C   C53       1.0  0.20641000000000007  0.96162  0.28664  1.0000
  C   C54       1.0  0.22693000000000002  0.91991  0.30609  1.0000
  C   C55       1.0  0.24857  0.93266  0.3848  1.0000
  C   C56       1.0  0.26784  0.89014  0.4099699999999999  1.0000
  C   C57       1.0  0.29074000000000005  0.8761099999999999  0.35364  1.0000
  C   C58       1.0  0.30918  0.837  0.37746  1.0000
  C   C59       1.0  0.30423  0.81172  0.45808999999999994  1.0000
  C   C60       1.0  0.28123000000000004  0.82516  0.51429  1.0000
  C   C61       1.0  0.27608  0.79713  0.5992899999999998  1.0000
  C   C62       1.0  0.26317000000000007  0.86451  0.49019  1.0000
  C   C63       1.0  0.17991000000000001  0.96589  0.3326  1.0000
  C   C64       1.0  0.1612  0.005369999999999999  0.31663  1.0000
  I   I6        1.0  0.1211  0.00945  0.38561999999999996  1.0000
  H   H29       1.0  0.15669  0.11417  0.36681  1.0000
  H   H30       1.0  0.18183000000000005  0.13276  0.28084  1.0000
  H   H31       1.0  0.23417000000000004  0.99385  0.18722999999999995  1.0000
  H   H32       1.0  0.23931  0.91083  0.2443  1.0000
  H   H33       1.0  0.21393000000000006  0.88744  0.3237  1.0000
  H   H34       1.0  0.23591  0.94451  0.44444  1.0000
  H   H35       1.0  0.26274  0.96343  0.36541999999999997  1.0000
  H   H36       1.0  0.2943200000000001  0.89611  0.29187  1.0000
  H   H37       1.0  0.31804  0.7812  0.4771799999999999  1.0000
  H   H38       1.0  0.27124  0.75893  0.58139  1.0000
  H   H39       1.0  0.29614000000000007  0.7986099999999999  0.6447999999999999  1.0000
  H   H40       1.0  0.25717  0.81189  0.63672  1.0000
  H   H41       1.0  0.24537  0.87499  0.5334899999999999  1.0000
  H   H42       1.0  0.17384  0.93856  0.38088  1.0000
  C   C65       1.0  0.83519  0.63899  0.82269  1.0000
  O   O36       1.0  0.81648  0.6449  0.89815  1.0000
  C   C66       1.0  0.79514  0.60853  0.9028299999999998  1.0000
  C   C67       1.0  0.76698  0.61465  0.86133  1.0000
  I   I7        1.0  0.7554700000000001  0.67946  0.79347  1.0000
  C   C68       1.0  0.74595  0.57777  0.86554  1.0000
  C   C69       1.0  0.75273  0.53464  0.91144  1.0000
  C   C70       1.0  0.73029  0.4947  0.9164599999999998  1.0000
  C   C71       1.0  0.7384100000000001  0.45226  0.8546999999999999  1.0000
  C   C72       1.0  0.7192200000000001  0.40906  0.87154  1.0000
  C   C73       1.0  0.6965500000000001  0.3957  0.8087699999999998  1.0000
  C   C74       1.0  0.67923  0.35491  0.8244599999999997  1.0000
  C   C75       1.0  0.68422  0.3279  0.9038799999999998  1.0000
  C   C76       1.0  0.7066100000000001  0.34115  0.96735  1.0000
  C   C77       1.0  0.71182  0.3129  0.05323000000000011  1.0000
  C   C78       1.0  0.72418  0.38146  0.9504899999999998  1.0000
  C   C79       1.0  0.7806  0.52922  0.95474  1.0000
  C   C80       1.0  0.80159  0.56603  0.9514199999999998  1.0000
  I   I8        1.0  0.8425700000000002  0.55691  0.022849999999999992  1.0000
  H   H43       1.0  0.8434600000000002  0.60114  0.8189899999999998  1.0000
  H   H44       1.0  0.8228200000000001  0.64704  0.7579099999999998  1.0000
  H   H45       1.0  0.72436  0.58277  0.83306  1.0000
  H   H46       1.0  0.7079100000000002  0.508  0.8953799999999997  1.0000
  H   H47       1.0  0.72922  0.48277  0.9883699999999997  1.0000
  H   H48       1.0  0.76192  0.44172  0.8668799999999999  1.0000
  H   H49       1.0  0.73591  0.46391  0.78259  1.0000
  H   H50       1.0  0.69249  0.41683  0.74782  1.0000
  H   H51       1.0  0.67045  0.29687  0.91657  1.0000
  H   H52       1.0  0.70937  0.33693  0.11309  1.0000
  H   H53       1.0  0.69586  0.28273  0.058249999999999906  1.0000
  H   H54       1.0  0.73452  0.29766999999999993  0.05482999999999971  1.0000
  H   H55       1.0  0.7416800000000001  0.39149  0.9990899999999998  1.0000
  H   H56       1.0  0.7858900000000001  0.4965  0.9918999999999998  1.0000
  C   C81       1.0  0.4458400000000001  0.65014  0.3447199999999999  1.0000
  O   O37       1.0  0.4693400000000001  0.63406  0.28973  1.0000
  C   C82       1.0  0.4828900000000001  0.5916699999999999  0.32117  1.0000
  C   C83       1.0  0.50918  0.59404  0.37444  1.0000
  I   I9        1.0  0.52812  0.66134  0.41149999999999987  1.0000
  C   C84       1.0  0.52351  0.55155  0.4022799999999999  1.0000
  C   C85       1.0  0.5118  0.5064  0.3770399999999999  1.0000
  C   C86       1.0  0.52764  0.46048  0.40343999999999997  1.0000
  C   C87       1.0  0.51188  0.43424  0.4795699999999999  1.0000
  C   C88       1.0  0.52241  0.38278  0.48672  1.0000
  C   C89       1.0  0.54411  0.36943  0.55239  1.0000
  C   C90       1.0  0.55492  0.32186  0.55566  1.0000
  C   C91       1.0  0.54336  0.28757  0.49335  1.0000
  C   C92       1.0  0.5213300000000001  0.30037  0.42865  1.0000
  C   C93       1.0  0.50914  0.26304  0.36335  1.0000
  C   C94       1.0  0.51103  0.34805  0.4253499999999999  1.0000
  C   C95       1.0  0.48567000000000005  0.50423  0.32312  1.0000
  C   C96       1.0  0.47141  0.54652  0.29439  1.0000
  I   I10       1.0  0.43345000000000006  0.5408  0.20678999999999995  1.0000
  H   H57       1.0  0.4546500000000001  0.66197  0.4125799999999999  1.0000
  H   H58       1.0  0.42965  0.6206  0.35409  1.0000
  H   H59       1.0  0.54388  0.5538  0.4428199999999999  1.0000
  H   H60       1.0  0.55078  0.46818  0.4267999999999999  1.0000
  H   H61       1.0  0.52879  0.4371  0.34198  1.0000
  H   H62       1.0  0.48755  0.43437  0.46646  1.0000
  H   H63       1.0  0.51625  0.45376999999999995  0.54484  1.0000
  H   H64       1.0  0.55305  0.39632  0.59933  1.0000
  H   H65       1.0  0.55132  0.25068  0.4951599999999999  1.0000
  H   H66       1.0  0.52717  0.24848  0.32193  1.0000
  H   H67       1.0  0.49923  0.23305  0.40168  1.0000
  H   H68       1.0  0.49182  0.2784  0.31658999999999987  1.0000
  H   H69       1.0  0.49425000000000013  0.35835000000000006  0.37478  1.0000
  H   H70       1.0  0.4767200000000001  0.4696  0.30191  1.0000
  C   C97       1.0  0.94107  0.8405099999999999  0.8681899999999998  1.0000
  O   O38       1.0  0.9578900000000001  0.84291  0.9524699999999998  1.0000
  C   C98       1.0  0.9628800000000001  0.88968  0.9865799999999999  1.0000
  C   C99       1.0  0.9919800000000002  0.90702  0.9948799999999999  1.0000
  I   I11       1.0  0.028290000000000006  0.86297  0.96221  1.0000
  C   C100      1.0  0.9975400000000001  0.95361  0.02783  1.0000
  C   C101      1.0  0.97433  0.9828299999999999  0.05613999999999999  1.0000
  C   C102      1.0  0.98073  0.0312  0.09882  1.0000
  C   C103      1.0  0.9856700000000002  0.06999  0.026829999999999996  1.0000
  C   C104      1.0  0.99055  0.11809999999999998  0.07279999999999998  1.0000
  C   C105      1.0  0.01882  0.13896  0.07872999999999997  1.0000
  C   C106      1.0  0.023820000000000008  0.18017  0.13265  1.0000
  C   C107      1.0  0.0004399999999999993  0.20099  0.17906999999999995  1.0000
  C   C108      1.0  0.972  0.18154  0.17078  1.0000
  C   C109      1.0  0.9474000000000002  0.20379  0.22230999999999995  1.0000
  C   C110      1.0  0.9671100000000001  0.14029  0.11712999999999997  1.0000
  C   C111      1.0  0.9453500000000001  0.9651099999999999  0.05053  1.0000
  C   C112      1.0  0.9395100000000002  0.91876  0.016669999999999997  1.0000
  I   I12       1.0  0.8955200000000001  0.8933099999999999  0.021529999999999997  1.0000
  H   H71       1.0  0.9211  0.81842  0.8781599999999998  1.0000
  H   H72       1.0  0.9338900000000002  0.87674  0.84324  1.0000
  H   H73       1.0  0.020050000000000002  0.96663  0.03356  1.0000
  H   H74       1.0  0.0006300000000000001  0.028399999999999998  0.145  1.0000
  H   H75       1.0  0.96209  0.04189  0.14187  1.0000
  H   H76       1.0  0.9661  0.07239  0.97928  1.0000
  H   H77       1.0  0.0050399999999999326  0.0599  0.9863799999999999  1.0000
  H   H78       1.0  0.03717  0.1216  0.04628  1.0000
  H   H79       1.0  0.004449999999999999  0.23212  0.22264999999999993  1.0000
  H   H80       1.0  0.9530800000000003  0.20288  0.29632  1.0000
  H   H81       1.0  0.9441500000000003  0.24182  0.20079999999999995  1.0000
  H   H82       1.0  0.92632  0.18400999999999998  0.21002999999999994  1.0000
  H   H83       1.0  0.94531  0.12428  0.11248999999999998  1.0000
  H   H84       1.0  0.9273300000000001  0.987  0.07422  1.0000
  C   C113      1.0  0.57682  0.13296  0.89081  1.0000
  O   O39       1.0  0.55538  0.15089  0.95146  1.0000
  C   C114      1.0  0.54084  0.11412  0.9968599999999999  1.0000
  C   C115      1.0  0.51536  0.09247  0.95765  1.0000
  I   I13       1.0  0.49676000000000003  0.11645  0.83184  1.0000
  C   C116      1.0  0.50174  0.05444  0.0022099999999999993  1.0000
  C   C117      1.0  0.51301  0.03824  0.08669999999999997  1.0000
  C   C118      1.0  0.49903  0.99605  0.13278999999999996  1.0000
  C   C119      1.0  0.5074600000000001  0.94852  0.08651  1.0000
  C   C120      1.0  0.49862000000000006  0.90608  0.14299  1.0000
  C   C121      1.0  0.46898  0.89146  0.14343  1.0000
  C   C122      1.0  0.46041000000000004  0.85341  0.19937  1.0000
  C   C123      1.0  0.48179000000000005  0.82978  0.25441  1.0000
  C   C124      1.0  0.51154  0.8433  0.2528  1.0000
  C   C125      1.0  0.53404  0.81666  0.31069  1.0000
  C   C126      1.0  0.51987  0.88155  0.19715  1.0000
  C   C127      1.0  0.53775  0.0612  0.1272  1.0000
  C   C128      1.0  0.55163  0.0989  0.08268999999999997  1.0000
  I   I14       1.0  0.58919  0.1317  0.14611  1.0000
  H   H85       1.0  0.59274  0.1085  0.92715  1.0000
  H   H86       1.0  0.5657500000000001  0.1126  0.8341299999999998  1.0000
  H   H87       1.0  0.48241000000000006  0.03743  0.9709499999999999  1.0000
  H   H88       1.0  0.47462000000000004  0.0004999999999999449  0.13096  1.0000
  H   H89       1.0  0.50651  0.99493  0.20559999999999995  1.0000
  H   H90       1.0  0.53173  0.9478199999999999  0.07717999999999997  1.0000
  H   H91       1.0  0.4965800000000001  0.94601  0.01774  1.0000
  H   H92       1.0  0.45262  0.91012  0.10101999999999998  1.0000
  H   H93       1.0  0.47548000000000007  0.8001199999999999  0.29742  1.0000
  H   H94       1.0  0.5283200000000001  0.81968  0.38326  1.0000
  H   H95       1.0  0.5341700000000001  0.7779399999999999  0.29084  1.0000
  H   H96       1.0  0.5566000000000001  0.83142  0.30301  1.0000
  H   H97       1.0  0.5428  0.89257  0.19665  1.0000
  H   H98       1.0  0.54657  0.049359999999999994  0.19274999999999995  1.0000
  C   C129      1.0  0.03223  0.30267  0.46135999999999994  1.0000
  O   O40       1.0  0.046610000000000006  0.333  0.52822  1.0000
  C   C130      1.0  0.030170000000000006  0.37353  0.55278  1.0000
  C   C131      1.0  0.03774  0.41922  0.52003  1.0000
  I   I15       1.0  0.0739  0.42793  0.43454  1.0000
  C   C132      1.0  0.021070000000000002  0.45973  0.5429  1.0000
  C   C133      1.0  0.99693  0.45515  0.59935  1.0000
  C   C134      1.0  0.9781100000000001  0.49834999999999996  0.62015  1.0000
  C   C135      1.0  0.9592000000000002  0.51291  0.53608  1.0000
  C   C136      1.0  0.934  0.54499  0.56229  1.0000
  C   C137      1.0  0.93948  0.59213  0.59356  1.0000
  C   C138      1.0  0.9161000000000001  0.62188  0.61965  1.0000
  C   C139      1.0  0.88709  0.60406  0.6140299999999997  1.0000
  C   C140      1.0  0.8814500000000002  0.5567  0.58459  1.0000
  C   C141      1.0  0.85055  0.53726  0.58452  1.0000
  C   C142      1.0  0.9049400000000002  0.52745  0.5580899999999998  1.0000
  C   C143      1.0  0.9900200000000002  0.40972  0.63447  1.0000
  C   C144      1.0  0.00658  0.36909  0.6118699999999998  1.0000
  I   I16       1.0  0.9957000000000003  0.3021  0.67056  1.0000
  H   H99       1.0  0.02718  0.26745  0.4928  1.0000
  H   H100      1.0  0.011070000000000002  0.31828  0.43371  1.0000
  H   H101      1.0  0.02679  0.49474  0.51628  1.0000
  H   H102      1.0  0.99248  0.52892  0.6426699999999999  1.0000
  H   H103      1.0  0.9634700000000003  0.48992  0.67717  1.0000
  H   H104      1.0  0.95043  0.47988  0.50138  1.0000
  H   H105      1.0  0.97303  0.53201  0.48672  1.0000
  H   H106      1.0  0.9619700000000002  0.6054499999999999  0.5978  1.0000
  H   H107      1.0  0.8689000000000001  0.62637  0.63537  1.0000
  H   H108      1.0  0.8422900000000002  0.53844  0.6547  1.0000
  H   H109      1.0  0.83589  0.55945  0.53939  1.0000
  H   H110      1.0  0.8496  0.49926  0.56018  1.0000
  H   H111      1.0  0.90069  0.49073999999999995  0.53574  1.0000
  H   H112      1.0  0.9716000000000001  0.40571  0.6787899999999998  1.0000
