data_image0
_chemical_formula_structural       EuOCO6COC2EuOCO6COC2EuOCO6COC2EuOCO6COC7NC2NC2NC2H11C5NC2NC2NC2H11C5NC2NC2NC2H11C5NC2NC2NC2H11C5NC2NC2NC2H11C5NC2NC2NC2H11C5NC2NC2NC2H11C5NC2NC2NC2H11
_chemical_formula_sum              "Eu4 O32 C104 N24 H88"
_cell_length_a       32.2091
_cell_length_b       16.4066
_cell_length_c       8.538
_cell_angle_alpha    91.8512
_cell_angle_beta     86.16870000000002
_cell_angle_gamma    89.98749999999998

_space_group_name_H-M_alt    "P 1"
_space_group_IT_number       1

loop_
  _space_group_symop_operation_xyz
  'x, y, z'

loop_
  _atom_site_type_symbol
  _atom_site_label
  _atom_site_symmetry_multiplicity
  _atom_site_fract_x
  _atom_site_fract_y
  _atom_site_fract_z
  _atom_site_occupancy
  Eu  Eu1       1.0  0.38203  0.71687  0.31494  1.0000
  O   O1        1.0  0.32903  0.82974  0.12013  1.0000
  C   C1        1.0  0.2986699999999999  0.64828  0.21797  1.0000
  O   O2        1.0  0.42277  0.80062  0.04037  1.0000
  O   O3        1.0  0.44677  0.7712  0.2745399999999999  1.0000
  O   O4        1.0  0.42595  0.67769  0.7728299999999998  1.0000
  O   O5        1.0  0.318  0.66049  0.09340999999999998  1.0000
  O   O6        1.0  0.3176  0.66184  0.3577999999999999  1.0000
  O   O7        1.0  0.35574  0.845  0.3579999999999999  1.0000
  C   C2        1.0  0.33739  0.87554  0.22896  1.0000
  O   O8        1.0  0.3883099999999999  0.71746  0.57886  1.0000
  C   C3        1.0  0.41599  0.66343  0.6394599999999998  1.0000
  C   C4        1.0  0.45216  0.80107  0.12368  1.0000
  Eu  Eu2       1.0  0.883  0.75029  0.9599199999999999  1.0000
  O   O9        1.0  0.8518  0.85429  0.6911999999999998  1.0000
  C   C5        1.0  0.82376  0.6087999999999999  0.008049999999999669  1.0000
  O   O10       1.0  0.96285  0.84411  0.8810399999999998  1.0000
  O   O11       1.0  0.89753  0.88575  0.9540299999999999  1.0000
  O   O12       1.0  0.95068  0.64067  0.8377899999999999  1.0000
  O   O13       1.0  0.8091300000000001  0.64486  0.12602000000000002  1.0000
  O   O14       1.0  0.86604  0.6158199999999999  0.9666499999999999  1.0000
  O   O15       1.0  0.81897  0.77498  0.8719099999999997  1.0000
  C   C6        1.0  0.81892  0.83136  0.75369  1.0000
  O   O16       1.0  0.91207  0.72847  0.71062  1.0000
  C   C7        1.0  0.9410699999999997  0.66557  0.71182  1.0000
  C   C8        1.0  0.9386499999999998  0.90096  0.9048199999999997  1.0000
  Eu  Eu3       1.0  0.09386  0.25132  0.27075  1.0000
  O   O17       1.0  0.18253  0.19634  0.27446  1.0000
  C   C9        1.0  0.15843  0.36978  0.39007999999999987  1.0000
  O   O18       1.0  0.12660999999999994  0.18965  0.9626799999999999  1.0000
  O   O19       1.0  0.06286999999999998  0.17565  0.08361999999999997  1.0000
  O   O20       1.0  0.99239  0.29727  0.6132399999999998  1.0000
  O   O21       1.0  0.16262  0.37378  0.24728  1.0000
  O   O22       1.0  0.12622  0.32364  0.45849  1.0000
  O   O23       1.0  0.12264  0.13456  0.3528799999999999  1.0000
  C   C10       1.0  0.16551999999999994  0.13439999999999996  0.3202699999999999  1.0000
  O   O24       1.0  0.03721  0.23224  0.43991  1.0000
  C   C11       1.0  0.01734  0.30301  0.50083  1.0000
  C   C12       1.0  0.09327  0.1541  0.9664999999999999  1.0000
  Eu  Eu4       1.0  0.63006  0.22861  0.77191  1.0000
  O   O25       1.0  0.71292  0.14848  0.78426  1.0000
  C   C13       1.0  0.68446  0.35683999999999994  0.9138499999999998  1.0000
  O   O26       1.0  0.53935  0.22836  0.84007  1.0000
  O   O27       1.0  0.58395  0.12364999999999998  0.79637  1.0000
  O   O28       1.0  0.59297  0.39438  0.7484399999999998  1.0000
  O   O29       1.0  0.70101  0.30598  0.9905999999999999  1.0000
  O   O30       1.0  0.67462  0.33607  0.76138  1.0000
  O   O31       1.0  0.67071  0.15826  0.5851699999999999  1.0000
  C   C14       1.0  0.70892  0.14044  0.6433999999999997  1.0000
  O   O32       1.0  0.59394  0.2849  0.58058  1.0000
  C   C15       1.0  0.58159  0.36409  0.6261  1.0000
  C   C16       1.0  0.54605  0.15614  0.8562799999999998  1.0000
  C   C17       1.0  0.25507  0.6211599999999999  0.22172999999999995  1.0000
  C   C18       1.0  0.23877  0.57419  0.34518  1.0000
  C   C19       1.0  0.19686999999999993  0.55056  0.35359  1.0000
  C   C20       1.0  0.17881  0.50751  0.49637999999999993  1.0000
  C   C21       1.0  0.18732  0.41514  0.49381  1.0000
  N   N1        1.0  0.23113  0.39598  0.45015  1.0000
  C   C22       1.0  0.17097  0.57633  0.23884999999999998  1.0000
  C   C23       1.0  0.18606  0.62912  0.12101999999999999  1.0000
  N   N2        1.0  0.15766  0.67026  0.02551  1.0000
  C   C24       1.0  0.16714999999999994  0.7198  0.90548  1.0000
  C   C25       1.0  0.13107999999999995  0.75567  0.8639799999999999  1.0000
  N   N3        1.0  0.09874  0.72926  0.9562699999999998  1.0000
  C   C26       1.0  0.11598  0.67754  0.05289  1.0000
  C   C27       1.0  0.22879  0.64802  0.10972999999999997  1.0000
  H   H1        1.0  0.2585999999999999  0.55645  0.43592  1.0000
  H   H2        1.0  0.19159  0.53597  0.6027  1.0000
  H   H3        1.0  0.14461  0.51793  0.51089  1.0000
  H   H4        1.0  0.18027  0.39476  0.61585  1.0000
  H   H5        1.0  0.23735  0.40205  0.32926  1.0000
  H   H6        1.0  0.23654  0.33493  0.47416  1.0000
  H   H7        1.0  0.13858  0.55855  0.24716  1.0000
  H   H8        1.0  0.19792999999999994  0.73142  0.8529499999999998  1.0000
  H   H9        1.0  0.12856000000000006  0.80024  0.7746199999999998  1.0000
  H   H10       1.0  0.09812  0.64848  0.14619999999999994  1.0000
  H   H11       1.0  0.2415  0.68786  0.02016  1.0000
  C   C28       1.0  0.77892  0.86388  0.7072699999999997  1.0000
  C   C29       1.0  0.7777  0.92752  0.60182  1.0000
  C   C30       1.0  0.73954  0.96119  0.56601  1.0000
  C   C31       1.0  0.73869  0.030209999999999997  0.4533199999999999  1.0000
  C   C32       1.0  0.7453  0.11503  0.53103  1.0000
  N   N4        1.0  0.78506  0.11927  0.6055599999999998  1.0000
  C   C33       1.0  0.70226  0.92867  0.63202  1.0000
  C   C34       1.0  0.7028099999999998  0.86337  0.73487  1.0000
  N   N5        1.0  0.66461  0.82789  0.7993799999999998  1.0000
  C   C35       1.0  0.65964  0.78053  0.92534  1.0000
  C   C36       1.0  0.6187299999999998  0.75659  0.9412899999999998  1.0000
  N   N6        1.0  0.59768  0.78865  0.8267599999999998  1.0000
  C   C37       1.0  0.62646  0.83185  0.74277  1.0000
  C   C38       1.0  0.74143  0.832  0.7721199999999998  1.0000
  H   H12       1.0  0.80643  0.95173  0.5486  1.0000
  H   H13       1.0  0.76312  0.01944  0.3565199999999999  1.0000
  H   H14       1.0  0.70858  0.03005  0.3966399999999999  1.0000
  H   H15       1.0  0.7468199999999998  0.1595  0.43518  1.0000
  H   H16       1.0  0.78322  0.0861  0.7083499999999998  1.0000
  H   H17       1.0  0.79044  0.18003  0.6394299999999998  1.0000
  H   H18       1.0  0.67298  0.95477  0.6032  1.0000
  H   H19       1.0  0.68369  0.76435  0.0014400000000001079  1.0000
  H   H20       1.0  0.60511  0.71766  0.030679999999999992  1.0000
  H   H21       1.0  0.61947  0.86414  0.63929  1.0000
  H   H22       1.0  0.74242  0.78135  0.84965  1.0000
  C   C39       1.0  0.19013  0.05963  0.33859  1.0000
  C   C40       1.0  0.23368  0.06307  0.33634  1.0000
  C   C41       1.0  0.25714  0.99257  0.35615999999999987  1.0000
  C   C42       1.0  0.30356  0.99937  0.36925999999999987  1.0000
  C   C43       1.0  0.33024  0.96625  0.22407  1.0000
  N   N7        1.0  0.31347  0.99087  0.07718  1.0000
  C   C44       1.0  0.23678  0.9175  0.37432  1.0000
  C   C45       1.0  0.19311  0.91272  0.37663  1.0000
  N   N8        1.0  0.17199  0.83642  0.40411999999999987  1.0000
  C   C46       1.0  0.13336  0.81571  0.3661699999999999  1.0000
  C   C47       1.0  0.1241  0.74078  0.42719  1.0000
  N   N9        1.0  0.15669  0.71385  0.50217  1.0000
  C   C48       1.0  0.18537999999999993  0.77331  0.4852699999999999  1.0000
  C   C49       1.0  0.17012  0.9843999999999999  0.3590799999999999  1.0000
  H   H23       1.0  0.24941999999999998  0.12101  0.3218  1.0000
  H   H24       1.0  0.31183  0.06434  0.38936999999999994  1.0000
  H   H25       1.0  0.3121  0.96865  0.47668  1.0000
  H   H26       1.0  0.3614699999999999  0.99417  0.23023  1.0000
  H   H27       1.0  0.28702  0.95641  0.05538999999999999  1.0000
  H   H28       1.0  0.33573  0.9778499999999999  0.9848099999999999  1.0000
  H   H29       1.0  0.25501  0.86323  0.38854  1.0000
  H   H30       1.0  0.11319  0.85187  0.29901  1.0000
  H   H31       1.0  0.09521  0.7079  0.41876  1.0000
  H   H32       1.0  0.21512  0.77119  0.53697  1.0000
  H   H33       1.0  0.13652  0.98196  0.3634  1.0000
  C   C50       1.0  0.7964800000000001  0.56379  0.9029899999999997  1.0000
  C   C51       1.0  0.7536  0.55683  0.94204  1.0000
  C   C52       1.0  0.72746  0.51852  0.83717  1.0000
  C   C53       1.0  0.68148  0.51042  0.8803799999999998  1.0000
  C   C54       1.0  0.67086  0.43866999999999995  0.9879899999999999  1.0000
  N   N10       1.0  0.68738  0.45303  0.1423700000000001  1.0000
  C   C55       1.0  0.74413  0.49062999999999996  0.68915  1.0000
  C   C56       1.0  0.7868300000000001  0.49776999999999993  0.64799  1.0000
  N   N11       1.0  0.80347  0.47387  0.49288  1.0000
  C   C57       1.0  0.84206  0.44668  0.45057999999999987  1.0000
  C   C58       1.0  0.84579  0.43756  0.2898  1.0000
  N   N12       1.0  0.80965  0.45838  0.23043  1.0000
  C   C59       1.0  0.78455  0.48027  0.3576299999999999  1.0000
  C   C60       1.0  0.81292  0.53249  0.7571099999999997  1.0000
  H   H34       1.0  0.7403299999999998  0.58188  0.053269999999999706  1.0000
  H   H35       1.0  0.6696599999999998  0.5681  0.9393  1.0000
  H   H36       1.0  0.66421  0.50265  0.77234  1.0000
  H   H37       1.0  0.63633  0.43686  0.004999999999999893  1.0000
  H   H38       1.0  0.71909  0.43856  0.13539999999999996  1.0000
  H   H39       1.0  0.67255  0.4134  0.22161  1.0000
  H   H40       1.0  0.72384  0.46275  0.60651  1.0000
  H   H41       1.0  0.86589  0.4343  0.53007  1.0000
  H   H42       1.0  0.87341  0.41791  0.22004  1.0000
  H   H43       1.0  0.75332  0.50346  0.3505299999999999  1.0000
  H   H44       1.0  0.84579  0.53844  0.72526  1.0000
  C   C61       1.0  0.43292  0.58947  0.55213  1.0000
  C   C62       1.0  0.46483999999999986  0.54554  0.61603  1.0000
  C   C63       1.0  0.47945  0.4717  0.54657  1.0000
  C   C64       1.0  0.51087  0.42242  0.6266799999999998  1.0000
  C   C65       1.0  0.55277  0.41098  0.52998  1.0000
  N   N13       1.0  0.57148  0.48986  0.49118999999999996  1.0000
  C   C66       1.0  0.46321  0.44271  0.40733999999999987  1.0000
  C   C67       1.0  0.43171  0.48592  0.33916  1.0000
  N   N14       1.0  0.41569  0.45602  0.19433  1.0000
  C   C68       1.0  0.39989999999999987  0.50029  0.08224  1.0000
  C   C69       1.0  0.3913899999999999  0.44812  0.9589699999999999  1.0000
  N   N15       1.0  0.40146  0.37128  0.99297  1.0000
  C   C70       1.0  0.41613  0.37829  0.13706  1.0000
  C   C71       1.0  0.4160599999999999  0.55834  0.41465999999999986  1.0000
  H   H45       1.0  0.4777  0.56758  0.7236599999999997  1.0000
  H   H46       1.0  0.51674  0.45187  0.7423  1.0000
  H   H47       1.0  0.49706  0.36171  0.65168  1.0000
  H   H48       1.0  0.54779  0.37514  0.4199199999999999  1.0000
  H   H49       1.0  0.55268  0.51916  0.41505999999999993  1.0000
  H   H50       1.0  0.59983  0.47892  0.42663  1.0000
  H   H51       1.0  0.47516999999999987  0.38627  0.35297  1.0000
  H   H52       1.0  0.39588  0.56579  0.08690999999999999  1.0000
  H   H53       1.0  0.37907  0.46498  0.8497599999999997  1.0000
  H   H54       1.0  0.4268399999999999  0.32661  0.19892  1.0000
  H   H55       1.0  0.38974  0.58779  0.3696399999999999  1.0000
  C   C72       1.0  0.95274  0.9859200000000001  0.88528  1.0000
  C   C73       1.0  0.9932899999999998  0.003390000000000001  0.8260999999999997  1.0000
  C   C74       1.0  0.00720999999999994  0.08433  0.8172699999999998  1.0000
  C   C75       1.0  0.050350000000000006  0.10209999999999998  0.7452099999999999  1.0000
  C   C76       1.0  0.08647  0.08496  0.85027  1.0000
  N   N16       1.0  0.08128999999999997  0.00762  0.93049  1.0000
  C   C77       1.0  0.9795099999999999  0.14818  0.86338  1.0000
  C   C78       1.0  0.93806  0.13182  0.9153099999999997  1.0000
  N   N17       1.0  0.90881  0.19719  0.9546299999999999  1.0000
  C   C79       1.0  0.8733499999999997  0.1939  0.04703999999999974  1.0000
  C   C80       1.0  0.8541099999999998  0.26863  0.04752000000000001  1.0000
  N   N18       1.0  0.8770899999999998  0.31923  0.95601  1.0000
  C   C81       1.0  0.91018  0.27382  0.90165  1.0000
  C   C82       1.0  0.92515  0.050389999999999935  0.9263199999999998  1.0000
  H   H56       1.0  0.014160000000000006  0.95408  0.7863299999999998  1.0000
  H   H57       1.0  0.055159999999999994  0.06437  0.63488  1.0000
  H   H58       1.0  0.05242000000000001  0.16655  0.7090299999999998  1.0000
  H   H59       1.0  0.11505  0.07969  0.76964  1.0000
  H   H60       1.0  0.05843  0.01438  0.02301  1.0000
  H   H61       1.0  0.10908  0.99444  0.9814599999999999  1.0000
  H   H62       1.0  0.99035  0.21042  0.8588599999999997  1.0000
  H   H63       1.0  0.86213  0.14166  0.11103999999999997  1.0000
  H   H64       1.0  0.82512  0.2855  0.11141999999999998  1.0000
  H   H65       1.0  0.93445  0.29672  0.82218  1.0000
  H   H66       1.0  0.8933499999999998  0.037069999999999936  0.96559  1.0000
  C   C83       1.0  0.5151  0.10624  0.9461499999999999  1.0000
  C   C84       1.0  0.5257099999999998  0.029200000000000007  0.99884  1.0000
  C   C85       1.0  0.49755000000000005  0.98575  0.09787  1.0000
  C   C86       1.0  0.51001  0.90425  0.15867999999999993  1.0000
  C   C87       1.0  0.4948  0.82952  0.06306999999999997  1.0000
  N   N19       1.0  0.49685  0.84466  0.8941899999999998  1.0000
  C   C88       1.0  0.45867  0.02036  0.14504  1.0000
  C   C89       1.0  0.4475  0.09666  0.09101  1.0000
  N   N20       1.0  0.40829  0.13329  0.14107  1.0000
  C   C90       1.0  0.38137  0.16828  0.04981999999999997  1.0000
  C   C91       1.0  0.34942000000000006  0.20159  0.14620999999999998  1.0000
  N   N21       1.0  0.35653  0.18888  0.29746  1.0000
  C   C92       1.0  0.3927  0.14703  0.28992  1.0000
  C   C93       1.0  0.4755999999999999  0.13871  0.99096  1.0000
  H   H67       1.0  0.55618  0.0035900000000000003  0.96621  1.0000
  H   H68       1.0  0.54453  0.90116  0.15734  1.0000
  H   H69       1.0  0.49893  0.9005  0.28442  1.0000
  H   H70       1.0  0.51656  0.77844  0.081  1.0000
  H   H71       1.0  0.47289  0.88435  0.86932  1.0000
  H   H72       1.0  0.4919299999999999  0.78958  0.83309  1.0000
  H   H73       1.0  0.43719  0.98821  0.22389  1.0000
  H   H74       1.0  0.38483  0.16986  0.9230099999999998  1.0000
  H   H75       1.0  0.32284  0.23433  0.10875999999999995  1.0000
  H   H76       1.0  0.4077499999999999  0.12794  0.3924  1.0000
  H   H77       1.0  0.4669899999999999  0.1984  0.9528999999999999  1.0000
  C   C94       1.0  0.024809999999999995  0.38382  0.43259  1.0000
  C   C95       1.0  0.015210000000000005  0.45487  0.5239199999999998  1.0000
  C   C96       1.0  0.01887  0.53216  0.4589399999999999  1.0000
  C   C97       1.0  0.004689999999999997  0.60683  0.55719  1.0000
  C   C98       1.0  0.95697  0.62304  0.5599  1.0000
  N   N22       1.0  0.93307  0.54783  0.54009  1.0000
  C   C99       1.0  0.03356  0.53848  0.3015199999999999  1.0000
  C   C100      1.0  0.04369999999999999  0.46794  0.20815999999999996  1.0000
  N   N23       1.0  0.05908999999999998  0.47384  0.04643  1.0000
  C   C101      1.0  0.08294999999999997  0.41902999999999996  0.9609399999999999  1.0000
  C   C102      1.0  0.09142  0.44931  0.8140899999999999  1.0000
  N   N24       1.0  0.07313  0.52273  0.8061400000000001  1.0000
  C   C103      1.0  0.05342000000000001  0.53557  0.9492299999999999  1.0000
  C   C104      1.0  0.03823  0.39096  0.27431  1.0000
  H   H78       1.0  0.0035700000000000003  0.45035  0.64537  1.0000
  H   H79       1.0  0.01448  0.59933  0.67794  1.0000
  H   H80       1.0  0.02145  0.66184  0.51386  1.0000
  H   H81       1.0  0.95109  0.66359  0.4614899999999999  1.0000
  H   H82       1.0  0.9396  0.52399  0.42609  1.0000
  H   H83       1.0  0.90161  0.56383  0.54354  1.0000
  H   H84       1.0  0.03650999999999999  0.59825  0.25235  1.0000
  H   H85       1.0  0.09405999999999998  0.36167  0.00192  1.0000
  H   H86       1.0  0.10967  0.41955  0.71827  1.0000
  H   H87       1.0  0.03495999999999999  0.58954  0.98062  1.0000
  H   H88       1.0  0.0425  0.33669  0.20017  1.0000
