data_image0
_chemical_formula_structural       EuOCO6COC2EuOCO6COC2EuOCO6COC2EuOCO6COC3N2C3N3H5CN2C3N3H5CN2C3N3H5CN2C3N3H5CN2C3N3H5CN2C3N3H5CN2C3N3H5CN2C3N3H5
_chemical_formula_sum              "Eu4 O32 C48 N40 H40"
_cell_length_a       29.0692
_cell_length_b       13.549399999999999
_cell_length_c       15.963499999999998
_cell_angle_alpha    77.2538
_cell_angle_beta     95.5694
_cell_angle_gamma    84.15210000000002

_space_group_name_H-M_alt    "P 1"
_space_group_IT_number       1

loop_
  _space_group_symop_operation_xyz
  'x, y, z'

loop_
  _atom_site_type_symbol
  _atom_site_label
  _atom_site_symmetry_multiplicity
  _atom_site_fract_x
  _atom_site_fract_y
  _atom_site_fract_z
  _atom_site_occupancy
  Eu  Eu1       1.0  0.39537  0.8697800000000002  0.10273  1.0000
  O   O1        1.0  0.30068999999999996  0.9170000000000004  0.13920999999999994  1.0000
  C   C1        1.0  0.33243  0.70541  0.08536999999999997  1.0000
  O   O2        1.0  0.4739  0.07149000000000028  0.026619999999999994  1.0000
  O   O3        1.0  0.41200999999999993  0.03136000000000029  0.09481999999999997  1.0000
  O   O4        1.0  0.47364  0.72013  0.07158  1.0000
  O   O5        1.0  0.31507000000000007  0.7621300000000001  0.01680999999999999  1.0000
  O   O6        1.0  0.37871  0.70729  0.11562999999999997  1.0000
  O   O7        1.0  0.3663699999999999  0.86525  0.23105999999999993  1.0000
  C   C2        1.0  0.31804999999999994  0.8813700000000002  0.21394999999999995  1.0000
  O   O8        1.0  0.46796  0.8114900000000002  0.17416999999999994  1.0000
  C   C3        1.0  0.48939  0.7348200000000001  0.14052999999999993  1.0000
  C   C4        1.0  0.43207  0.06564999999999999  0.019719999999999994  1.0000
  Eu  Eu2       1.0  0.89716  0.5934  0.9332199999999998  1.0000
  O   O9        1.0  0.7901000000000002  0.6588800000000004  0.9404799999999998  1.0000
  C   C5        1.0  0.86712  0.3872800000000001  0.008720000000000061  1.0000
  O   O10       1.0  0.95414  0.6972200000000002  0.03829999999999977  1.0000
  O   O11       1.0  0.90023  0.7634100000000001  0.92376  1.0000
  O   O12       1.0  0.001810000000000086  0.5971900000000002  0.89514  1.0000
  O   O13       1.0  0.87442  0.40291000000000016  0.08078999999999992  1.0000
  O   O14       1.0  0.8941400000000002  0.4250400000000001  0.9445699999999998  1.0000
  O   O15       1.0  0.83182  0.6266300000000002  0.8350699999999998  1.0000
  C   C6        1.0  0.7924  0.66871  0.8636399999999997  1.0000
  O   O16       1.0  0.93321  0.6055100000000002  0.8117199999999998  1.0000
  C   C7        1.0  0.98137  0.60595  0.82312  1.0000
  C   C8        1.0  0.9326300000000002  0.7738300000000002  0.9897999999999998  1.0000
  Eu  Eu3       1.0  0.05067000000000001  0.39509000000000005  0.23493999999999995  1.0000
  O   O17       1.0  0.10043  0.2691200000000001  0.12309999999999997  1.0000
  C   C9        1.0  0.15212000000000006  0.43680000000000013  0.22224  1.0000
  O   O18       1.0  0.99291  0.34399000000000013  0.07586  1.0000
  O   O19       1.0  0.98946  0.30531000000000014  0.21971999999999994  1.0000
  O   O20       1.0  0.99217  0.5117400000000001  0.33903  1.0000
  O   O21       1.0  0.14928999999999998  0.4287900000000001  0.14739  1.0000
  O   O22       1.0  0.11325000000000002  0.4817500000000001  0.25130999999999987  1.0000
  O   O23       1.0  0.09824  0.24511000000000002  0.2672699999999999  1.0000
  C   C10       1.0  0.11303  0.21565  0.19566  1.0000
  O   O24       1.0  0.046299999999999994  0.3728900000000001  0.3799499999999999  1.0000
  C   C11       1.0  0.017859999999999994  0.45290000000000014  0.39761999999999986  1.0000
  C   C12       1.0  0.98674  0.27999000000000007  0.13957  1.0000
  Eu  Eu4       1.0  0.67335  0.26807  0.6844  1.0000
  O   O25       1.0  0.65127  0.05374000000000002  0.68918  1.0000
  C   C13       1.0  0.76649  0.16691000000000006  0.7789899999999997  1.0000
  O   O26       1.0  0.60046  0.30783000000000005  0.80007  1.0000
  O   O27       1.0  0.5950600000000003  0.26199000000000017  0.6724499999999998  1.0000
  O   O28       1.0  0.5987199999999999  0.47900000000000015  0.6073899999999998  1.0000
  O   O29       1.0  0.8077299999999998  0.14674000000000004  0.80851  1.0000
  O   O30       1.0  0.7528000000000002  0.25414000000000003  0.71126  1.0000
  O   O31       1.0  0.6790000000000003  0.16861  0.58665  1.0000
  C   C14       1.0  0.6641400000000001  0.07353000000000005  0.6174399999999998  1.0000
  O   O32       1.0  0.66484  0.4052900000000001  0.56926  1.0000
  C   C15       1.0  0.6174300000000001  0.4453700000000002  0.55261  1.0000
  C   C16       1.0  0.57894  0.26679  0.75055  1.0000
  C   C17       1.0  0.3038199999999999  0.6408200000000003  0.13932999999999995  1.0000
  N   N1        1.0  0.32149  0.5904800000000002  0.22124999999999995  1.0000
  N   N2        1.0  0.29466  0.53987  0.27422  1.0000
  C   C18       1.0  0.24909000000000006  0.53811  0.24737  1.0000
  C   C19       1.0  0.21837999999999996  0.48886000000000013  0.31044  1.0000
  C   C20       1.0  0.19752000000000006  0.39883  0.28294  1.0000
  N   N3        1.0  0.19024  0.32363  0.36058  1.0000
  N   N4        1.0  0.23127000000000003  0.5876500000000002  0.16489999999999994  1.0000
  N   N5        1.0  0.25831  0.6388700000000002  0.11212999999999997  1.0000
  H   H1        1.0  0.2401  0.4602800000000002  0.37475999999999987  1.0000
  H   H2        1.0  0.19055999999999995  0.5470900000000002  0.3187699999999999  1.0000
  H   H3        1.0  0.22357  0.3614300000000001  0.24903999999999996  1.0000
  H   H4        1.0  0.15657  0.33800000000000013  0.3767799999999999  1.0000
  H   H5        1.0  0.19358000000000006  0.25131  0.34716  1.0000
  C   C21       1.0  0.75314  0.7214700000000003  0.7986799999999997  1.0000
  N   N6        1.0  0.75533  0.7217100000000003  0.7142399999999998  1.0000
  N   N7        1.0  0.72242  0.7762500000000002  0.6532199999999998  1.0000
  C   C22       1.0  0.68689  0.83519  0.67474  1.0000
  C   C23       1.0  0.64939  0.8942000000000001  0.6056299999999998  1.0000
  C   C24       1.0  0.66392  0.99749  0.5604099999999999  1.0000
  N   N8        1.0  0.6321  0.04175000000000002  0.48096  1.0000
  N   N9        1.0  0.68404  0.8335000000000001  0.7592799999999997  1.0000
  N   N10       1.0  0.7168399999999999  0.7785600000000003  0.82044  1.0000
  H   H6        1.0  0.64334  0.8479800000000003  0.5570699999999997  1.0000
  H   H7        1.0  0.61597  0.9057400000000002  0.63345  1.0000
  H   H8        1.0  0.70008  0.9825000000000002  0.54384  1.0000
  H   H9        1.0  0.6364000000000002  0.9938800000000001  0.43822999999999995  1.0000
  H   H10       1.0  0.6430800000000001  0.11083000000000004  0.4504199999999999  1.0000
  C   C25       1.0  0.14432  0.11993000000000005  0.20926999999999996  1.0000
  N   N11       1.0  0.14838  0.06815  0.14576  1.0000
  N   N12       1.0  0.17770000000000002  0.9811300000000002  0.16061999999999996  1.0000
  C   C26       1.0  0.20428999999999997  0.9455600000000005  0.23863999999999994  1.0000
  C   C27       1.0  0.23665999999999998  0.8474700000000002  0.25676  1.0000
  C   C28       1.0  0.28742  0.8645200000000002  0.2865  1.0000
  N   N13       1.0  0.30831  0.7850600000000001  0.36104  1.0000
  N   N14       1.0  0.1995  0.9966000000000003  0.3022399999999999  1.0000
  N   N15       1.0  0.17026  0.08209000000000002  0.28777999999999987  1.0000
  H   H11       1.0  0.22332  0.7923800000000002  0.30892  1.0000
  H   H12       1.0  0.23547  0.81428  0.19858  1.0000
  H   H13       1.0  0.28556  0.93601  0.30962  1.0000
  H   H14       1.0  0.30974  0.7144400000000001  0.3446499999999999  1.0000
  H   H15       1.0  0.34321999999999997  0.7943700000000001  0.3791599999999999  1.0000
  C   C29       1.0  0.8298600000000002  0.32877  0.9876599999999998  1.0000
  N   N16       1.0  0.82365  0.23879000000000006  0.0407900000000001  1.0000
  N   N17       1.0  0.7904200000000002  0.18586  0.01706999999999992  1.0000
  C   C30       1.0  0.763  0.21966  0.9402  1.0000
  C   C31       1.0  0.72563  0.15844000000000005  0.9135299999999997  1.0000
  C   C32       1.0  0.73115  0.12090000000000004  0.8289699999999998  1.0000
  N   N18       1.0  0.74214  0.009620000000000073  0.8469999999999998  1.0000
  N   N19       1.0  0.76898  0.31044  0.8880299999999999  1.0000
  N   N20       1.0  0.802  0.36332  0.9112999999999998  1.0000
  H   H16       1.0  0.72067  0.09686000000000008  0.9688099999999997  1.0000
  H   H17       1.0  0.69243  0.21103  0.90292  1.0000
  H   H18       1.0  0.6962100000000001  0.14206000000000008  0.7908199999999997  1.0000
  H   H19       1.0  0.7118  0.9788500000000002  0.83167  1.0000
  H   H20       1.0  0.75348  0.9775900000000001  0.9122199999999998  1.0000
  C   C33       1.0  0.52766  0.6633100000000003  0.19488999999999995  1.0000
  N   N21       1.0  0.53176  0.5624200000000003  0.19513  1.0000
  N   N22       1.0  0.56126  0.49391000000000007  0.2549299999999999  1.0000
  C   C34       1.0  0.58745  0.5254600000000001  0.3163899999999999  1.0000
  C   C35       1.0  0.61513  0.44961000000000007  0.3913899999999999  1.0000
  C   C36       1.0  0.58766  0.4381000000000002  0.4712599999999999  1.0000
  N   N23       1.0  0.56787  0.3412800000000001  0.48617  1.0000
  N   N24       1.0  0.58413  0.62639  0.31528  1.0000
  N   N25       1.0  0.55469  0.6939800000000003  0.2558  1.0000
  H   H21       1.0  0.6217200000000002  0.3741200000000002  0.3739599999999999  1.0000
  H   H22       1.0  0.6498499999999999  0.4753400000000001  0.40372999999999987  1.0000
  H   H23       1.0  0.55773  0.5006500000000002  0.4584799999999999  1.0000
  H   H24       1.0  0.5471700000000002  0.3379300000000002  0.42974999999999997  1.0000
  H   H25       1.0  0.54476  0.3418700000000002  0.5328199999999997  1.0000
  C   C37       1.0  0.93978  0.8739000000000002  0.004639999999999977  1.0000
  N   N26       1.0  0.91321  0.95994  0.9562999999999998  1.0000
  N   N27       1.0  0.9206100000000002  0.051490000000000105  0.9695599999999998  1.0000
  C   C38       1.0  0.95503  0.06050000000000001  0.030550000000000074  1.0000
  C   C39       1.0  0.96568  0.16476000000000002  0.03963999999999989  1.0000
  C   C40       1.0  0.98043  0.17249000000000006  0.13402999999999998  1.0000
  N   N28       1.0  0.024250000000000004  0.10794  0.17203  1.0000
  N   N29       1.0  0.98181  0.97415  0.07783999999999998  1.0000
  N   N30       1.0  0.9742200000000002  0.8832000000000001  0.06485  1.0000
  H   H26       1.0  0.9937000000000001  0.18658000000000005  0.9991299999999997  1.0000
  H   H27       1.0  0.93395  0.21944000000000013  0.012099999999999778  1.0000
  H   H28       1.0  0.95267  0.14889  0.17424  1.0000
  H   H29       1.0  0.04594  0.10180999999999997  0.12419000000000002  1.0000
  H   H30       1.0  0.017879999999999997  0.03525000000000001  0.20319999999999994  1.0000
  C   C41       1.0  0.53769  0.2192600000000001  0.77497  1.0000
  N   N31       1.0  0.52273  0.14773  0.73496  1.0000
  N   N32       1.0  0.4881200000000001  0.09675000000000011  0.7623799999999997  1.0000
  C   C42       1.0  0.46720000000000006  0.1151899999999999  0.83106  1.0000
  C   C43       1.0  0.42955  0.052980000000000256  0.8623399999999998  1.0000
  C   C44       1.0  0.40303  0.0904700000000003  0.93163  1.0000
  N   N33       1.0  0.35947000000000007  0.04306000000000013  0.9385699999999999  1.0000
  N   N34       1.0  0.48158999999999996  0.18872000000000003  0.86981  1.0000
  N   N35       1.0  0.5166500000000002  0.2383  0.84312  1.0000
  H   H31       1.0  0.40435000000000004  0.05701000000000002  0.80434  1.0000
  H   H32       1.0  0.44479  0.9717200000000001  0.8866699999999997  1.0000
  H   H33       1.0  0.3937  0.17538000000000015  0.9105999999999999  1.0000
  H   H34       1.0  0.3422200000000001  0.05088000000000029  0.8769199999999998  1.0000
  H   H35       1.0  0.3369200000000001  0.08496000000000017  0.9696699999999999  1.0000
  C   C45       1.0  0.020679999999999997  0.46916  0.48573  1.0000
  N   N36       1.0  0.05661999999999999  0.42003000000000007  0.54634  1.0000
  N   N37       1.0  0.06269999999999998  0.44430000000000025  0.6233099999999998  1.0000
  C   C46       1.0  0.032849999999999976  0.5173700000000002  0.6428399999999997  1.0000
  C   C47       1.0  0.04050999999999998  0.5392900000000002  0.7316999999999998  1.0000
  C   C48       1.0  0.006759999999999868  0.6308300000000001  0.7444499999999997  1.0000
  N   N38       1.0  0.028629999999999937  0.72477  0.74087  1.0000
  N   N39       1.0  0.99646  0.5649300000000003  0.58236  1.0000
  N   N40       1.0  0.9904599999999999  0.5412300000000001  0.50533  1.0000
  H   H36       1.0  0.03982999999999998  0.46806000000000014  0.7830399999999997  1.0000
  H   H37       1.0  0.07709999999999999  0.5572400000000001  0.74004  1.0000
  H   H38       1.0  0.97765  0.6495100000000001  0.6909499999999997  1.0000
  H   H39       1.0  0.06406  0.7161900000000001  0.73476  1.0000
  H   H40       1.0  0.024480000000000047  0.7562900000000002  0.7942599999999997  1.0000
