data_image0
_chemical_formula_structural       EuOCO6COC2EuOCO6COC2EuOCO6COC2EuOCO6COC5ClC7OC8ClH8C3ClC7OC8ClH8C3ClC7OC8ClH8C3ClC7OC8ClH8C3ClC7OC8ClH8C3ClC7OC8ClH8C3ClC7OC8ClH8C3ClC7OC8ClH8
_chemical_formula_sum              "Eu4 O40 C160 Cl16 H64"
_cell_length_a       47.764
_cell_length_b       28.159700000000004
_cell_length_c       17.395700000000005
_cell_angle_alpha    89.9307
_cell_angle_beta     89.4493
_cell_angle_gamma    87.05229999999999

_space_group_name_H-M_alt    "P 1"
_space_group_IT_number       1

loop_
  _space_group_symop_operation_xyz
  'x, y, z'

loop_
  _atom_site_type_symbol
  _atom_site_label
  _atom_site_symmetry_multiplicity
  _atom_site_fract_x
  _atom_site_fract_y
  _atom_site_fract_z
  _atom_site_occupancy
  Eu  Eu1       1.0  0.39075  0.7495099999999999  0.21772999999999995  1.0000
  O   O1        1.0  0.33973  0.78827  0.15519  1.0000
  C   C1        1.0  0.34902999999999995  0.67232  0.20035  1.0000
  O   O2        1.0  0.3944999999999999  0.79008  0.06534999999999998  1.0000
  O   O3        1.0  0.41656999999999994  0.80967  0.17328  1.0000
  O   O4        1.0  0.45351  0.7368499999999998  0.24403  1.0000
  O   O5        1.0  0.3500299999999999  0.6916599999999999  0.1378  1.0000
  O   O6        1.0  0.3647199999999999  0.6891499999999999  0.26030999999999993  1.0000
  O   O7        1.0  0.35881999999999986  0.8036899999999998  0.26927  1.0000
  C   C2        1.0  0.33722  0.8089399999999999  0.21648  1.0000
  O   O8        1.0  0.41695999999999994  0.74087  0.32581999999999994  1.0000
  C   C3        1.0  0.44332999999999995  0.7223799999999999  0.30348  1.0000
  C   C4        1.0  0.41081  0.8159999999999997  0.09572  1.0000
  Eu  Eu2       1.0  0.89415  0.7422599999999998  0.8063599999999997  1.0000
  O   O9        1.0  0.85328  0.8143  0.8606599999999998  1.0000
  C   C5        1.0  0.86146  0.65351  0.84401  1.0000
  O   O10       1.0  0.9149399999999998  0.7972999999999999  0.94101  1.0000
  O   O11       1.0  0.92888  0.7944299999999997  0.81702  1.0000
  O   O12       1.0  0.9256  0.6511899999999998  0.76998  1.0000
  O   O13       1.0  0.8804399999999999  0.65232  0.89036  1.0000
  O   O14       1.0  0.8585799999999999  0.6918099999999998  0.7937099999999998  1.0000
  O   O15       1.0  0.86846  0.7987899999999998  0.7407699999999998  1.0000
  C   C6        1.0  0.85194  0.8251399999999998  0.79288  1.0000
  O   O16       1.0  0.91373  0.71388  0.69455  1.0000
  C   C7        1.0  0.92589  0.66848  0.70577  1.0000
  C   C8        1.0  0.9291199999999997  0.8141599999999998  0.89024  1.0000
  Eu  Eu3       1.0  0.11478  0.25616  0.21571  1.0000
  O   O17       1.0  0.17365  0.24228999999999995  0.31561  1.0000
  C   C9        1.0  0.16647999999999996  0.30728  0.18384999999999996  1.0000
  O   O18       1.0  0.11967999999999998  0.1914  0.09376999999999998  1.0000
  O   O19       1.0  0.0854  0.19855  0.18237  1.0000
  O   O20       1.0  0.06288999999999999  0.31648  0.18839  1.0000
  O   O21       1.0  0.16423999999999997  0.27648999999999996  0.13545  1.0000
  O   O22       1.0  0.14542999999999998  0.3135599999999999  0.23915  1.0000
  O   O23       1.0  0.13237999999999997  0.20706  0.31081  1.0000
  C   C10       1.0  0.16153999999999993  0.20537999999999998  0.31458  1.0000
  O   O24       1.0  0.08302999999999998  0.29162  0.29862  1.0000
  C   C11       1.0  0.06399  0.3207099999999999  0.25794999999999996  1.0000
  C   C12       1.0  0.09754999999999998  0.17698999999999995  0.11743999999999999  1.0000
  Eu  Eu4       1.0  0.60497  0.26125  0.76801  1.0000
  O   O25       1.0  0.62994  0.16496  0.8015  1.0000
  C   C13       1.0  0.65059  0.33324  0.8061  1.0000
  O   O26       1.0  0.58029  0.21285999999999997  0.91212  1.0000
  O   O27       1.0  0.57148  0.20716999999999994  0.78539  1.0000
  O   O28       1.0  0.57105  0.34972  0.75382  1.0000
  O   O29       1.0  0.63905  0.3305599999999999  0.8685899999999998  1.0000
  O   O30       1.0  0.6387999999999999  0.3132799999999999  0.74185  1.0000
  O   O31       1.0  0.63027  0.20838  0.69291  1.0000
  C   C14       1.0  0.64052  0.17098  0.73848  1.0000
  O   O32       1.0  0.58041  0.2920999999999999  0.6666099999999998  1.0000
  C   C15       1.0  0.5682899999999999  0.33614  0.68797  1.0000
  C   C16       1.0  0.56918  0.19144  0.86084  1.0000
  C   C17       1.0  0.33136  0.6314  0.21127999999999997  1.0000
  C   C18       1.0  0.3053  0.63164  0.17448999999999998  1.0000
  C   C19       1.0  0.28906  0.5918  0.17701  1.0000
  Cl  Cl1       1.0  0.25736  0.5937399999999998  0.12587  1.0000
  C   C20       1.0  0.29901999999999995  0.55057  0.21603  1.0000
  C   C21       1.0  0.2848  0.50556  0.20932  1.0000
  C   C22       1.0  0.29845  0.46726  0.16875999999999994  1.0000
  C   C23       1.0  0.28484  0.4251299999999999  0.15605  1.0000
  C   C24       1.0  0.25781  0.42239  0.18544999999999998  1.0000
  C   C25       1.0  0.24434999999999998  0.4586399999999999  0.22657999999999995  1.0000
  C   C26       1.0  0.25746  0.50102  0.23951999999999998  1.0000
  O   O33       1.0  0.21843000000000007  0.44900999999999996  0.24781999999999998  1.0000
  C   C27       1.0  0.21547999999999998  0.40592  0.21896  1.0000
  C   C28       1.0  0.19139  0.37984999999999997  0.22288  1.0000
  C   C29       1.0  0.19156999999999996  0.33563999999999994  0.1842  1.0000
  C   C30       1.0  0.21605999999999997  0.31856  0.14396999999999996  1.0000
  C   C31       1.0  0.24011999999999997  0.3449  0.14196999999999996  1.0000
  C   C32       1.0  0.23896  0.3882799999999999  0.17998  1.0000
  C   C33       1.0  0.3246099999999999  0.55076  0.25484  1.0000
  C   C34       1.0  0.34067  0.59091  0.25353  1.0000
  Cl  Cl2       1.0  0.37327  0.58728  0.30029999999999996  1.0000
  H   H1        1.0  0.29779999999999995  0.6626899999999998  0.14236999999999997  1.0000
  H   H2        1.0  0.31935  0.4706599999999999  0.14538  1.0000
  H   H3        1.0  0.29489  0.39618  0.12349  1.0000
  H   H4        1.0  0.24664999999999995  0.52994  0.2704499999999999  1.0000
  H   H5        1.0  0.17291999999999996  0.39400999999999997  0.25332  1.0000
  H   H6        1.0  0.21651999999999993  0.28479  0.11413  1.0000
  H   H7        1.0  0.25875  0.33211  0.11093  1.0000
  H   H8        1.0  0.3325  0.5189699999999999  0.28435  1.0000
  C   C35       1.0  0.8331399999999999  0.8659199999999998  0.76822  1.0000
  C   C36       1.0  0.8221699999999998  0.8974899999999999  0.82486  1.0000
  C   C37       1.0  0.80351  0.9353999999999998  0.8061499999999999  1.0000
  Cl  Cl3       1.0  0.7916899999999999  0.9740099999999998  0.88072  1.0000
  C   C38       1.0  0.7952499999999998  0.9425099999999998  0.7292899999999998  1.0000
  C   C39       1.0  0.7741  0.9803899999999998  0.70825  1.0000
  C   C40       1.0  0.7804299999999997  0.014989999999999996  0.6522099999999997  1.0000
  C   C41       1.0  0.7608899999999998  0.052479999999999985  0.63494  1.0000
  C   C42       1.0  0.73535  0.05399  0.67436  1.0000
  C   C43       1.0  0.7287099999999999  0.02024  0.72793  1.0000
  C   C44       1.0  0.74757  0.9824999999999998  0.74501  1.0000
  O   O34       1.0  0.70414  0.029359999999999994  0.76219  1.0000
  C   C45       1.0  0.6949899999999999  0.06975999999999999  0.72975  1.0000
  C   C46       1.0  0.6705799999999997  0.09608  0.74985  1.0000
  C   C47       1.0  0.6647199999999999  0.14019999999999996  0.7130099999999999  1.0000
  C   C48       1.0  0.68334  0.15613999999999997  0.65552  1.0000
  C   C49       1.0  0.7079799999999999  0.12907  0.63639  1.0000
  C   C50       1.0  0.7131400000000001  0.08627999999999997  0.67518  1.0000
  C   C51       1.0  0.8068099999999999  0.9122399999999998  0.67201  1.0000
  C   C52       1.0  0.8254899999999998  0.8740699999999999  0.69063  1.0000
  Cl  Cl4       1.0  0.8372899999999999  0.8366199999999998  0.61465  1.0000
  H   H9        1.0  0.8281299999999998  0.8928  0.8844499999999998  1.0000
  H   H10       1.0  0.8006899999999999  0.01351  0.62356  1.0000
  H   H11       1.0  0.76585  0.07978999999999999  0.59389  1.0000
  H   H12       1.0  0.74209  0.9561799999999998  0.7873199999999999  1.0000
  H   H13       1.0  0.65695  0.08321  0.79456  1.0000
  H   H14       1.0  0.6793099999999999  0.19016999999999995  0.62759  1.0000
  H   H15       1.0  0.72271  0.14169  0.59431  1.0000
  H   H16       1.0  0.80068  0.9176  0.61263  1.0000
  C   C53       1.0  0.17743  0.15885  0.3188399999999999  1.0000
  C   C54       1.0  0.16376  0.11944999999999999  0.34746  1.0000
  C   C55       1.0  0.17704  0.07401999999999997  0.34742  1.0000
  Cl  Cl5       1.0  0.15872999999999998  0.0268  0.38667  1.0000
  C   C56       1.0  0.20447999999999994  0.06712999999999998  0.31755  1.0000
  C   C57       1.0  0.21777  0.01897  0.30576  1.0000
  C   C58       1.0  0.20376  0.9854499999999998  0.26131  1.0000
  C   C59       1.0  0.21702999999999997  0.94155  0.24166999999999997  1.0000
  C   C60       1.0  0.24426  0.9323299999999998  0.26706  1.0000
  C   C61       1.0  0.25832  0.9639399999999999  0.31063  1.0000
  C   C62       1.0  0.24546  0.00788  0.33101  1.0000
  O   O35       1.0  0.28468999999999994  0.9492999999999998  0.32457  1.0000
  C   C63       1.0  0.28735  0.9077099999999998  0.28849  1.0000
  C   C64       1.0  0.31192  0.87881  0.28075  1.0000
  C   C65       1.0  0.31146  0.83829  0.23286000000000004  1.0000
  C   C66       1.0  0.28622  0.8271299999999998  0.19607  1.0000
  C   C67       1.0  0.26171  0.8559899999999998  0.20596999999999993  1.0000
  C   C68       1.0  0.26318  0.8959099999999999  0.25223  1.0000
  C   C69       1.0  0.21859  0.10667  0.29155  1.0000
  C   C70       1.0  0.20541  0.1522  0.29177  1.0000
  Cl  Cl6       1.0  0.22421999999999995  0.19869999999999993  0.25188  1.0000
  H   H17       1.0  0.14252  0.12386999999999997  0.36969  1.0000
  H   H18       1.0  0.1829399999999999  0.99408  0.23961  1.0000
  H   H19       1.0  0.20666999999999994  0.91641  0.20609  1.0000
  H   H20       1.0  0.25685  0.03327999999999999  0.3634099999999999  1.0000
  H   H21       1.0  0.33107999999999993  0.8887699999999998  0.30781999999999987  1.0000
  H   H22       1.0  0.28565  0.79636  0.15890999999999994  1.0000
  H   H23       1.0  0.24261  0.8481299999999998  0.17666  1.0000
  H   H24       1.0  0.23960999999999993  0.10179999999999997  0.26777  1.0000
  C   C71       1.0  0.8414399999999999  0.6150399999999998  0.84093  1.0000
  C   C72       1.0  0.8141399999999999  0.62599  0.81433  1.0000
  C   C73       1.0  0.79472  0.5906999999999998  0.80775  1.0000
  Cl  Cl7       1.0  0.7610799999999998  0.6066999999999998  0.77259  1.0000
  C   C74       1.0  0.8025799999999998  0.5433199999999999  0.82654  1.0000
  C   C75       1.0  0.78378  0.50443  0.81175  1.0000
  C   C76       1.0  0.78998  0.4729899999999999  0.74968  1.0000
  C   C77       1.0  0.772  0.43675  0.73203  1.0000
  C   C78       1.0  0.7482499999999999  0.4327499999999999  0.77806  1.0000
  C   C79       1.0  0.7420499999999999  0.46239999999999987  0.83942  1.0000
  C   C80       1.0  0.75958  0.4989  0.85763  1.0000
  O   O36       1.0  0.7182499999999998  0.45295  0.8750599999999997  1.0000
  C   C81       1.0  0.70916  0.4167199999999999  0.8351599999999999  1.0000
  C   C82       1.0  0.68422  0.39395999999999987  0.84818  1.0000
  C   C83       1.0  0.6771199999999999  0.3574899999999999  0.79707  1.0000
  C   C84       1.0  0.69549  0.3445  0.7350999999999998  1.0000
  C   C85       1.0  0.7206799999999998  0.3672199999999999  0.72395  1.0000
  C   C86       1.0  0.7267  0.40316999999999986  0.775  1.0000
  C   C87       1.0  0.82965  0.53222  0.8536799999999998  1.0000
  C   C88       1.0  0.8490099999999999  0.56752  0.86156  1.0000
  Cl  Cl8       1.0  0.88291  0.54958  0.89282  1.0000
  H   H25       1.0  0.8078599999999999  0.6621499999999999  0.79826  1.0000
  H   H26       1.0  0.80847  0.47726999999999997  0.71435  1.0000
  H   H27       1.0  0.7764200000000001  0.41310999999999987  0.68393  1.0000
  H   H28       1.0  0.7544699999999999  0.52259  0.90528  1.0000
  H   H29       1.0  0.6704399999999998  0.40505  0.89531  1.0000
  H   H30       1.0  0.69037  0.31661  0.69559  1.0000
  H   H31       1.0  0.7347199999999998  0.3573699999999999  0.6767299999999999  1.0000
  H   H32       1.0  0.8358800000000001  0.4956899999999999  0.86761  1.0000
  C   C89       1.0  0.4571999999999999  0.6819999999999999  0.34595  1.0000
  C   C90       1.0  0.4411099999999999  0.6560699999999998  0.39788  1.0000
  C   C91       1.0  0.45195  0.61368  0.43076  1.0000
  Cl  Cl9       1.0  0.43  0.5811499999999998  0.49069  1.0000
  C   C92       1.0  0.47932  0.59656  0.4120499999999999  1.0000
  C   C93       1.0  0.49056  0.5496799999999998  0.43853  1.0000
  C   C94       1.0  0.49530999999999986  0.51257  0.38427999999999995  1.0000
  C   C95       1.0  0.50705  0.46811  0.40701  1.0000
  C   C96       1.0  0.51393  0.46222  0.48406999999999994  1.0000
  C   C97       1.0  0.50964  0.4978899999999999  0.53762  1.0000
  C   C98       1.0  0.49775  0.54224  0.51635  1.0000
  O   O37       1.0  0.51869  0.48559  0.60709  1.0000
  C   C99       1.0  0.52889  0.44124  0.59719  1.0000
  C   C100      1.0  0.54199  0.4125099999999999  0.6529  1.0000
  C   C101      1.0  0.55285  0.3665699999999999  0.6316  1.0000
  C   C102      1.0  0.54959  0.35052  0.55506  1.0000
  C   C103      1.0  0.53629  0.3800699999999999  0.49984999999999996  1.0000
  C   C104      1.0  0.52641  0.42517  0.52308  1.0000
  C   C105      1.0  0.49587  0.62319  0.36311  1.0000
  C   C106      1.0  0.48526  0.66571  0.3305799999999999  1.0000
  Cl  Cl10      1.0  0.50815  0.6966199999999998  0.27083  1.0000
  H   H33       1.0  0.41958  0.66757  0.41059999999999997  1.0000
  H   H34       1.0  0.49003999999999986  0.5183599999999999  0.32446  1.0000
  H   H35       1.0  0.51096  0.4397699999999999  0.36572  1.0000
  H   H36       1.0  0.49474999999999997  0.5704499999999998  0.5583499999999998  1.0000
  H   H37       1.0  0.5441500000000001  0.4259399999999999  0.71072  1.0000
  H   H38       1.0  0.5576  0.31544  0.53784  1.0000
  H   H39       1.0  0.5340899999999998  0.3682299999999999  0.44115  1.0000
  H   H40       1.0  0.51709  0.61034  0.34921  1.0000
  C   C107      1.0  0.94699  0.8542499999999997  0.90718  1.0000
  C   C108      1.0  0.9594299999999999  0.8568899999999998  0.9798299999999999  1.0000
  C   C109      1.0  0.97782  0.8924999999999997  0.9967099999999999  1.0000
  Cl  Cl11      1.0  0.99467  0.89029  0.08633  1.0000
  C   C110      1.0  0.9836399999999997  0.9270399999999998  0.94086  1.0000
  C   C111      1.0  0.00480999999999998  0.96287  0.9533399999999999  1.0000
  C   C112      1.0  0.02735000000000001  0.9655599999999998  0.9001  1.0000
  C   C113      1.0  0.04793000000000001  0.9986899999999999  0.9098999999999998  1.0000
  C   C114      1.0  0.04525  0.02884  0.97304  1.0000
  C   C115      1.0  0.023459999999999998  0.027529999999999995  0.025109999999999993  1.0000
  C   C116      1.0  0.002769999999999723  0.9945799999999998  0.01663  1.0000
  O   O38       1.0  0.02482  0.05978  0.08058  1.0000
  C   C117      1.0  0.04804  0.08177999999999998  0.06312  1.0000
  C   C118      1.0  0.059189999999999986  0.11915  0.10389  1.0000
  C   C119      1.0  0.08448  0.13777999999999999  0.07677  1.0000
  C   C120      1.0  0.09762  0.11839  0.00932  1.0000
  C   C121      1.0  0.086  0.08119  0.96928  1.0000
  C   C122      1.0  0.06126999999999999  0.06395999999999999  0.9979399999999999  1.0000
  C   C123      1.0  0.9703999999999998  0.9254599999999997  0.8692499999999997  1.0000
  C   C124      1.0  0.9522599999999999  0.8895799999999998  0.85203  1.0000
  Cl  Cl12      1.0  0.9358199999999999  0.89162  0.76176  1.0000
  H   H41       1.0  0.9555999999999999  0.83011  0.022890000000000073  1.0000
  H   H42       1.0  0.02903  0.94166  0.85133  1.0000
  H   H43       1.0  0.0652  0.0007099999999999999  0.8694699999999997  1.0000
  H   H44       1.0  0.98556  0.9937499999999998  0.0575  1.0000
  H   H45       1.0  0.04859999999999999  0.13317  0.15492999999999996  1.0000
  H   H46       1.0  0.11695  0.13204  0.98758  1.0000
  H   H47       1.0  0.09605  0.0664  0.91801  1.0000
  H   H48       1.0  0.97435  0.95226  0.82626  1.0000
  C   C125      1.0  0.55277  0.14952  0.87846  1.0000
  C   C126      1.0  0.53642  0.14902  0.9459800000000002  1.0000
  C   C127      1.0  0.51899  0.11159  0.9615199999999999  1.0000
  Cl  Cl13      1.0  0.49655999999999995  0.11670999999999997  0.04238  1.0000
  C   C128      1.0  0.51839  0.07289  0.9101799999999998  1.0000
  C   C129      1.0  0.49914999999999987  0.033729999999999996  0.9214099999999998  1.0000
  C   C130      1.0  0.48115999999999987  0.0218  0.8606699999999998  1.0000
  C   C131      1.0  0.46279  0.98482  0.86898  1.0000
  C   C132      1.0  0.46291  0.9605099999999998  0.9385399999999999  1.0000
  C   C133      1.0  0.48018  0.9711599999999998  0.9982699999999999  1.0000
  C   C134      1.0  0.49879  0.007599999999999999  0.99102  1.0000
  O   O39       1.0  0.47673  0.94395  0.05974  1.0000
  C   C135      1.0  0.45684  0.9156  0.03825999999999999  1.0000
  C   C136      1.0  0.44517  0.88026  0.08289999999999997  1.0000
  C   C137      1.0  0.42393999999999993  0.8534699999999997  0.05046  1.0000
  C   C138      1.0  0.41516999999999993  0.8629599999999998  0.97391  1.0000
  C   C139      1.0  0.42709  0.89877  0.9302799999999999  1.0000
  C   C140      1.0  0.44777  0.9242399999999998  0.96452  1.0000
  C   C141      1.0  0.53549  0.07267  0.8440999999999999  1.0000
  C   C142      1.0  0.5523999999999999  0.11049999999999997  0.8276499999999998  1.0000
  Cl  Cl14      1.0  0.57335  0.10646  0.7437499999999998  1.0000
  H   H49       1.0  0.53632  0.1788  0.9853499999999998  1.0000
  H   H50       1.0  0.48126  0.04148  0.8071599999999998  1.0000
  H   H51       1.0  0.44894999999999996  0.97582  0.82291  1.0000
  H   H52       1.0  0.51261  0.01533  0.03784  1.0000
  H   H53       1.0  0.45239999999999997  0.8738399999999997  0.14096999999999996  1.0000
  H   H54       1.0  0.39896999999999994  0.8428599999999998  0.9481099999999999  1.0000
  H   H55       1.0  0.4203299999999999  0.9062399999999998  0.8721  1.0000
  H   H56       1.0  0.53551  0.04290999999999998  0.8046199999999999  1.0000
  C   C143      1.0  0.04669  0.35825  0.29835  1.0000
  C   C144      1.0  0.05723  0.37811  0.36553  1.0000
  C   C145      1.0  0.04286  0.41624999999999995  0.4025999999999999  1.0000
  Cl  Cl15      1.0  0.058700000000000016  0.4415599999999999  0.48278999999999994  1.0000
  C   C146      1.0  0.01729  0.4351  0.37281  1.0000
  C   C147      1.0  0.0023000000000000017  0.47733999999999993  0.40717999999999993  1.0000
  C   C148      1.0  0.99648  0.51821  0.36111999999999994  1.0000
  C   C149      1.0  0.9829299999999999  0.5592099999999999  0.39263999999999993  1.0000
  C   C150      1.0  0.9754  0.55804  0.47001999999999994  1.0000
  C   C151      1.0  0.98047  0.5186  0.51556  1.0000
  C   C152      1.0  0.99381  0.4774199999999999  0.48532  1.0000
  O   O40       1.0  0.97184  0.525  0.58774  1.0000
  C   C153      1.0  0.96114  0.56946  0.58779  1.0000
  C   C154      1.0  0.9492999999999998  0.5938699999999998  0.6508299999999998  1.0000
  C   C155      1.0  0.9388999999999997  0.64149  0.6406599999999998  1.0000
  C   C156      1.0  0.9409099999999999  0.66316  0.5672299999999999  1.0000
  C   C157      1.0  0.9529899999999999  0.6379299999999999  0.5046  1.0000
  C   C158      1.0  0.9627799999999997  0.5912399999999998  0.51722  1.0000
  C   C159      1.0  0.006390000000000001  0.41464  0.30675  1.0000
  C   C160      1.0  0.02069  0.37640999999999997  0.26975  1.0000
  Cl  Cl16      1.0  0.004659999999999999  0.35169  0.18938  1.0000
  H   H57       1.0  0.07727  0.36503999999999986  0.38801  1.0000
  H   H58       1.0  0.002840000000000001  0.5184  0.30119  1.0000
  H   H59       1.0  0.9787499999999999  0.5906699999999999  0.35796  1.0000
  H   H60       1.0  0.99763  0.4464399999999999  0.52139  1.0000
  H   H61       1.0  0.9481399999999999  0.57623  0.7060299999999999  1.0000
  H   H62       1.0  0.9331899999999997  0.69955  0.5584  1.0000
  H   H63       1.0  0.9546099999999998  0.6543499999999999  0.44856  1.0000
  H   H64       1.0  0.98659  0.42853  0.28382  1.0000
