data_image0
_chemical_formula_structural       EuOCO6COC2EuOCO6COC2EuOCO6COC2EuOCO6COC10N2CN2C5H18C8N2CN2C5H18C8N2CN2C5H18C8N2CN2C5H18C8N2CN2C5H18C8N2CN2C5H18C8N2CN2C5H18C8N2CN2C5H18
_chemical_formula_sum              "Eu4 O32 C128 N32 H144"
_cell_length_a       38.5028
_cell_length_b       20.993
_cell_length_c       12.3633
_cell_angle_alpha    89.7573
_cell_angle_beta     87.5714
_cell_angle_gamma    89.098

_space_group_name_H-M_alt    "P 1"
_space_group_IT_number       1

loop_
  _space_group_symop_operation_xyz
  'x, y, z'

loop_
  _atom_site_type_symbol
  _atom_site_label
  _atom_site_symmetry_multiplicity
  _atom_site_fract_x
  _atom_site_fract_y
  _atom_site_fract_z
  _atom_site_occupancy
  Eu  Eu1       1.0  0.38766  0.74268  0.26348  1.0000
  O   O1        1.0  0.34871  0.8659200000000001  0.23897  1.0000
  C   C1        1.0  0.33777  0.64249  0.16997  1.0000
  O   O2        1.0  0.42955  0.8192  0.09055  1.0000
  O   O3        1.0  0.42095000000000005  0.83123  0.27132  1.0000
  O   O4        1.0  0.46458  0.71696  0.30646  1.0000
  O   O5        1.0  0.34565000000000007  0.6722600000000001  0.08808  1.0000
  O   O6        1.0  0.35423  0.65395  0.26565  1.0000
  O   O7        1.0  0.34576  0.79153  0.37123  1.0000
  C   C2        1.0  0.33346000000000003  0.8462000000000002  0.32051  1.0000
  O   O8        1.0  0.41524  0.70061  0.40747  1.0000
  C   C3        1.0  0.44952000000000003  0.68562  0.3764600000000001  1.0000
  C   C4        1.0  0.43378  0.85146  0.17044  1.0000
  Eu  Eu2       1.0  0.8861600000000001  0.75306  0.77837  1.0000
  O   O9        1.0  0.80658  0.76744  0.7213399999999999  1.0000
  C   C5        1.0  0.8312  0.65663  0.83863  1.0000
  O   O10       1.0  0.9495599999999998  0.78816  0.90396  1.0000
  O   O11       1.0  0.91397  0.84643  0.80006  1.0000
  O   O12       1.0  0.93177  0.6361  0.76772  1.0000
  O   O13       1.0  0.8287700000000002  0.6989400000000001  0.90586  1.0000
  O   O14       1.0  0.857  0.6603300000000001  0.75697  1.0000
  O   O15       1.0  0.85669  0.80433  0.64626  1.0000
  C   C6        1.0  0.8217199999999999  0.8113500000000001  0.67711  1.0000
  O   O16       1.0  0.92831  0.7206  0.6551700000000001  1.0000
  C   C7        1.0  0.9404000000000001  0.65991  0.68093  1.0000
  C   C8        1.0  0.94184  0.84008  0.8668600000000001  1.0000
  Eu  Eu3       1.0  0.10881  0.24222  0.23342999999999997  1.0000
  O   O17       1.0  0.15602  0.14082  0.16172  1.0000
  C   C9        1.0  0.17093  0.33272000000000007  0.21432  1.0000
  O   O18       1.0  0.07015  0.24496000000000004  0.0309  1.0000
  O   O19       1.0  0.06678  0.17793000000000003  0.17344  1.0000
  O   O20       1.0  0.04105  0.31552  0.23835  1.0000
  O   O21       1.0  0.16475  0.32266  0.12018  1.0000
  O   O22       1.0  0.15122  0.30411  0.29697  1.0000
  O   O23       1.0  0.13113  0.15904  0.32719999999999994  1.0000
  C   C10       1.0  0.15496  0.1277  0.2579  1.0000
  O   O24       1.0  0.07333000000000003  0.278  0.37325  1.0000
  C   C11       1.0  0.049530000000000005  0.32103000000000004  0.33156  1.0000
  C   C12       1.0  0.058210000000000005  0.1962  0.06983  1.0000
  Eu  Eu4       1.0  0.6199  0.25328  0.77209  1.0000
  O   O25       1.0  0.68711  0.18484  0.7986800000000001  1.0000
  C   C13       1.0  0.65559  0.36239  0.87252  1.0000
  O   O26       1.0  0.55234  0.23853000000000005  0.8927  1.0000
  O   O27       1.0  0.58247  0.17057  0.7823  1.0000
  O   O28       1.0  0.57747  0.3725  0.7570299999999999  1.0000
  O   O29       1.0  0.63415  0.34252000000000005  0.93906  1.0000
  O   O30       1.0  0.65743  0.33595  0.7696  1.0000
  O   O31       1.0  0.65486  0.19732  0.6523700000000001  1.0000
  C   C14       1.0  0.68176  0.16847  0.7065800000000001  1.0000
  O   O32       1.0  0.59076  0.29668000000000005  0.63298  1.0000
  C   C15       1.0  0.5744  0.35328  0.66527  1.0000
  C   C16       1.0  0.55749  0.18368  0.8637  1.0000
  C   C17       1.0  0.30949  0.59573  0.17159  1.0000
  C   C18       1.0  0.31348  0.53662  0.11562000000000001  1.0000
  C   C19       1.0  0.34449  0.52232  0.03771  1.0000
  C   C20       1.0  0.33307  0.5240300000000001  0.9206000000000001  1.0000
  C   C21       1.0  0.36254  0.4583  0.06188  1.0000
  C   C22       1.0  0.288  0.4897  0.13302  1.0000
  C   C23       1.0  0.25996  0.4996900000000001  0.20649  1.0000
  C   C24       1.0  0.23692  0.4473  0.23963  1.0000
  N   N1        1.0  0.23067  0.43105000000000004  0.34418  1.0000
  N   N2        1.0  0.20694000000000004  0.38613000000000003  0.3462700000000001  1.0000
  C   C25       1.0  0.19873000000000002  0.37556  0.243  1.0000
  N   N3        1.0  0.21735  0.41292000000000006  0.17421  1.0000
  N   N4        1.0  0.21296  0.42101  0.06266  1.0000
  C   C26       1.0  0.25555  0.55834  0.25787  1.0000
  C   C27       1.0  0.27929  0.60759  0.23915  1.0000
  C   C28       1.0  0.27165000000000006  0.67228  0.2921  1.0000
  C   C29       1.0  0.27328  0.6676  0.41559000000000007  1.0000
  C   C30       1.0  0.23652000000000004  0.69992  0.25862  1.0000
  H   H1        1.0  0.3647  0.5589  0.04431  1.0000
  H   H2        1.0  0.31313  0.48750000000000004  0.9075600000000001  1.0000
  H   H3        1.0  0.35574  0.5146200000000001  0.86404  1.0000
  H   H4        1.0  0.32206  0.57174  0.90125  1.0000
  H   H5        1.0  0.3679  0.45426  0.14901  1.0000
  H   H6        1.0  0.34657  0.41732  0.03894  1.0000
  H   H7        1.0  0.38771000000000005  0.45489  0.01464  1.0000
  H   H8        1.0  0.29096  0.44374  0.09413000000000002  1.0000
  H   H9        1.0  0.20614000000000002  0.46872000000000014  0.049370000000000004  1.0000
  H   H10       1.0  0.23693000000000003  0.41201000000000004  0.02248  1.0000
  H   H11       1.0  0.23333  0.56542  0.31345  1.0000
  H   H12       1.0  0.29119  0.70777  0.26472  1.0000
  H   H13       1.0  0.29922  0.64899  0.43756  1.0000
  H   H14       1.0  0.25304  0.63553  0.45064  1.0000
  H   H15       1.0  0.26936  0.71549  0.4523  1.0000
  H   H16       1.0  0.23556  0.70079  0.16895  1.0000
  H   H17       1.0  0.21450000000000002  0.67147  0.29222  1.0000
  H   H18       1.0  0.23313  0.74964  0.28806  1.0000
  C   C31       1.0  0.80311  0.87262  0.66328  1.0000
  C   C32       1.0  0.79806  0.89846  0.55849  1.0000
  C   C33       1.0  0.81314  0.86667  0.45547  1.0000
  C   C34       1.0  0.83907  0.9103100000000001  0.39538  1.0000
  C   C35       1.0  0.78439  0.84642  0.38111  1.0000
  C   C36       1.0  0.7776  0.95428  0.54904  1.0000
  C   C37       1.0  0.76111  0.9830300000000001  0.63971  1.0000
  C   C38       1.0  0.73661  0.03731  0.62549  1.0000
  N   N5        1.0  0.71801  0.0456399999999999  0.5362  1.0000
  N   N6        1.0  0.6966  0.09493  0.5544  1.0000
  C   C39       1.0  0.70241  0.11662999999999997  0.6544100000000002  1.0000
  N   N7        1.0  0.72746  0.08166000000000001  0.70035  1.0000
  N   N8        1.0  0.74306  0.09245  0.7994  1.0000
  C   C40       1.0  0.7662699999999999  0.9571000000000002  0.74225  1.0000
  C   C41       1.0  0.78812  0.90384  0.75634  1.0000
  C   C42       1.0  0.79497  0.8812700000000002  0.87173  1.0000
  C   C43       1.0  0.76235  0.85201  0.92583  1.0000
  C   C44       1.0  0.8088500000000001  0.9350500000000002  0.94099  1.0000
  H   H19       1.0  0.8276899999999999  0.82234  0.47432  1.0000
  H   H20       1.0  0.82585  0.95303  0.36207  1.0000
  H   H21       1.0  0.85227  0.88385  0.3275  1.0000
  H   H22       1.0  0.85919  0.92599  0.45089  1.0000
  H   H23       1.0  0.76591  0.81467  0.42574  1.0000
  H   H24       1.0  0.7698700000000002  0.8882700000000001  0.35001000000000004  1.0000
  H   H25       1.0  0.79594  0.81967  0.31066  1.0000
  H   H26       1.0  0.77363  0.9745300000000002  0.46979  1.0000
  H   H27       1.0  0.72373  0.08959  0.8611100000000002  1.0000
  H   H28       1.0  0.75266  0.13873  0.79739  1.0000
  H   H29       1.0  0.7523900000000001  0.9768600000000002  0.8121300000000001  1.0000
  H   H30       1.0  0.8156200000000001  0.8438200000000001  0.8714  1.0000
  H   H31       1.0  0.75318  0.8123800000000001  0.8755900000000001  1.0000
  H   H32       1.0  0.74108  0.88806  0.93672  1.0000
  H   H33       1.0  0.76846  0.83226  0.006520000000000081  1.0000
  H   H34       1.0  0.8318000000000001  0.9569200000000001  0.89876  1.0000
  H   H35       1.0  0.78875  0.9726100000000001  0.9580500000000001  1.0000
  H   H36       1.0  0.8172199999999998  0.9154700000000002  0.019589999999999996  1.0000
  C   C45       1.0  0.18016  0.08145  0.30023  1.0000
  C   C46       1.0  0.16983  0.01835  0.32644  1.0000
  C   C47       1.0  0.13175000000000003  0.9982500000000001  0.326  1.0000
  C   C48       1.0  0.11881000000000001  0.9760700000000001  0.4389  1.0000
  C   C49       1.0  0.1259  0.94749  0.23996  1.0000
  C   C50       1.0  0.19555999999999998  0.9730600000000001  0.35261000000000003  1.0000
  C   C51       1.0  0.23056  0.98968  0.35651000000000005  1.0000
  C   C52       1.0  0.25728  0.9402800000000001  0.3782400000000001  1.0000
  N   N9        1.0  0.25111  0.8895500000000001  0.44342  1.0000
  N   N10       1.0  0.2787  0.8512100000000001  0.43412  1.0000
  C   C53       1.0  0.30152  0.87835  0.36257  1.0000
  N   N11       1.0  0.28887  0.93452  0.32738  1.0000
  N   N12       1.0  0.30404  0.9731900000000002  0.24515  1.0000
  C   C54       1.0  0.23994  0.05292000000000001  0.33878  1.0000
  C   C55       1.0  0.21547  0.09915000000000003  0.30798  1.0000
  C   C56       1.0  0.22783000000000003  0.16644000000000003  0.28005  1.0000
  C   C57       1.0  0.2514100000000001  0.16589000000000004  0.17699  1.0000
  C   C58       1.0  0.24620000000000003  0.19708  0.37396  1.0000
  H   H37       1.0  0.11463  0.039060000000000004  0.30546  1.0000
  H   H38       1.0  0.13256  0.9320200000000001  0.46456000000000003  1.0000
  H   H39       1.0  0.09049  0.96658  0.43971  1.0000
  H   H40       1.0  0.12301  0.01412  0.49893000000000004  1.0000
  H   H41       1.0  0.13526  0.9650600000000001  0.15918  1.0000
  H   H42       1.0  0.13962  0.90205  0.25822  1.0000
  H   H43       1.0  0.09764  0.93795  0.23584  1.0000
  H   H44       1.0  0.18844  0.924  0.3672  1.0000
  H   H45       1.0  0.28439  0.9885800000000001  0.19493000000000002  1.0000
  H   H46       1.0  0.31423  0.013070000000000139  0.28221  1.0000
  H   H47       1.0  0.26663  0.0661  0.34732  1.0000
  H   H48       1.0  0.20555  0.19869  0.26366  1.0000
  H   H49       1.0  0.23722  0.14621  0.10852  1.0000
  H   H50       1.0  0.27526  0.13652000000000003  0.18844  1.0000
  H   H51       1.0  0.25920000000000004  0.21525  0.15544  1.0000
  H   H52       1.0  0.22990999999999995  0.1933  0.44995  1.0000
  H   H53       1.0  0.27195  0.17417  0.38600000000000007  1.0000
  H   H54       1.0  0.25035  0.24846000000000001  0.35632  1.0000
  C   C59       1.0  0.80681  0.60276  0.84649  1.0000
  C   C60       1.0  0.80264  0.56939  0.9466900000000001  1.0000
  C   C61       1.0  0.8277400000000001  0.57664  0.03838000000000008  1.0000
  C   C62       1.0  0.8434  0.5120300000000001  0.07145  1.0000
  C   C63       1.0  0.80976  0.61026  0.13591  1.0000
  C   C64       1.0  0.7743300000000001  0.52864  0.9628600000000002  1.0000
  C   C65       1.0  0.75154  0.51698  0.88081  1.0000
  C   C66       1.0  0.72017  0.47924000000000005  0.90615  1.0000
  N   N13       1.0  0.70258  0.48265  0.002729999999999899  1.0000
  N   N14       1.0  0.67688  0.44160000000000005  0.0007500000000000284  1.0000
  C   C67       1.0  0.67899  0.41324000000000005  0.90305  1.0000
  N   N15       1.0  0.70564  0.43616  0.84153  1.0000
  N   N16       1.0  0.71852  0.41179000000000004  0.7416699999999999  1.0000
  C   C68       1.0  0.7572299999999998  0.54577  0.77983  1.0000
  C   C69       1.0  0.78444  0.58899  0.7605600000000001  1.0000
  C   C70       1.0  0.78748  0.62119  0.64925  1.0000
  C   C71       1.0  0.75432  0.6593200000000001  0.6244  1.0000
  C   C72       1.0  0.79624  0.57224  0.55997  1.0000
  H   H55       1.0  0.85029  0.60595  0.012159999999999949  1.0000
  H   H56       1.0  0.82347  0.48074  0.11023  1.0000
  H   H57       1.0  0.86409  0.5192500000000001  0.12993  1.0000
  H   H58       1.0  0.85527  0.4874  0.99927  1.0000
  H   H59       1.0  0.79891  0.6571  0.11063  1.0000
  H   H60       1.0  0.7882800000000001  0.58122  0.17162  1.0000
  H   H61       1.0  0.8287599999999999  0.61872  0.19923000000000002  1.0000
  H   H62       1.0  0.76974  0.50595  0.04085000000000005  1.0000
  H   H63       1.0  0.7144  0.44629  0.6824100000000001  1.0000
  H   H64       1.0  0.74527  0.40363  0.7465100000000001  1.0000
  H   H65       1.0  0.7390500000000001  0.53786  0.7175  1.0000
  H   H66       1.0  0.8088  0.65567  0.64495  1.0000
  H   H67       1.0  0.7470800000000001  0.69207  0.69233  1.0000
  H   H68       1.0  0.7321500000000001  0.62745  0.61102  1.0000
  H   H69       1.0  0.75885  0.68849  0.55  1.0000
  H   H70       1.0  0.82079  0.54643  0.57749  1.0000
  H   H71       1.0  0.77517  0.53707  0.55349  1.0000
  H   H72       1.0  0.7999700000000001  0.5966700000000001  0.48046  1.0000
  C   C73       1.0  0.46643999999999997  0.62796  0.41957000000000005  1.0000
  C   C74       1.0  0.45724000000000004  0.5672400000000001  0.38005  1.0000
  C   C75       1.0  0.42869  0.55904  0.29906  1.0000
  C   C76       1.0  0.39837000000000006  0.52062  0.34853000000000006  1.0000
  C   C77       1.0  0.44305  0.5284  0.19372999999999999  1.0000
  C   C78       1.0  0.47552  0.51295  0.41434  1.0000
  C   C79       1.0  0.50246  0.5173700000000001  0.48588  1.0000
  C   C80       1.0  0.52288  0.4594  0.51115  1.0000
  N   N17       1.0  0.5288  0.41163  0.43981  1.0000
  N   N18       1.0  0.54816  0.36790000000000006  0.48756  1.0000
  C   C81       1.0  0.55376  0.38919  0.58782  1.0000
  N   N19       1.0  0.5382  0.44653000000000004  0.6049  1.0000
  N   N20       1.0  0.53572  0.4822500000000001  0.70085  1.0000
  C   C82       1.0  0.51098  0.57699  0.52624  1.0000
  C   C83       1.0  0.49313  0.63276  0.49506  1.0000
  C   C84       1.0  0.50294  0.69645  0.54386  1.0000
  C   C85       1.0  0.54018  0.71463  0.50845  1.0000
  C   C86       1.0  0.49795  0.6952400000000001  0.6677700000000001  1.0000
  H   H73       1.0  0.41758  0.6056800000000001  0.27518  1.0000
  H   H74       1.0  0.40612  0.47002  0.36119  1.0000
  H   H75       1.0  0.37628  0.52231  0.29365  1.0000
  H   H76       1.0  0.38921  0.54144  0.42734  1.0000
  H   H77       1.0  0.4658300000000001  0.5552400000000001  0.16105  1.0000
  H   H78       1.0  0.45096  0.47796  0.20677  1.0000
  H   H79       1.0  0.42282  0.52971  0.13244  1.0000
  H   H80       1.0  0.4690500000000001  0.46659  0.38372000000000006  1.0000
  H   H81       1.0  0.56095  0.4929700000000001  0.72208  1.0000
  H   H82       1.0  0.52453  0.45347000000000004  0.76169  1.0000
  H   H83       1.0  0.53228  0.5804900000000001  0.57997  1.0000
  H   H84       1.0  0.4857600000000001  0.73549  0.51562  1.0000
  H   H85       1.0  0.54308  0.71496  0.41863000000000006  1.0000
  H   H86       1.0  0.55959  0.68067  0.54092  1.0000
  H   H87       1.0  0.5459  0.76322  0.5376  1.0000
  H   H88       1.0  0.47091  0.68133  0.69092  1.0000
  H   H89       1.0  0.51624  0.6610400000000001  0.70517  1.0000
  H   H90       1.0  0.50232  0.7433  0.70143  1.0000
  C   C87       1.0  0.9618000000000001  0.8971600000000001  0.89153  1.0000
  C   C88       1.0  0.98159  0.92794  0.80739  1.0000
  C   C89       1.0  0.98703  0.89902  0.69445  1.0000
  C   C90       1.0  0.025480000000000006  0.8827300000000001  0.6696099999999999  1.0000
  C   C91       1.0  0.97265  0.9433100000000002  0.60754  1.0000
  C   C92       1.0  0.9966900000000001  0.9869400000000002  0.82858  1.0000
  C   C93       1.0  0.99281  0.015400000000000004  0.9302500000000001  1.0000
  C   C94       1.0  0.0072099999999999395  0.07928000000000002  0.94688  1.0000
  N   N21       1.0  0.006490000000000108  0.12593  0.87159  1.0000
  N   N22       1.0  0.02392  0.17454  0.90904  1.0000
  C   C95       1.0  0.03526  0.15701000000000004  0.0066  1.0000
  N   N23       1.0  0.024900000000000002  0.09777000000000001  0.03298  1.0000
  N   N24       1.0  0.03682  0.059910000000000005  0.11832  1.0000
  C   C96       1.0  0.97387  0.9844700000000002  0.01306  1.0000
  C   C97       1.0  0.95824  0.92544  0.9957800000000001  1.0000
  C   C98       1.0  0.93635  0.8958000000000002  0.08831  1.0000
  C   C99       1.0  0.90466  0.93814  0.11822  1.0000
  C   C100      1.0  0.9581200000000001  0.88306  0.18743000000000004  1.0000
  H   H91       1.0  0.97306  0.85348  0.6882900000000001  1.0000
  H   H92       1.0  0.041659999999999996  0.9260900000000001  0.66864  1.0000
  H   H93       1.0  0.02872000000000008  0.85932  0.58922  1.0000
  H   H94       1.0  0.034949999999999995  0.84915  0.7319500000000001  1.0000
  H   H95       1.0  0.9449800000000002  0.95543  0.62829  1.0000
  H   H96       1.0  0.9877100000000001  0.9879300000000002  0.60045  1.0000
  H   H97       1.0  0.97417  0.9193500000000001  0.52745  1.0000
  H   H98       1.0  0.01152  0.011400000000000002  0.76515  1.0000
  H   H99       1.0  0.015610000000000002  0.050349999999999895  0.17094  1.0000
  H   H100      1.0  0.04617  0.01673  0.08579  1.0000
  H   H101      1.0  0.9697699999999999  0.007949999999999902  0.09016  1.0000
  H   H102      1.0  0.9260100000000001  0.8490800000000001  0.06506  1.0000
  H   H103      1.0  0.8895500000000001  0.9482300000000001  0.04538  1.0000
  H   H104      1.0  0.91258  0.98391  0.15356  1.0000
  H   H105      1.0  0.88753  0.9133800000000001  0.1785  1.0000
  H   H106      1.0  0.98159  0.85405  0.16394  1.0000
  H   H107      1.0  0.9664300000000001  0.9282600000000001  0.22398000000000004  1.0000
  H   H108      1.0  0.94258  0.8563000000000001  0.24973  1.0000
  C   C101      1.0  0.53927  0.13145  0.92113  1.0000
  C   C102      1.0  0.54809  0.11571  0.028680000000000004  1.0000
  C   C103      1.0  0.57844  0.14664  0.0836  1.0000
  C   C104      1.0  0.60565  0.09674000000000002  0.11629999999999999  1.0000
  C   C105      1.0  0.56547  0.18638000000000002  0.18135  1.0000
  C   C106      1.0  0.52838  0.07007  0.08653  1.0000
  C   C107      1.0  0.50106  0.03874  0.03967  1.0000
  C   C108      1.0  0.48003  0.9933200000000001  0.10584  1.0000
  N   N25       1.0  0.47276  0.0016499999999999295  0.21259  1.0000
  N   N26       1.0  0.45507  0.95145  0.24771  1.0000
  C   C109      1.0  0.45185  0.9126100000000001  0.16237000000000001  1.0000
  N   N27       1.0  0.46691000000000005  0.9378200000000002  0.072  1.0000
  N   N28       1.0  0.47352  0.9064700000000001  0.97283  1.0000
  C   C110      1.0  0.4930300000000001  0.05339000000000001  0.9331300000000001  1.0000
  C   C111      1.0  0.51196  0.09893  0.872  1.0000
  C   C112      1.0  0.50191  0.1127  0.75582  1.0000
  C   C113      1.0  0.46474000000000004  0.13987000000000002  0.75284  1.0000
  C   C114      1.0  0.50613  0.05274  0.68564  1.0000
  H   H109      1.0  0.59252  0.17973  0.02774  1.0000
  H   H110      1.0  0.59515  0.06461  0.18085  1.0000
  H   H111      1.0  0.6287500000000001  0.12080000000000002  0.14695  1.0000
  H   H112      1.0  0.61428  0.06768  0.04495  1.0000
  H   H113      1.0  0.54603  0.22248000000000004  0.15582  1.0000
  H   H114      1.0  0.55333  0.15589000000000003  0.24558  1.0000
  H   H115      1.0  0.58751  0.21181000000000003  0.21588  1.0000
  H   H116      1.0  0.53443  0.05853000000000001  0.16915  1.0000
  H   H117      1.0  0.45755  0.9273200000000003  0.9160000000000001  1.0000
  H   H118      1.0  0.49945000000000006  0.91396  0.94805  1.0000
  H   H119      1.0  0.47109  0.03091  0.89852  1.0000
  H   H120      1.0  0.51905  0.149  0.71717  1.0000
  H   H121      1.0  0.46209000000000006  0.18302  0.80444  1.0000
  H   H122      1.0  0.44538000000000005  0.10438000000000001  0.78199  1.0000
  H   H123      1.0  0.4588  0.15365  0.6686500000000001  1.0000
  H   H124      1.0  0.53293  0.03284  0.69036  1.0000
  H   H125      1.0  0.48736000000000007  0.01565  0.7124  1.0000
  H   H126      1.0  0.50161  0.06466000000000001  0.59969  1.0000
  C   C115      1.0  0.03715  0.37700000000000006  0.39461  1.0000
  C   C116      1.0  0.054630000000000005  0.43579000000000007  0.37997  1.0000
  C   C117      1.0  0.08914  0.44118  0.31498  1.0000
  C   C118      1.0  0.11777  0.46509  0.38660000000000005  1.0000
  C   C119      1.0  0.08539  0.48411  0.21523  1.0000
  C   C120      1.0  0.03951  0.4913  0.42557000000000006  1.0000
  C   C121      1.0  0.008030000000000002  0.4898600000000001  0.48556  1.0000
  C   C122      1.0  0.99106  0.55089  0.51828  1.0000
  N   N29       1.0  0.9923300000000002  0.60343  0.45507  1.0000
  N   N30       1.0  0.97435  0.64912  0.50699  1.0000
  C   C123      1.0  0.96252  0.6242700000000001  0.60188  1.0000
  N   N31       1.0  0.97231  0.56269  0.61102  1.0000
  N   N32       1.0  0.96836  0.52416  0.70389  1.0000
  C   C124      1.0  0.99174  0.43152  0.50406  1.0000
  C   C125      1.0  0.005910000000000003  0.37451  0.46003  1.0000
  C   C126      1.0  0.98687  0.31215  0.48227  1.0000
  C   C127      1.0  0.95099  0.31286  0.43273  1.0000
  C   C128      1.0  0.9835800000000001  0.29801  0.60413  1.0000
  H   H127      1.0  0.09826000000000001  0.3940500000000001  0.28426  1.0000
  H   H128      1.0  0.11204999999999998  0.51425  0.41568  1.0000
  H   H129      1.0  0.14312  0.46522  0.34047  1.0000
  H   H130      1.0  0.12023000000000002  0.43313000000000007  0.45780000000000004  1.0000
  H   H131      1.0  0.06418  0.46665  0.16546  1.0000
  H   H132      1.0  0.07947  0.5342400000000002  0.23869  1.0000
  H   H133      1.0  0.10992  0.48319  0.16457  1.0000
  H   H134      1.0  0.05204000000000001  0.53667  0.4125  1.0000
  H   H135      1.0  0.94938  0.4906  0.68977  1.0000
  H   H136      1.0  0.9919600000000001  0.50037  0.71573  1.0000
  H   H137      1.0  0.9670000000000001  0.43055  0.54839  1.0000
  H   H138      1.0  0.0016200000000000003  0.27133  0.44539  1.0000
  H   H139      1.0  0.9536  0.32363  0.34476  1.0000
  H   H140      1.0  0.9333300000000001  0.34887  0.4724  1.0000
  H   H141      1.0  0.93892  0.26533  0.44287  1.0000
  H   H142      1.0  0.009630000000000027  0.29813  0.63936  1.0000
  H   H143      1.0  0.9666000000000001  0.33381  0.64714  1.0000
  H   H144      1.0  0.97217  0.25026  0.6182  1.0000
