data_image0
_chemical_formula_structural       EuOCO6COC2EuOCO6COC2EuOCO6COC2EuOCO6COC5FCFC2FCFH2C3FCFC2FCFH2C3FCFC2FCFH2C3FCFC2FCFH2C3FCFC2FCFH2C3FCFC2FCFH2C3FCFC2FCFH2C3FCFC2FCFH2
_chemical_formula_sum              "Eu4 O32 C72 F32 H16"
_cell_length_a       25.3742
_cell_length_b       17.3671
_cell_length_c       9.1771
_cell_angle_alpha    92.4294
_cell_angle_beta     97.9524
_cell_angle_gamma    83.9164

_space_group_name_H-M_alt    "P 1"
_space_group_IT_number       1

loop_
  _space_group_symop_operation_xyz
  'x, y, z'

loop_
  _atom_site_type_symbol
  _atom_site_label
  _atom_site_symmetry_multiplicity
  _atom_site_fract_x
  _atom_site_fract_y
  _atom_site_fract_z
  _atom_site_occupancy
  Eu  Eu1       1.0  0.39368  0.68244  0.9174800000000001  1.0000
  O   O1        1.0  0.3460200000000001  0.84753  0.83936  1.0000
  C   C1        1.0  0.30996  0.60226  0.70523  1.0000
  O   O2        1.0  0.5079799999999999  0.72125  0.90662  1.0000
  O   O3        1.0  0.43917  0.78491  0.00574  1.0000
  O   O4        1.0  0.37724  0.52489  0.08442  1.0000
  O   O5        1.0  0.29986999999999997  0.67056  0.67563  1.0000
  O   O6        1.0  0.34867000000000004  0.58037  0.8230999999999999  1.0000
  O   O7        1.0  0.3145500000000001  0.7524599999999999  0.9505199999999999  1.0000
  C   C2        1.0  0.31428  0.82984  0.91702  1.0000
  O   O8        1.0  0.39977  0.64564  0.15601  1.0000
  C   C3        1.0  0.38011  0.57585  0.17954  1.0000
  C   C4        1.0  0.48740000000000006  0.78311  0.94893  1.0000
  Eu  Eu2       1.0  0.9002800000000001  0.74366  0.9888999999999999  1.0000
  O   O9        1.0  0.8489500000000001  0.90707  0.94806  1.0000
  C   C5        1.0  0.78661  0.73053  0.05668000000000007  1.0000
  O   O10       1.0  0.05858000000000009  0.77981  0.1903300000000001  1.0000
  O   O11       1.0  0.9916200000000002  0.73047  0.03909999999999991  1.0000
  O   O12       1.0  0.94968  0.57089  0.9779900000000001  1.0000
  O   O13       1.0  0.74267  0.75906  0.08308000000000004  1.0000
  O   O14       1.0  0.80922  0.7591  0.9428099999999999  1.0000
  O   O15       1.0  0.90345  0.83155  0.81375  1.0000
  C   C6        1.0  0.87079  0.89927  0.83691  1.0000
  O   O16       1.0  0.9051499999999999  0.6512  0.80625  1.0000
  C   C7        1.0  0.94425  0.59159  0.85099  1.0000
  C   C8        1.0  0.010769999999999946  0.78412  0.1451800000000001  1.0000
  Eu  Eu3       1.0  0.09327000000000003  0.28957  0.13514  1.0000
  O   O17       1.0  0.12615  0.12325  0.01977  1.0000
  C   C9        1.0  0.16806  0.34712  0.93413  1.0000
  O   O18       1.0  0.009849999999999994  0.18782  0.99533  1.0000
  O   O19       1.0  0.04719  0.20227  0.2296  1.0000
  O   O20       1.0  0.06026  0.44678  0.25526  1.0000
  O   O21       1.0  0.16629000000000002  0.27903  0.8977999999999999  1.0000
  O   O22       1.0  0.13993  0.37819  0.04627  1.0000
  O   O23       1.0  0.16853000000000007  0.20548  0.18083  1.0000
  C   C10       1.0  0.15773000000000004  0.13145  0.13046  1.0000
  O   O24       1.0  0.11160999999999997  0.34468  0.36308  1.0000
  C   C11       1.0  0.09046  0.42195  0.3624  1.0000
  C   C12       1.0  0.020490000000000005  0.15992  0.11677  1.0000
  Eu  Eu4       1.0  0.60109  0.29636  0.9421300000000001  1.0000
  O   O25       1.0  0.7176  0.24904999999999997  0.9969800000000001  1.0000
  C   C13       1.0  0.6736200000000001  0.41925  0.07834999999999992  1.0000
  O   O26       1.0  0.6215600000000001  0.11243  0.023470000000000102  1.0000
  O   O27       1.0  0.55017  0.19553  0.93857  1.0000
  O   O28       1.0  0.54079  0.4492399999999999  0.87101  1.0000
  O   O29       1.0  0.6605  0.38939  0.18384  1.0000
  O   O30       1.0  0.6521600000000001  0.39638  0.93764  1.0000
  O   O31       1.0  0.6568  0.22278  0.80512  1.0000
  C   C14       1.0  0.7074200000000002  0.21028  0.8852700000000001  1.0000
  O   O32       1.0  0.5484  0.33958999999999995  0.73436  1.0000
  C   C15       1.0  0.52634  0.41518  0.75651  1.0000
  C   C16       1.0  0.58178  0.12516  0.9329700000000001  1.0000
  C   C17       1.0  0.28208999999999995  0.54168  0.6118  1.0000
  C   C18       1.0  0.25442  0.49166999999999994  0.70177  1.0000
  C   C19       1.0  0.21322  0.52466  0.77952  1.0000
  F   F1        1.0  0.1988  0.60224  0.7777499999999999  1.0000
  C   C20       1.0  0.18616  0.47794  0.85827  1.0000
  F   F2        1.0  0.14564  0.5119  0.92877  1.0000
  C   C21       1.0  0.1988  0.39687  0.85743  1.0000
  C   C22       1.0  0.24015  0.36402  0.77973  1.0000
  F   F3        1.0  0.25386  0.28629  0.77717  1.0000
  C   C23       1.0  0.26782  0.41095  0.70336  1.0000
  F   F4        1.0  0.30721  0.37704  0.6288  1.0000
  H   H1        1.0  0.25219000000000014  0.56904  0.52422  1.0000
  H   H2        1.0  0.31268  0.50621  0.55644  1.0000
  C   C24       1.0  0.86278  0.96121  0.72374  1.0000
  C   C25       1.0  0.82306  0.02821000000000007  0.75995  1.0000
  C   C26       1.0  0.83724  0.08039  0.87601  1.0000
  F   F5        1.0  0.8868200000000002  0.07220000000000004  0.95413  1.0000
  C   C27       1.0  0.80013  0.1401  0.91572  1.0000
  F   F6        1.0  0.8153500000000001  0.18777  0.031649999999999956  1.0000
  C   C28       1.0  0.7479500000000001  0.14969  0.83801  1.0000
  C   C29       1.0  0.73439  0.09874  0.71828  1.0000
  F   F7        1.0  0.6849000000000001  0.10586  0.63919  1.0000
  C   C30       1.0  0.7715700000000001  0.03862  0.67969  1.0000
  F   F8        1.0  0.7566800000000001  0.98956  0.56581  1.0000
  H   H3        1.0  0.90176  0.98284  0.71412  1.0000
  H   H4        1.0  0.8491200000000002  0.93372  0.61583  1.0000
  C   C31       1.0  0.18242  0.06249  0.2172  1.0000
  C   C32       1.0  0.2136  0.00332  0.12797  1.0000
  C   C33       1.0  0.20142  0.92588  0.11422000000000002  1.0000
  F   F9        1.0  0.15995  0.9035  0.1755  1.0000
  C   C34       1.0  0.23344  0.86986  0.04296  1.0000
  F   F10       1.0  0.22089  0.79557  0.03472  1.0000
  C   C35       1.0  0.27772  0.8903399999999999  0.98143  1.0000
  C   C36       1.0  0.28851  0.96855  0.9905400000000001  1.0000
  F   F11       1.0  0.33035000000000003  0.9913899999999999  0.93185  1.0000
  C   C37       1.0  0.25726  0.024079999999999997  0.06474  1.0000
  F   F12       1.0  0.27052  0.09806  0.07795  1.0000
  H   H5        1.0  0.15002  0.037009999999999994  0.26229  1.0000
  H   H6        1.0  0.20999  0.08195  0.31248  1.0000
  C   C38       1.0  0.81552  0.66444  0.1455200000000001  1.0000
  C   C39       1.0  0.78167  0.59728  0.13244999999999996  1.0000
  C   C40       1.0  0.7699600000000001  0.5592  0.9953599999999999  1.0000
  F   F13       1.0  0.79127  0.57973  0.87656  1.0000
  C   C41       1.0  0.73516  0.50128  0.9780499999999999  1.0000
  F   F14       1.0  0.7243300000000003  0.46731999999999996  0.84243  1.0000
  C   C42       1.0  0.71193  0.47906  0.09874000000000005  1.0000
  C   C43       1.0  0.7252800000000003  0.51543  0.23770000000000005  1.0000
  F   F15       1.0  0.70394  0.496  0.35719999999999996  1.0000
  C   C44       1.0  0.7596699999999998  0.57413  0.25401000000000007  1.0000
  F   F16       1.0  0.7702700000000002  0.60965  0.38805  1.0000
  H   H7        1.0  0.8542  0.64526  0.10468999999999995  1.0000
  H   H8        1.0  0.82487  0.6849  0.26183  1.0000
  C   C45       1.0  0.36155  0.56384  0.32315  1.0000
  C   C46       1.0  0.4063000000000001  0.5265  0.43118  1.0000
  C   C47       1.0  0.4241  0.44757  0.41478  1.0000
  F   F17       1.0  0.40157  0.40441999999999995  0.30044  1.0000
  C   C48       1.0  0.4636800000000001  0.41166  0.51861  1.0000
  F   F18       1.0  0.47949000000000014  0.33539  0.49818  1.0000
  C   C49       1.0  0.48595  0.45397  0.64231  1.0000
  C   C50       1.0  0.46798  0.53312  0.65795  1.0000
  F   F19       1.0  0.48762000000000005  0.57609  0.77579  1.0000
  C   C51       1.0  0.42904  0.56908  0.55287  1.0000
  F   F20       1.0  0.41277  0.64529  0.57197  1.0000
  H   H9        1.0  0.32838  0.52678  0.3025  1.0000
  H   H10       1.0  0.3445600000000002  0.62043  0.36666  1.0000
  C   C52       1.0  0.9731499999999998  0.84605  0.20676000000000005  1.0000
  C   C53       1.0  0.9880800000000001  0.92662  0.18536  1.0000
  C   C54       1.0  0.9943600000000001  0.95021  0.044499999999999984  1.0000
  F   F21       1.0  0.99117  0.89984  0.9272199999999999  1.0000
  C   C55       1.0  0.004359999999999999  0.02596  0.022210000000000063  1.0000
  F   F22       1.0  0.010420000000000009  0.04591  0.88437  1.0000
  C   C56       1.0  0.008870000000000001  0.08003999999999999  0.14086  1.0000
  C   C57       1.0  0.004169999999999999  0.05614999999999999  0.2828  1.0000
  F   F23       1.0  0.00772  0.10702  0.39917  1.0000
  C   C58       1.0  0.9936100000000001  0.9802799999999999  0.30483  1.0000
  F   F24       1.0  0.98702  0.9602899999999999  0.44195000000000007  1.0000
  H   H11       1.0  0.9318200000000002  0.84196  0.15107000000000004  1.0000
  H   H12       1.0  0.97317  0.83493  0.32509  1.0000
  C   C59       1.0  0.56851  0.06740999999999998  0.81067  1.0000
  C   C60       1.0  0.55145  0.99457  0.86577  1.0000
  C   C61       1.0  0.50244  0.9968500000000001  0.9213000000000001  1.0000
  F   F25       1.0  0.47191  0.06528999999999999  0.9345200000000001  1.0000
  C   C62       1.0  0.48311  0.92847  0.9564500000000001  1.0000
  F   F26       1.0  0.43512  0.9335900000000001  0.00717  1.0000
  C   C63       1.0  0.51202  0.85594  0.9344200000000001  1.0000
  C   C64       1.0  0.56273  0.85422  0.8872599999999999  1.0000
  F   F27       1.0  0.59325  0.7860099999999998  0.87053  1.0000
  C   C65       1.0  0.58214  0.92287  0.85281  1.0000
  F   F28       1.0  0.63022  0.91878  0.80204  1.0000
  H   H13       1.0  0.53562  0.09379999999999998  0.72986  1.0000
  H   H14       1.0  0.6038500000000002  0.05456999999999999  0.75147  1.0000
  C   C66       1.0  0.10682999999999998  0.47530000000000006  0.48889  1.0000
  C   C67       1.0  0.06053  0.50163  0.57174  1.0000
  C   C68       1.0  0.04787000000000008  0.45555  0.68179  1.0000
  F   F29       1.0  0.07370999999999994  0.38371  0.70425  1.0000
  C   C69       1.0  0.009160000000000055  0.48372999999999994  0.77079  1.0000
  F   F30       1.0  0.99927  0.43891  0.88  1.0000
  C   C70       1.0  0.98134  0.55779  0.74834  1.0000
  C   C71       1.0  0.99166  0.60158  0.63103  1.0000
  F   F31       1.0  0.96547  0.67293  0.60432  1.0000
  C   C72       1.0  0.03126  0.57411  0.54481  1.0000
  F   F32       1.0  0.041360000000000015  0.6185099999999999  0.43502  1.0000
  H   H15       1.0  0.14  0.44558  0.56389  1.0000
  H   H16       1.0  0.12305999999999999  0.5255699999999999  0.44648  1.0000
