data_image0
_chemical_formula_structural       EuOCO6COC2EuOCO6COC2EuOCO6COC2EuOCO6COC2EuOCO6COC2EuOCO6COC2EuOCO6COC2EuOCO6COC6ClCClC2ClCClH4C4ClCClC2ClCClH4C4ClCClC2ClCClH4C4ClCClC2ClCClH4C4ClCClC2ClCClH4C4ClCClC2ClCClH4C4ClCClC2ClCClH4C4ClCClC2ClCClH4C4ClCClC2ClCClH4C4ClCClC2ClCClH4C4ClCClC2ClCClH4C4ClCClC2ClCClH4C4ClCClC2ClCClH4C4ClCClC2ClCClH4C4ClCClC2ClCClH4C4ClCClC2ClCClH4
_chemical_formula_sum              "Eu8 O64 C160 Cl64 H64"
_cell_length_a       39.5995
_cell_length_b       25.759699999999995
_cell_length_c       27.731400000000004
_cell_angle_alpha    90.158
_cell_angle_beta     87.8331
_cell_angle_gamma    85.59420000000001

_symmetry_space_group_name_H-M    'P 1'
_symmetry_Int_Tables_number       1

loop_
  _symmetry_equiv_pos_as_xyz
  'x,y,z'

loop_
  _atom_site_type_symbol
  _atom_site_label
  _atom_site_symmetry_multiplicity
  _atom_site_fract_x
  _atom_site_fract_y
  _atom_site_fract_z
  _atom_site_occupancy
  Eu  Eu1       1.0  0.12072  0.62834  0.11164  1.0000
  O   O1        1.0  0.07131  0.71784  0.09062  1.0000
  C   C1        1.0  0.06373999999999999  0.57338  0.07017  1.0000
  O   O2        1.0  0.1827  0.63225  0.05054  1.0000
  O   O3        1.0  0.16108  0.68662  0.10933  1.0000
  O   O4        1.0  0.16025999999999999  0.52589  0.12102999999999998  1.0000
  O   O5        1.0  0.07243999999999999  0.60429  0.03983999999999999  1.0000
  O   O6        1.0  0.08036000000000001  0.57012  0.11336  1.0000
  O   O7        1.0  0.08696  0.68195  0.16148  1.0000
  C   C2        1.0  0.06709000000000002  0.7170699999999999  0.13443  1.0000
  O   O8        1.0  0.1454499999999999  0.58921  0.17616  1.0000
  C   C3        1.0  0.16307  0.54257  0.16183  1.0000
  C   C4        1.0  0.1852  0.67233  0.0731  1.0000
  Eu  Eu2       1.0  0.37726000000000004  0.88838  0.88382  1.0000
  O   O9        1.0  0.42146000000000006  0.90438  0.79633  1.0000
  C   C5        1.0  0.4371699999999999  0.92266  0.93638  1.0000
  O   O10       1.0  0.31464000000000003  0.9577899999999998  0.86886  1.0000
  O   O11       1.0  0.34008  0.89282  0.8229299999999998  1.0000
  O   O12       1.0  0.31893999999999995  0.88717  0.9554399999999998  1.0000
  O   O13       1.0  0.43385  0.95032  0.9010599999999999  1.0000
  O   O14       1.0  0.4149  0.88419  0.94415  1.0000
  O   O15       1.0  0.4125700000000001  0.83163  0.83896  1.0000
  C   C6        1.0  0.42823000000000006  0.85773  0.8014  1.0000
  O   O16       1.0  0.3501500000000001  0.82142  0.91677  1.0000
  C   C7        1.0  0.32252000000000003  0.84076  0.9457599999999998  1.0000
  C   C8        1.0  0.31468  0.93231  0.8318  1.0000
  Eu  Eu3       1.0  0.1251  0.12427999999999997  0.59982  1.0000
  O   O17       1.0  0.060329999999999995  0.18823  0.58417  1.0000
  C   C9        1.0  0.07049  0.06565  0.55576  1.0000
  O   O18       1.0  0.17803  0.13843  0.52406  1.0000
  O   O19       1.0  0.16811  0.17805999999999997  0.59654  1.0000
  O   O20       1.0  0.18831  0.053669999999999995  0.6112  1.0000
  O   O21       1.0  0.08515000000000002  0.08637  0.52245  1.0000
  O   O22       1.0  0.08209  0.07044  0.60211  1.0000
  O   O23       1.0  0.09345999999999999  0.18219  0.6485199999999999  1.0000
  C   C10       1.0  0.06424  0.20067  0.62587  1.0000
  O   O24       1.0  0.14797  0.08512999999999998  0.66585  1.0000
  C   C11       1.0  0.17953999999999998  0.05999  0.65363  1.0000
  C   C12       1.0  0.18695  0.16945  0.55349  1.0000
  Eu  Eu4       1.0  0.87041  0.8969699999999998  0.38637  1.0000
  O   O25       1.0  0.9077  0.8997299999999998  0.28972  1.0000
  C   C13       1.0  0.93698  0.91284  0.43221  1.0000
  O   O26       1.0  0.79899  0.9398199999999999  0.38535  1.0000
  O   O27       1.0  0.8335  0.90526  0.32543  1.0000
  O   O28       1.0  0.8308599999999999  0.88703  0.48222  1.0000
  O   O29       1.0  0.9386999999999999  0.9328  0.3924  1.0000
  O   O30       1.0  0.9077499999999998  0.8895199999999999  0.4468  1.0000
  O   O31       1.0  0.90319  0.83504  0.34364999999999996  1.0000
  C   C14       1.0  0.91632  0.85517  0.30111  1.0000
  O   O32       1.0  0.84058  0.83245  0.41846  1.0000
  C   C15       1.0  0.8247499999999999  0.8465999999999999  0.46264  1.0000
  C   C16       1.0  0.8027300000000002  0.92917  0.34256  1.0000
  Eu  Eu5       1.0  0.87557  0.38849  0.88507  1.0000
  O   O33       1.0  0.93648  0.39701  0.81813  1.0000
  C   C17       1.0  0.93614  0.4203599999999999  0.93734  1.0000
  O   O34       1.0  0.81206  0.4566799999999999  0.88482  1.0000
  O   O35       1.0  0.8355999999999999  0.40022  0.8284999999999998  1.0000
  O   O36       1.0  0.8428799999999999  0.375  0.98435  1.0000
  O   O37       1.0  0.9286  0.4554899999999999  0.90936  1.0000
  O   O38       1.0  0.9159099999999999  0.37861999999999996  0.94139  1.0000
  O   O39       1.0  0.90595  0.3286699999999999  0.83683  1.0000
  C   C18       1.0  0.93331  0.35048  0.81387  1.0000
  O   O40       1.0  0.84704  0.32304999999999995  0.9180899999999997  1.0000
  C   C19       1.0  0.83536  0.33503  0.96508  1.0000
  C   C20       1.0  0.8110499999999999  0.43889  0.84411  1.0000
  Eu  Eu6       1.0  0.62538  0.11527999999999998  0.10311  1.0000
  O   O41       1.0  0.58916  0.22239  0.10807  1.0000
  C   C21       1.0  0.55623  0.07763  0.08549  1.0000
  O   O42       1.0  0.68195  0.13228  0.03431  1.0000
  O   O43       1.0  0.66397  0.17645  0.10171  1.0000
  O   O44       1.0  0.67795  0.023749999999999993  0.09533  1.0000
  O   O45       1.0  0.55261  0.12496  0.08267  1.0000
  O   O46       1.0  0.58651  0.05438  0.10216999999999998  1.0000
  O   O47       1.0  0.59508  0.15896999999999997  0.16406  1.0000
  C   C22       1.0  0.58148  0.20716999999999997  0.14837  1.0000
  O   O48       1.0  0.65564  0.07038  0.15968  1.0000
  C   C23       1.0  0.6794499999999999  0.03417  0.13812  1.0000
  C   C24       1.0  0.68443  0.17017  0.05993999999999999  1.0000
  Eu  Eu7       1.0  0.62582  0.60956  0.60623  1.0000
  O   O49       1.0  0.586  0.7118  0.6190699999999998  1.0000
  C   C25       1.0  0.55851  0.57198  0.57658  1.0000
  O   O50       1.0  0.66165  0.67276  0.53613  1.0000
  O   O51       1.0  0.66321  0.67094  0.6173499999999998  1.0000
  O   O52       1.0  0.69583  0.55815  0.59843  1.0000
  O   O53       1.0  0.55512  0.61927  0.57411  1.0000
  O   O54       1.0  0.58825  0.54844  0.59438  1.0000
  O   O55       1.0  0.59289  0.64353  0.66933  1.0000
  C   C26       1.0  0.57871  0.69277  0.6579  1.0000
  O   O56       1.0  0.65526  0.55563  0.65733  1.0000
  C   C27       1.0  0.68814  0.54387  0.63893  1.0000
  C   C28       1.0  0.67406  0.68861  0.57249  1.0000
  Eu  Eu8       1.0  0.37549999999999994  0.3920399999999999  0.37984  1.0000
  O   O57       1.0  0.41822999999999994  0.38791  0.29019  1.0000
  C   C29       1.0  0.44011  0.40304  0.43308  1.0000
  O   O58       1.0  0.31065  0.4541399999999999  0.36674999999999996  1.0000
  O   O59       1.0  0.34218  0.40165  0.31481999999999993  1.0000
  O   O60       1.0  0.329  0.40161999999999987  0.46706  1.0000
  O   O61       1.0  0.4463599999999999  0.41673  0.39181  1.0000
  O   O62       1.0  0.40901  0.38359  0.44468  1.0000
  O   O63       1.0  0.40671  0.32454  0.34259999999999996  1.0000
  C   C30       1.0  0.42389  0.34274  0.30224  1.0000
  O   O64       1.0  0.33965  0.3361199999999999  0.41329  1.0000
  C   C31       1.0  0.32153  0.3595  0.45251  1.0000
  C   C32       1.0  0.31488000000000005  0.4374299999999999  0.32566  1.0000
  C   C33       1.0  0.96735  0.42208  0.9660999999999997  1.0000
  C   C34       1.0  0.95862  0.43954  0.01852  1.0000
  C   C35       1.0  0.9847499999999999  0.47473  0.03602  1.0000
  C   C36       1.0  0.014510000000000004  0.45346  0.05744  1.0000
  Cl  Cl1       1.0  0.020900000000000002  0.38565  0.06739  1.0000
  C   C37       1.0  0.03999  0.48582  0.06966  1.0000
  Cl  Cl2       1.0  0.07789999999999998  0.45757  0.09355  1.0000
  C   C38       1.0  0.03600999999999999  0.53978  0.06062  1.0000
  C   C39       1.0  0.0058899999999999925  0.56127  0.0405  1.0000
  Cl  Cl3       1.0  0.9989999999999999  0.6293899999999999  0.03243  1.0000
  C   C40       1.0  0.98064  0.52892  0.02765  1.0000
  Cl  Cl4       1.0  0.94428  0.55685  0.99939  1.0000
  H   H1        1.0  0.98427  0.44919999999999993  0.94788  1.0000
  H   H2        1.0  0.98134  0.3829699999999999  0.9656  1.0000
  H   H3        1.0  0.93287  0.45986  0.02210000000000001  1.0000
  H   H4        1.0  0.957  0.40481  0.041859999999999994  1.0000
  C   C41       1.0  0.52824  0.04621  0.06932  1.0000
  C   C42       1.0  0.53777  0.9872699999999999  0.06642  1.0000
  C   C43       1.0  0.51351  0.9621799999999999  0.03386  1.0000
  C   C44       1.0  0.4814  0.9495699999999999  0.05216  1.0000
  Cl  Cl5       1.0  0.47074  0.9559099999999999  0.11457  1.0000
  C   C45       1.0  0.4569099999999999  0.934  0.02066  1.0000
  Cl  Cl6       1.0  0.4162199999999999  0.92189  0.04447  1.0000
  C   C46       1.0  0.46423999999999993  0.9312699999999998  0.97045  1.0000
  C   C47       1.0  0.4969400000000001  0.9409299999999998  0.95249  1.0000
  Cl  Cl7       1.0  0.50788  0.93298  0.89023  1.0000
  C   C48       1.0  0.52135  0.95675  0.98383  1.0000
  Cl  Cl8       1.0  0.5611199999999998  0.9725299999999998  0.95911  1.0000
  H   H5        1.0  0.52125  0.06056  0.03295  1.0000
  H   H6        1.0  0.50574  0.05409999999999999  0.09413  1.0000
  H   H7        1.0  0.5643199999999999  0.97937  0.0527  1.0000
  H   H8        1.0  0.53718  0.97014  0.1031  1.0000
  C   C49       1.0  0.9592199999999999  0.3166299999999999  0.785  1.0000
  C   C50       1.0  0.9609099999999999  0.3333499999999999  0.73201  1.0000
  C   C51       1.0  0.98768  0.29919  0.70367  1.0000
  C   C52       1.0  0.021930000000000005  0.31126  0.70259  1.0000
  Cl  Cl9       1.0  0.0341  0.36668  0.73348  1.0000
  C   C53       1.0  0.04687999999999999  0.27913999999999994  0.6771  1.0000
  Cl  Cl10      1.0  0.08935999999999998  0.29616  0.67496  1.0000
  C   C54       1.0  0.03793  0.23467999999999997  0.6523099999999998  1.0000
  C   C55       1.0  0.0038199999999999346  0.22235999999999995  0.6535  1.0000
  Cl  Cl11      1.0  0.9922799999999999  0.16522  0.62476  1.0000
  C   C56       1.0  0.97885  0.25424  0.6792  1.0000
  Cl  Cl12      1.0  0.9365699999999999  0.23627999999999993  0.68162  1.0000
  H   H9        1.0  0.95263  0.27549999999999997  0.78721  1.0000
  H   H10       1.0  0.9843099999999999  0.31912  0.80111  1.0000
  H   H11       1.0  0.9355999999999999  0.33178  0.71644  1.0000
  H   H12       1.0  0.96646  0.37488  0.72935  1.0000
  C   C57       1.0  0.70089  0.7265099999999999  0.56852  1.0000
  C   C58       1.0  0.73332  0.70086  0.54385  1.0000
  C   C59       1.0  0.75602  0.74134  0.52439  1.0000
  C   C60       1.0  0.75111  0.76197  0.47781  1.0000
  Cl  Cl13      1.0  0.71689  0.7443999999999998  0.44350999999999996  1.0000
  C   C61       1.0  0.77329  0.7969999999999998  0.45817  1.0000
  Cl  Cl14      1.0  0.76629  0.82264  0.39996  1.0000
  C   C62       1.0  0.8003  0.8125399999999999  0.48505  1.0000
  C   C63       1.0  0.80439  0.7939099999999999  0.53239  1.0000
  Cl  Cl15      1.0  0.83816  0.8129999999999998  0.5667  1.0000
  C   C64       1.0  0.78236  0.7584299999999999  0.55202  1.0000
  Cl  Cl16      1.0  0.7880100000000001  0.7357599999999997  0.6115599999999999  1.0000
  H   H13       1.0  0.70674  0.74019  0.6051  1.0000
  H   H14       1.0  0.69088  0.76084  0.54779  1.0000
  H   H15       1.0  0.74668  0.6745  0.56965  1.0000
  H   H16       1.0  0.72722  0.6747699999999999  0.51395  1.0000
  C   C65       1.0  0.18578  0.5135  0.19625999999999996  1.0000
  C   C66       1.0  0.22263  0.50959  0.17667999999999995  1.0000
  C   C67       1.0  0.24656999999999998  0.49052  0.21541  1.0000
  C   C68       1.0  0.25893  0.52641  0.24772  1.0000
  Cl  Cl17      1.0  0.2462199999999999  0.59369  0.24408999999999997  1.0000
  C   C69       1.0  0.28135  0.50912  0.28343  1.0000
  Cl  Cl18      1.0  0.29803  0.55568  0.32115  1.0000
  C   C70       1.0  0.29143  0.45559  0.28774  1.0000
  C   C71       1.0  0.27892  0.41964  0.25569  1.0000
  Cl  Cl19      1.0  0.29019  0.35215  0.26103  1.0000
  C   C72       1.0  0.25647  0.43693  0.21993999999999997  1.0000
  Cl  Cl20      1.0  0.24011999999999997  0.39055  0.18174  1.0000
  H   H17       1.0  0.17712  0.47389  0.20198  1.0000
  H   H18       1.0  0.18381  0.5343  0.23155999999999993  1.0000
  H   H19       1.0  0.22518  0.4836099999999999  0.14453999999999997  1.0000
  H   H20       1.0  0.22957  0.54796  0.1629  1.0000
  C   C73       1.0  0.7836899999999999  0.45974  0.81162  1.0000
  C   C74       1.0  0.7869  0.43495  0.76112  1.0000
  C   C75       1.0  0.76152  0.46214999999999995  0.72809  1.0000
  C   C76       1.0  0.72889  0.44418  0.72399  1.0000
  Cl  Cl21      1.0  0.71701  0.3892299999999999  0.75686  1.0000
  C   C77       1.0  0.70522  0.47030999999999995  0.69419  1.0000
  Cl  Cl22      1.0  0.6652699999999999  0.44514  0.68764  1.0000
  C   C78       1.0  0.71359  0.51511  0.66864  1.0000
  C   C79       1.0  0.74618  0.53312  0.6727  1.0000
  Cl  Cl23      1.0  0.75705  0.5904799999999999  0.64283  1.0000
  C   C80       1.0  0.76994  0.50686  0.70222  1.0000
  Cl  Cl24      1.0  0.81018  0.53152  0.7075  1.0000
  H   H21       1.0  0.78517  0.50253  0.8085399999999999  1.0000
  H   H22       1.0  0.75863  0.45254  0.82864  1.0000
  H   H23       1.0  0.81306  0.43687999999999994  0.74574  1.0000
  H   H24       1.0  0.7833099999999998  0.39274  0.76383  1.0000
  C   C81       1.0  0.2966  0.80503  0.96342  1.0000
  C   C82       1.0  0.2947  0.80213  0.01865  1.0000
  C   C83       1.0  0.2665699999999999  0.76866  0.03524  1.0000
  C   C84       1.0  0.23317  0.79125  0.04364  1.0000
  Cl  Cl25      1.0  0.22370999999999996  0.85897  0.03611  1.0000
  C   C85       1.0  0.20677000000000004  0.7599199999999998  0.056799999999999996  1.0000
  Cl  Cl26      1.0  0.16497  0.78919  0.06449  1.0000
  C   C86       1.0  0.21332999999999996  0.70556  0.06146999999999999  1.0000
  C   C87       1.0  0.24672999999999998  0.683  0.0535  1.0000
  Cl  Cl27      1.0  0.25616  0.61535  0.06166  1.0000
  C   C88       1.0  0.27311  0.71427  0.04018  1.0000
  Cl  Cl28      1.0  0.31439  0.6843399999999997  0.02872000000000008  1.0000
  H   H25       1.0  0.3032  0.76544  0.9481799999999998  1.0000
  H   H26       1.0  0.27153  0.81939  0.94989  1.0000
  H   H27       1.0  0.31954  0.78651  0.03194999999999992  1.0000
  H   H28       1.0  0.29058  0.8418399999999999  0.0345  1.0000
  C   C89       1.0  0.20321999999999998  0.04282  0.69246  1.0000
  C   C90       1.0  0.21025999999999997  0.9834799999999999  0.69317  1.0000
  C   C91       1.0  0.23733999999999997  0.96813  0.72896  1.0000
  C   C92       1.0  0.27194  0.9632799999999999  0.7138499999999998  1.0000
  Cl  Cl29      1.0  0.2844  0.97508  0.65313  1.0000
  C   C93       1.0  0.29711  0.95055  0.74728  1.0000
  Cl  Cl30      1.0  0.34025999999999995  0.9460899999999999  0.72749  1.0000
  C   C94       1.0  0.28805  0.9436199999999998  0.79638  1.0000
  C   C95       1.0  0.25356  0.94857  0.81161  1.0000
  Cl  Cl31      1.0  0.24147  0.93781  0.87268  1.0000
  C   C96       1.0  0.22833  0.9607399999999999  0.77814  1.0000
  Cl  Cl32      1.0  0.18535000000000001  0.9674699999999998  0.79868  1.0000
  H   H29       1.0  0.19199  0.05639  0.72803  1.0000
  H   H30       1.0  0.22731000000000007  0.06167999999999999  0.68624  1.0000
  H   H31       1.0  0.18647  0.9649199999999998  0.70231  1.0000
  H   H32       1.0  0.21809  0.96871  0.65649  1.0000
  C   C97       1.0  0.04065000000000001  0.7536799999999999  0.15921  1.0000
  C   C98       1.0  0.01225  0.7234099999999999  0.18176  1.0000
  C   C99       1.0  0.9876199999999999  0.75893  0.21232999999999994  1.0000
  C   C100      1.0  0.9934099999999999  0.76679  0.26171  1.0000
  Cl  Cl33      1.0  0.03044  0.73833  0.2879  1.0000
  C   C101      1.0  0.9700299999999998  0.7981099999999999  0.29059  1.0000
  Cl  Cl34      1.0  0.9782599999999999  0.80819  0.35209  1.0000
  C   C102      1.0  0.94092  0.8227399999999998  0.27034  1.0000
  C   C103      1.0  0.9355  0.8161799999999999  0.22079999999999997  1.0000
  Cl  Cl35      1.0  0.89875  0.8460399999999999  0.19493999999999997  1.0000
  C   C104      1.0  0.95874  0.78451  0.1919  1.0000
  Cl  Cl36      1.0  0.95143  0.77758  0.12975  1.0000
  H   H33       1.0  0.02976  0.78217  0.13285  1.0000
  H   H34       1.0  0.0529  0.77556  0.18744999999999998  1.0000
  H   H35       1.0  0.9989899999999999  0.7042  0.15284999999999999  1.0000
  H   H36       1.0  0.023080000000000003  0.69083  0.20393  1.0000
  C   C105      1.0  0.21808  0.19781999999999994  0.54327  1.0000
  C   C106      1.0  0.20944999999999997  0.25682  0.54263  1.0000
  C   C107      1.0  0.23856  0.28414  0.51962  1.0000
  C   C108      1.0  0.26375  0.30324  0.54818  1.0000
  Cl  Cl37      1.0  0.26241  0.29476  0.61152  1.0000
  C   C109      1.0  0.29079  0.32809  0.52636  1.0000
  Cl  Cl38      1.0  0.32264  0.3500599999999999  0.56277  1.0000
  C   C110      1.0  0.29307  0.33377  0.47578  1.0000
  C   C111      1.0  0.26806  0.3144899999999999  0.4472499999999999  1.0000
  Cl  Cl39      1.0  0.26922  0.32382  0.38406  1.0000
  C   C112      1.0  0.24115  0.28941  0.46893  1.0000
  Cl  Cl40      1.0  0.2109  0.26395  0.43177  1.0000
  H   H37       1.0  0.22989999999999997  0.18447999999999998  0.5079  1.0000
  H   H38       1.0  0.23662999999999998  0.18799  0.57153  1.0000
  H   H39       1.0  0.18595999999999993  0.26633  0.52275  1.0000
  H   H40       1.0  0.2032  0.27108  0.57994  1.0000
  C   C113      1.0  0.5569699999999999  0.23968999999999996  0.18063  1.0000
  C   C114      1.0  0.5256  0.21025999999999995  0.19305  1.0000
  C   C115      1.0  0.49903999999999993  0.24463999999999997  0.22148  1.0000
  C   C116      1.0  0.49972  0.24736999999999995  0.27234  1.0000
  Cl  Cl41      1.0  0.53229  0.21249999999999997  0.3036  1.0000
  C   C117      1.0  0.47487  0.2787799999999999  0.29872  1.0000
  Cl  Cl42      1.0  0.47720999999999997  0.28312  0.3622  1.0000
  C   C118      1.0  0.44921000000000005  0.30816  0.27459  1.0000
  C   C119      1.0  0.44860999999999995  0.3058  0.22381  1.0000
  Cl  Cl43      1.0  0.41581  0.34057  0.19285  1.0000
  C   C120      1.0  0.47353  0.27463  0.19737  1.0000
  Cl  Cl44      1.0  0.47285  0.27452  0.13358  1.0000
  H   H41       1.0  0.5492  0.27681  0.1623  1.0000
  H   H42       1.0  0.56977  0.24918999999999994  0.21414  1.0000
  H   H43       1.0  0.51501  0.19586  0.15946  1.0000
  H   H44       1.0  0.53296  0.17447  0.2136  1.0000
  C   C121      1.0  0.45318  0.82857  0.76726  1.0000
  C   C122      1.0  0.48375999999999997  0.80497  0.79409  1.0000
  C   C123      1.0  0.50889  0.7756899999999999  0.75921  1.0000
  C   C124      1.0  0.50487  0.7232  0.74724  1.0000
  Cl  Cl45      1.0  0.47079  0.6906999999999999  0.7729399999999997  1.0000
  C   C125      1.0  0.52767  0.69627  0.7141399999999999  1.0000
  Cl  Cl46      1.0  0.52098  0.6313699999999999  0.6981  1.0000
  C   C126      1.0  0.5547  0.72146  0.69245  1.0000
  C   C127      1.0  0.55859  0.7740199999999998  0.7039199999999999  1.0000
  Cl  Cl47      1.0  0.59277  0.8061899999999999  0.67804  1.0000
  C   C128      1.0  0.53583  0.80099  0.73709  1.0000
  Cl  Cl48      1.0  0.5412  0.8670999999999999  0.75012  1.0000
  H   H45       1.0  0.46195  0.85527  0.73876  1.0000
  H   H46       1.0  0.44027000000000005  0.7973099999999999  0.74947  1.0000
  H   H47       1.0  0.49574999999999997  0.83617  0.81331  1.0000
  H   H48       1.0  0.47534000000000004  0.77864  0.82304  1.0000
  C   C129      1.0  0.46555  0.40838  0.47117  1.0000
  C   C130      1.0  0.45184  0.4480099999999999  0.51017  1.0000
  C   C131      1.0  0.47973  0.47975  0.52795  1.0000
  C   C132      1.0  0.4958699999999999  0.46735  0.57148  1.0000
  Cl  Cl49      1.0  0.48485999999999996  0.41307999999999995  0.6060199999999999  1.0000
  C   C133      1.0  0.52139  0.49766  0.58757  1.0000
  Cl  Cl50      1.0  0.53954  0.4832599999999999  0.6437799999999999  1.0000
  C   C134      1.0  0.5315  0.54015  0.55995  1.0000
  C   C135      1.0  0.51579  0.55193  0.51601  1.0000
  Cl  Cl51      1.0  0.52928  0.60275  0.47881  1.0000
  C   C136      1.0  0.49000999999999995  0.52214  0.50027  1.0000
  Cl  Cl52      1.0  0.47085999999999995  0.5381  0.44498  1.0000
  H   H49       1.0  0.48944  0.4204799999999999  0.45372  1.0000
  H   H50       1.0  0.47155  0.3698  0.4879  1.0000
  H   H51       1.0  0.4312200000000001  0.4750999999999999  0.49642  1.0000
  H   H52       1.0  0.43933  0.42704  0.5399  1.0000
  C   C137      1.0  0.96623  0.9136699999999998  0.46496  1.0000
  C   C138      1.0  0.95656  0.94603  0.51087  1.0000
  C   C139      1.0  0.9853800000000001  0.9779899999999998  0.52478  1.0000
  C   C140      1.0  0.011120000000000003  0.9566199999999999  0.55439  1.0000
  Cl  Cl53      1.0  0.009960000000000016  0.8924399999999998  0.57659  1.0000
  C   C141      1.0  0.038559999999999955  0.98565  0.56538  1.0000
  Cl  Cl54      1.0  0.07124  0.95699  0.60066  1.0000
  C   C142      1.0  0.040699999999999986  0.0362  0.54666  1.0000
  C   C143      1.0  0.01478  0.05783  0.51757  1.0000
  Cl  Cl55      1.0  0.015600000000000058  0.1225  0.4963  1.0000
  C   C144      1.0  0.9875499999999999  0.0287  0.50617  1.0000
  Cl  Cl56      1.0  0.9567399999999999  0.05588  0.46693  1.0000
  H   H53       1.0  0.9878599999999998  0.9297  0.44471  1.0000
  H   H54       1.0  0.97452  0.87307  0.47492  1.0000
  H   H55       1.0  0.9331999999999999  0.9719699999999998  0.50622  1.0000
  H   H56       1.0  0.9494399999999998  0.9198499999999997  0.54066  1.0000
  C   C145      1.0  0.70758  0.00973  0.16717  1.0000
  C   C146      1.0  0.6937400000000001  0.9808499999999999  0.21104  1.0000
  C   C147      1.0  0.72182  0.9668099999999997  0.24556999999999998  1.0000
  C   C148      1.0  0.7407199999999999  0.9180399999999999  0.24224  1.0000
  Cl  Cl57      1.0  0.73214  0.8720799999999997  0.19764  1.0000
  C   C149      1.0  0.7670499999999999  0.9056899999999999  0.27395  1.0000
  Cl  Cl58      1.0  0.7892900000000002  0.84344  0.26995  1.0000
  C   C150      1.0  0.7749299999999998  0.9420199999999997  0.30924  1.0000
  C   C151      1.0  0.75633  0.99104  0.31215  1.0000
  Cl  Cl59      1.0  0.76698  0.03891  0.35372  1.0000
  C   C152      1.0  0.72999  0.003330000000000055  0.28056  1.0000
  Cl  Cl60      1.0  0.70782  0.06568  0.28448  1.0000
  H   H57       1.0  0.72298  0.04131  0.17912  1.0000
  H   H58       1.0  0.7243  0.98215  0.14435  1.0000
  H   H59       1.0  0.67287  0.004939999999999999  0.23007  1.0000
  H   H60       1.0  0.68178  0.94581  0.19875999999999996  1.0000
  C   C153      1.0  0.81371  0.29840999999999995  0.99169  1.0000
  C   C154      1.0  0.7788999999999999  0.3252  0.006510000000000016  1.0000
  C   C155      1.0  0.75414  0.28513  0.02057  1.0000
  C   C156      1.0  0.73319  0.26556  0.9857199999999999  1.0000
  Cl  Cl61      1.0  0.73568  0.28672  0.92508  1.0000
  C   C157      1.0  0.71039  0.22823  0.9986099999999999  1.0000
  Cl  Cl62      1.0  0.68326  0.20667999999999997  0.95465  1.0000
  C   C158      1.0  0.70857  0.20932999999999996  0.04632  1.0000
  C   C159      1.0  0.72995  0.22801  0.0809  1.0000
  Cl  Cl63      1.0  0.72997  0.20219  0.13999  1.0000
  C   C160      1.0  0.75259  0.26567  0.06814  1.0000
  Cl  Cl64      1.0  0.77957  0.2874  0.11215  1.0000
  H   H61       1.0  0.8268799999999998  0.28377  0.02421  1.0000
  H   H62       1.0  0.81045  0.26453  0.96782  1.0000
  H   H63       1.0  0.78152  0.35281  0.03670999999999999  1.0000
  H   H64       1.0  0.7690499999999999  0.35003  0.9767  1.0000
