data_image0
_chemical_formula_structural       EuOCO6COC2EuOCO6COC2EuOCO6COC2EuOCO6COC3F2CF2CF2CF2CF2CF2CF2CF2CF2CF2CF2CF2CF2CF2CF2CF2
_chemical_formula_sum              "Eu4 O32 C32 F32"
_cell_length_a       22.1134
_cell_length_b       10.5021
_cell_length_c       9.481
_cell_angle_alpha    78.6108
_cell_angle_beta     84.9951
_cell_angle_gamma    95.19889999999998

_symmetry_space_group_name_H-M    'P 1'
_symmetry_Int_Tables_number       1

loop_
  _symmetry_equiv_pos_as_xyz
  'x,y,z'

loop_
  _atom_site_type_symbol
  _atom_site_label
  _atom_site_symmetry_multiplicity
  _atom_site_fract_x
  _atom_site_fract_y
  _atom_site_fract_z
  _atom_site_occupancy
  Eu  Eu1       1.0  0.3823500000000001  0.7851899999999998  0.2595  1.0000
  O   O1        1.0  0.2805  0.94728  0.26998  1.0000
  C   C1        1.0  0.32248  0.6278699999999999  0.05635  1.0000
  O   O2        1.0  0.48402  0.0009500000000000125  0.2477199999999999  1.0000
  O   O3        1.0  0.39251000000000014  0.95084  0.38198999999999994  1.0000
  O   O4        1.0  0.50727  0.70345  0.31521999999999994  1.0000
  O   O5        1.0  0.29118  0.7178499999999999  0.05725999999999999  1.0000
  O   O6        1.0  0.37219  0.6190399999999999  0.1374  1.0000
  O   O7        1.0  0.28421  0.73396  0.36483  1.0000
  C   C2        1.0  0.25379000000000007  0.8455999999999999  0.34264999999999995  1.0000
  O   O8        1.0  0.41534  0.6504899999999999  0.44909  1.0000
  C   C3        1.0  0.47881  0.6571199999999999  0.43329  1.0000
  C   C4        1.0  0.4453300000000002  0.034669999999999986  0.32850999999999997  1.0000
  Eu  Eu2       1.0  0.8714199999999999  0.8111999999999999  0.63378  1.0000
  O   O9        1.0  0.67751  0.7738199999999998  0.72275  1.0000
  C   C5        1.0  0.84452  0.54921  0.88119  1.0000
  O   O10       1.0  0.95175  0.8788499999999998  0.8575399999999999  1.0000
  O   O11       1.0  0.9707400000000003  0.8990799999999997  0.6160099999999998  1.0000
  O   O12       1.0  0.9576700000000001  0.60019  0.58215  1.0000
  O   O13       1.0  0.7925  0.5786699999999999  0.88322  1.0000
  O   O14       1.0  0.89298  0.63571  0.80243  1.0000
  O   O15       1.0  0.7712  0.7343399999999997  0.63957  1.0000
  C   C6        1.0  0.7326900000000001  0.79836  0.7198299999999999  1.0000
  O   O16       1.0  0.89624  0.71705  0.44021999999999994  1.0000
  C   C7        1.0  0.9426400000000001  0.63555  0.46102999999999994  1.0000
  C   C8        1.0  0.9868500000000001  0.9219699999999997  0.74821  1.0000
  Eu  Eu3       1.0  0.11754000000000003  0.26579  0.09193  1.0000
  O   O17       1.0  0.18996  0.03577  0.12979  1.0000
  C   C9        1.0  0.24346  0.36492999999999987  0.18  1.0000
  O   O18       1.0  0.96115  0.11185  0.9410599999999999  1.0000
  O   O19       1.0  0.04034  0.26026  0.94641  1.0000
  O   O20       1.0  0.07823  0.5244599999999999  0.14985  1.0000
  O   O21       1.0  0.28533  0.37919  0.25327  1.0000
  O   O22       1.0  0.19279  0.27649000000000007  0.24105999999999997  1.0000
  O   O23       1.0  0.09264  0.05398999999999996  0.20927  1.0000
  C   C10       1.0  0.14396  0.98625  0.20896  1.0000
  O   O24       1.0  0.05014  0.31421999999999994  0.26338  1.0000
  C   C11       1.0  0.051170000000000014  0.44808  0.25514  1.0000
  C   C12       1.0  0.016480000000000015  0.13634000000000002  0.9320799999999999  1.0000
  Eu  Eu4       1.0  0.61862  0.2657  0.9398  1.0000
  O   O25       1.0  0.67089  0.07023999999999997  0.73151  1.0000
  C   C13       1.0  0.7558  0.29245999999999994  0.94569  1.0000
  O   O26       1.0  0.55097  0.39027  0.15089  1.0000
  O   O27       1.0  0.52052  0.22499999999999998  0.044259999999999966  1.0000
  O   O28       1.0  0.5760500000000001  0.4954799999999999  0.7812299999999999  1.0000
  O   O29       1.0  0.7338699999999999  0.2663400000000001  0.07220999999999989  1.0000
  O   O30       1.0  0.71707  0.30782  0.83664  1.0000
  O   O31       1.0  0.6214800000000001  0.04674999999999997  0.95579  1.0000
  C   C14       1.0  0.66749  0.019299999999999984  0.85978  1.0000
  O   O32       1.0  0.58278  0.30066  0.71961  1.0000
  C   C15       1.0  0.5646  0.42588  0.69569  1.0000
  C   C16       1.0  0.51106  0.3043  0.14348000000000005  1.0000
  C   C17       1.0  0.30727  0.52604  0.96891  1.0000
  F   F1        1.0  0.30448  0.58889  0.82715  1.0000
  F   F2        1.0  0.35340000000000005  0.44511999999999996  0.96932  1.0000
  C   C18       1.0  0.24565000000000003  0.44225  0.02687  1.0000
  F   F3        1.0  0.19917  0.52223  0.020569999999999998  1.0000
  F   F4        1.0  0.23482000000000003  0.35498999999999997  0.93763  1.0000
  C   C19       1.0  0.75937  0.8948999999999998  0.80352  1.0000
  F   F5        1.0  0.8059000000000002  0.8408199999999998  0.8747499999999999  1.0000
  F   F6        1.0  0.7850500000000001  0.007609999999999982  0.70718  1.0000
  C   C20       1.0  0.7124800000000001  0.9279499999999998  0.9188099999999999  1.0000
  F   F7        1.0  0.6803500000000001  0.8134299999999999  0.99909  1.0000
  F   F8        1.0  0.7441400000000001  0.98655  0.01302000000000003  1.0000
  C   C21       1.0  0.14166  0.85199  0.30299  1.0000
  F   F9        1.0  0.08440000000000004  0.82162  0.38049999999999995  1.0000
  F   F10       1.0  0.14935  0.76231  0.21555  1.0000
  C   C22       1.0  0.18963000000000002  0.8423499999999998  0.4126099999999999  1.0000
  F   F11       1.0  0.18732  0.9435600000000001  0.48635  1.0000
  F   F12       1.0  0.17531  0.72578  0.51281  1.0000
  C   C23       1.0  0.8571900000000001  0.41811  0.96392  1.0000
  F   F13       1.0  0.9194700000000002  0.40940999999999994  0.94679  1.0000
  F   F14       1.0  0.83952  0.40816  0.10979000000000004  1.0000
  C   C24       1.0  0.82399  0.30495999999999995  0.90837  1.0000
  F   F15       1.0  0.83746  0.32466000000000006  0.75949  1.0000
  F   F16       1.0  0.84488  0.18849999999999997  0.9697599999999998  1.0000
  C   C25       1.0  0.5120500000000001  0.61196  0.5625299999999999  1.0000
  F   F17       1.0  0.47406  0.6127199999999999  0.68665  1.0000
  F   F18       1.0  0.5635700000000001  0.69927  0.55683  1.0000
  C   C26       1.0  0.53052  0.47289  0.56762  1.0000
  F   F19       1.0  0.47838000000000014  0.3869  0.57663  1.0000
  F   F20       1.0  0.56735  0.4706599999999999  0.4424199999999999  1.0000
  C   C27       1.0  0.048130000000000006  0.9968799999999999  0.75329  1.0000
  F   F21       1.0  0.09291000000000002  0.91933  0.7228399999999999  1.0000
  F   F22       1.0  0.05541000000000001  0.10904999999999984  0.64535  1.0000
  C   C28       1.0  0.05733  0.03538999999999999  0.90013  1.0000
  F   F23       1.0  0.04600000000000026  0.92508  0.01023  1.0000
  F   F24       1.0  0.11763000000000003  0.08630999999999998  0.89572  1.0000
  C   C29       1.0  0.4530500000000001  0.28081999999999996  0.24488  1.0000
  F   F25       1.0  0.44552  0.39245  0.29876  1.0000
  F   F26       1.0  0.40376000000000006  0.25733  0.16942  1.0000
  C   C30       1.0  0.45479  0.16477999999999993  0.37264  1.0000
  F   F27       1.0  0.51021  0.17484000000000013  0.4298599999999999  1.0000
  F   F28       1.0  0.40892000000000006  0.16962999999999995  0.48028  1.0000
  C   C31       1.0  0.02148  0.49649999999999994  0.38006  1.0000
  F   F29       1.0  0.99278  0.38968  0.48142000000000007  1.0000
  F   F30       1.0  0.06689  0.55745  0.44315  1.0000
  C   C32       1.0  0.9741100000000001  0.59201  0.33362  1.0000
  F   F31       1.0  0.93033  0.53136  0.26597  1.0000
  F   F32       1.0  0.0026499999999999952  0.7022699999999998  0.23712  1.0000
