data_image0
_chemical_formula_structural       EuOCO6COC2EuOCO6COC2EuOCO6COC2EuOCO6COC10SC3OC2OH18C8SC3OC2OH18C8SC3OC2OH18C8SC3OC2OH18C8SC3OC2OH18C8SC3OC2OH18C8SC3OC2OH18C8SC3OC2OH18
_chemical_formula_sum              "Eu4 O48 C120 S8 H144"
_cell_length_a       38.1408
_cell_length_b       21.746399999999998
_cell_length_c       13.8637
_cell_angle_alpha    94.7817
_cell_angle_beta     89.8541
_cell_angle_gamma    91.83260000000001

_space_group_name_H-M_alt    "P 1"
_space_group_IT_number       1

loop_
  _space_group_symop_operation_xyz
  'x, y, z'

loop_
  _atom_site_type_symbol
  _atom_site_label
  _atom_site_symmetry_multiplicity
  _atom_site_fract_x
  _atom_site_fract_y
  _atom_site_fract_z
  _atom_site_occupancy
  Eu  Eu1       1.0  0.3921899999999999  0.7396800000000001  0.249  1.0000
  O   O1        1.0  0.33729  0.8338400000000001  0.21355000000000002  1.0000
  C   C1        1.0  0.31949  0.6763600000000001  0.25742  1.0000
  O   O2        1.0  0.43046  0.82445  0.11256  1.0000
  O   O3        1.0  0.44885999999999987  0.7469600000000001  0.19661  1.0000
  O   O4        1.0  0.43764  0.6471800000000001  0.33135  1.0000
  O   O5        1.0  0.28776  0.6692900000000002  0.26508  1.0000
  O   O6        1.0  0.3359199999999999  0.7291500000000001  0.30252  1.0000
  O   O7        1.0  0.39125  0.8446500000000001  0.28041  1.0000
  C   C2        1.0  0.3607499999999999  0.86868  0.24593  1.0000
  O   O8        1.0  0.41244999999999993  0.7322100000000001  0.40159  1.0000
  C   C3        1.0  0.4354199999999999  0.68385  0.40262  1.0000
  C   C4        1.0  0.45490999999999987  0.7950200000000001  0.13799  1.0000
  Eu  Eu2       1.0  0.8890099999999999  0.7838100000000001  0.81082  1.0000
  O   O9        1.0  0.87931  0.92012  0.78114  1.0000
  C   C5        1.0  0.86079  0.70509  0.9662400000000001  1.0000
  O   O10       1.0  0.96834  0.7732600000000001  0.8109600000000001  1.0000
  O   O11       1.0  0.93187  0.8215  0.71537  1.0000
  O   O12       1.0  0.9219199999999997  0.65807  0.78652  1.0000
  O   O13       1.0  0.8925199999999998  0.69926  0.9664  1.0000
  O   O14       1.0  0.8460999999999999  0.7448900000000002  0.90505  1.0000
  O   O15       1.0  0.8489899999999999  0.8333600000000001  0.72633  1.0000
  C   C6        1.0  0.86051  0.8940600000000001  0.71832  1.0000
  O   O16       1.0  0.8807899999999999  0.70159  0.70002  1.0000
  C   C7        1.0  0.9015799999999999  0.65266  0.71874  1.0000
  C   C8        1.0  0.9649799999999998  0.80354  0.74147  1.0000
  Eu  Eu3       1.0  0.10323  0.26799000000000006  0.23247000000000004  1.0000
  O   O17       1.0  0.16261  0.18361000000000002  0.17737  1.0000
  C   C9        1.0  0.16789  0.3377800000000001  0.31706  1.0000
  O   O18       1.0  0.07919  0.17405000000000004  0.05467  1.0000
  O   O19       1.0  0.054909999999999994  0.25716  0.1343  1.0000
  O   O20       1.0  0.01757  0.30810000000000004  0.42071  1.0000
  O   O21       1.0  0.16287  0.36142  0.2419  1.0000
  O   O22       1.0  0.14991  0.28322  0.33415  1.0000
  O   O23       1.0  0.10795999999999999  0.16372  0.23258  1.0000
  C   C10       1.0  0.13901999999999998  0.14543000000000003  0.18741000000000002  1.0000
  O   O24       1.0  0.06756999999999999  0.26631000000000005  0.3641  1.0000
  C   C11       1.0  0.042319999999999997  0.31124  0.36525  1.0000
  C   C12       1.0  0.05327  0.20451  0.07024  1.0000
  Eu  Eu4       1.0  0.5869199999999997  0.24667000000000003  0.82271  1.0000
  O   O25       1.0  0.63624  0.14753  0.86069  1.0000
  C   C13       1.0  0.64005  0.35196  0.7878300000000001  1.0000
  O   O26       1.0  0.50703  0.19849000000000003  0.96134  1.0000
  O   O27       1.0  0.56102  0.17216  0.90814  1.0000
  O   O28       1.0  0.5242  0.3237  0.82777  1.0000
  O   O29       1.0  0.65868  0.32260000000000005  0.83702  1.0000
  O   O30       1.0  0.61155  0.32278000000000007  0.73903  1.0000
  O   O31       1.0  0.61105  0.17118000000000003  0.72235  1.0000
  C   C14       1.0  0.62919  0.13158  0.77643  1.0000
  O   O32       1.0  0.54028  0.24627000000000002  0.72065  1.0000
  C   C15       1.0  0.5182599999999998  0.29367  0.75117  1.0000
  C   C16       1.0  0.5246399999999999  0.17089000000000001  0.8992100000000001  1.0000
  C   C17       1.0  0.34117  0.6297000000000001  0.19915000000000002  1.0000
  C   C18       1.0  0.32126  0.5697  0.16086  1.0000
  C   C19       1.0  0.30289  0.53313  0.23825  1.0000
  C   C20       1.0  0.32677999999999996  0.5214  0.32373  1.0000
  C   C21       1.0  0.30829  0.48163  0.39629  1.0000
  C   C22       1.0  0.2804  0.5173600000000002  0.45663000000000004  1.0000
  C   C23       1.0  0.2618899999999999  0.4773900000000001  0.52888  1.0000
  C   C24       1.0  0.23468  0.43158  0.48463000000000006  1.0000
  S   S1        1.0  0.22178  0.4252900000000001  0.36496  1.0000
  C   C25       1.0  0.19222  0.36754  0.38988  1.0000
  C   C26       1.0  0.19211  0.35524000000000006  0.4858  1.0000
  C   C27       1.0  0.21644999999999992  0.3911000000000001  0.53921  1.0000
  O   O33       1.0  0.22024  0.38879000000000014  0.63946  1.0000
  C   C28       1.0  0.20334  0.33568  0.67649  1.0000
  C   C29       1.0  0.16688  0.3221300000000001  0.63059  1.0000
  O   O34       1.0  0.16918  0.31297  0.52701  1.0000
  H   H1        1.0  0.35215  0.6521400000000002  0.13609  1.0000
  H   H2        1.0  0.36388  0.61805  0.2434  1.0000
  H   H3        1.0  0.30127000000000004  0.5810500000000001  0.10737  1.0000
  H   H4        1.0  0.34026999999999996  0.53916  0.12122  1.0000
  H   H5        1.0  0.2935299999999999  0.4879  0.20253  1.0000
  H   H6        1.0  0.27923  0.55754  0.26433  1.0000
  H   H7        1.0  0.3502899999999999  0.49703  0.29508  1.0000
  H   H8        1.0  0.33582999999999996  0.5657400000000001  0.36269  1.0000
  H   H9        1.0  0.29656  0.43929000000000007  0.35725  1.0000
  H   H10       1.0  0.32848  0.4667500000000001  0.44642  1.0000
  H   H11       1.0  0.26047  0.53634  0.41014  1.0000
  H   H12       1.0  0.29368  0.5573800000000002  0.4982300000000001  1.0000
  H   H13       1.0  0.24851999999999996  0.50856  0.5839  1.0000
  H   H14       1.0  0.28175999999999995  0.45237  0.56757  1.0000
  H   H15       1.0  0.21988999999999995  0.29493  0.66061  1.0000
  H   H16       1.0  0.20067  0.34395  0.75624  1.0000
  H   H17       1.0  0.15481  0.28009  0.65877  1.0000
  H   H18       1.0  0.14968  0.36149  0.65082  1.0000
  C   C30       1.0  0.8519799999999998  0.92562  0.62946  1.0000
  C   C31       1.0  0.8295199999999999  0.98242  0.65167  1.0000
  C   C32       1.0  0.79138  0.96662  0.67929  1.0000
  C   C33       1.0  0.7708199999999997  0.9311  0.59555  1.0000
  C   C34       1.0  0.7309199999999999  0.9369500000000002  0.6056600000000001  1.0000
  C   C35       1.0  0.7162399999999999  0.9092600000000001  0.6966  1.0000
  C   C36       1.0  0.6759899999999999  0.9048600000000002  0.69643  1.0000
  C   C37       1.0  0.6600199999999999  0.96728  0.69816  1.0000
  S   S2        1.0  0.6627599999999998  0.020590000000000008  0.79669  1.0000
  C   C38       1.0  0.6392099999999997  0.07035000000000001  0.73385  1.0000
  C   C39       1.0  0.62952  0.04573000000000001  0.6423900000000001  1.0000
  C   C40       1.0  0.64189  0.98758  0.62168  1.0000
  O   O35       1.0  0.63569  0.9532  0.53283  1.0000
  C   C41       1.0  0.6234199999999998  0.9890700000000001  0.4580900000000001  1.0000
  C   C42       1.0  0.59584  0.03498  0.4974  1.0000
  O   O36       1.0  0.60971  0.07556  0.57619  1.0000
  H   H19       1.0  0.8770999999999999  0.94066  0.59661  1.0000
  H   H20       1.0  0.83889  0.89223  0.57511  1.0000
  H   H21       1.0  0.84187  0.012960000000000306  0.7113100000000001  1.0000
  H   H22       1.0  0.8294399999999998  0.009319999999999995  0.58688  1.0000
  H   H23       1.0  0.7784699999999999  0.010900000000000002  0.70015  1.0000
  H   H24       1.0  0.791  0.9393  0.74361  1.0000
  H   H25       1.0  0.7786599999999998  0.9493100000000002  0.5258  1.0000
  H   H26       1.0  0.7773399999999998  0.8814800000000002  0.5912  1.0000
  H   H27       1.0  0.7242799999999999  0.9864500000000003  0.60691  1.0000
  H   H28       1.0  0.7184099999999999  0.9124100000000003  0.54035  1.0000
  H   H29       1.0  0.72549  0.9375400000000003  0.76261  1.0000
  H   H30       1.0  0.72615  0.8619500000000001  0.6998  1.0000
  H   H31       1.0  0.66681  0.8821100000000001  0.76114  1.0000
  H   H32       1.0  0.66692  0.8748900000000002  0.63186  1.0000
  H   H33       1.0  0.64598  0.01499000000000006  0.42822000000000005  1.0000
  H   H34       1.0  0.61184  0.9574600000000002  0.39876  1.0000
  H   H35       1.0  0.58729  0.06293  0.43877  1.0000
  H   H36       1.0  0.57255  0.00885  0.52286  1.0000
  C   C43       1.0  0.14197999999999997  0.08052000000000001  0.14287  1.0000
  C   C44       1.0  0.16256  0.03903000000000001  0.20533  1.0000
  C   C45       1.0  0.20145  0.05795000000000001  0.22186000000000003  1.0000
  C   C46       1.0  0.22162  0.06896000000000001  0.128  1.0000
  C   C47       1.0  0.26135  0.06019000000000001  0.13568  1.0000
  C   C48       1.0  0.27810999999999997  0.09467000000000003  0.22675  1.0000
  C   C49       1.0  0.31845999999999997  0.09884000000000001  0.22264  1.0000
  C   C50       1.0  0.33689  0.039410000000000014  0.23472000000000004  1.0000
  S   S3        1.0  0.3164799999999999  0.96821  0.24273  1.0000
  C   C51       1.0  0.3567999999999999  0.9357000000000001  0.2469  1.0000
  C   C52       1.0  0.38428  0.9782600000000001  0.24574000000000001  1.0000
  C   C53       1.0  0.37301  0.036840000000000206  0.23675  1.0000
  O   O37       1.0  0.39620999999999995  0.08769  0.23011  1.0000
  C   C54       1.0  0.43167  0.07124000000000001  0.20758  1.0000
  C   C55       1.0  0.44295999999999996  0.017400000000000308  0.26482  1.0000
  O   O38       1.0  0.41995  0.96425  0.24581  1.0000
  H   H37       1.0  0.1151  0.059870000000000013  0.13214  1.0000
  H   H38       1.0  0.15376999999999996  0.08125000000000002  0.06973  1.0000
  H   H39       1.0  0.14945  0.03747000000000001  0.27681  1.0000
  H   H40       1.0  0.16111  0.99129  0.16977000000000003  1.0000
  H   H41       1.0  0.21366999999999997  0.02017000000000002  0.25801  1.0000
  H   H42       1.0  0.20344  0.10035000000000001  0.27244  1.0000
  H   H43       1.0  0.21154  0.03618  0.06779  1.0000
  H   H44       1.0  0.21703999999999998  0.11651  0.10814  1.0000
  H   H45       1.0  0.2657  0.01005  0.1345  1.0000
  H   H46       1.0  0.2739599999999999  0.07675  0.06984  1.0000
  H   H47       1.0  0.26979  0.07244  0.29277  1.0000
  H   H48       1.0  0.26852  0.14260000000000003  0.2338  1.0000
  H   H49       1.0  0.32753999999999994  0.13321  0.28188  1.0000
  H   H50       1.0  0.3269  0.11693000000000002  0.15331000000000003  1.0000
  H   H51       1.0  0.43377999999999994  0.05755000000000001  0.12877  1.0000
  H   H52       1.0  0.4494099999999999  0.1121  0.22503  1.0000
  H   H53       1.0  0.4701399999999999  0.004799999999999916  0.24458000000000005  1.0000
  H   H54       1.0  0.44253999999999993  0.03220000000000001  0.34354  1.0000
  C   C56       1.0  0.8380999999999997  0.67036  0.033090000000000064  1.0000
  C   C57       1.0  0.83145  0.60277  0.99325  1.0000
  C   C58       1.0  0.7994499999999999  0.59332  0.9256  1.0000
  C   C59       1.0  0.7645799999999998  0.60437  0.98004  1.0000
  C   C60       1.0  0.73299  0.56938  0.93058  1.0000
  C   C61       1.0  0.7274  0.58567  0.82566  1.0000
  C   C62       1.0  0.6884799999999998  0.58618  0.7972  1.0000
  C   C63       1.0  0.6692199999999999  0.52422  0.78855  1.0000
  S   S4        1.0  0.68731  0.4541300000000001  0.80479  1.0000
  C   C64       1.0  0.64697  0.41847  0.78172  1.0000
  C   C65       1.0  0.6214  0.4589500000000001  0.76143  1.0000
  C   C66       1.0  0.6338799999999998  0.51894  0.76744  1.0000
  O   O39       1.0  0.6123699999999997  0.56877  0.75446  1.0000
  C   C67       1.0  0.57554  0.554  0.76199  1.0000
  C   C68       1.0  0.56612  0.49097  0.70768  1.0000
  O   O40       1.0  0.58589  0.44277000000000005  0.74416  1.0000
  H   H55       1.0  0.85173  0.67103  0.10397999999999996  1.0000
  H   H56       1.0  0.8131699999999997  0.6944800000000002  0.04708000000000001  1.0000
  H   H57       1.0  0.8550399999999998  0.58531  0.95371  1.0000
  H   H58       1.0  0.8275299999999999  0.5738000000000001  0.054999999999999945  1.0000
  H   H59       1.0  0.79949  0.54502  0.89216  1.0000
  H   H60       1.0  0.80205  0.62453  0.86619  1.0000
  H   H61       1.0  0.7664899999999998  0.58907  0.054340000000000055  1.0000
  H   H62       1.0  0.75936  0.65453  0.98712  1.0000
  H   H63       1.0  0.73679  0.51899  0.93139  1.0000
  H   H64       1.0  0.70941  0.58057  0.9753  1.0000
  H   H65       1.0  0.74168  0.5532100000000001  0.7745  1.0000
  H   H66       1.0  0.7385399999999999  0.63282  0.81723  1.0000
  H   H67       1.0  0.68685  0.6058800000000001  0.72598  1.0000
  H   H68       1.0  0.67456  0.6177900000000001  0.8505  1.0000
  H   H69       1.0  0.56836  0.55271  0.83961  1.0000
  H   H70       1.0  0.5604199999999998  0.59068  0.73164  1.0000
  H   H71       1.0  0.5376599999999998  0.48005  0.7158500000000001  1.0000
  H   H72       1.0  0.57184  0.49320000000000014  0.62934  1.0000
  C   C69       1.0  0.45788999999999996  0.67935  0.4907  1.0000
  C   C70       1.0  0.4823799999999999  0.6242  0.48362  1.0000
  C   C71       1.0  0.4634499999999999  0.56133  0.49231  1.0000
  C   C72       1.0  0.44466  0.5576300000000001  0.59024  1.0000
  C   C73       1.0  0.44082  0.49154  0.62051  1.0000
  C   C74       1.0  0.41800999999999994  0.44864000000000004  0.55056  1.0000
  C   C75       1.0  0.4071799999999999  0.38796  0.59375  1.0000
  C   C76       1.0  0.43829  0.35177  0.61928  1.0000
  S   S5        1.0  0.45905999999999997  0.36361  0.72938  1.0000
  C   C77       1.0  0.48831  0.30823  0.69141  1.0000
  C   C78       1.0  0.48162999999999995  0.28184  0.59895  1.0000
  C   C79       1.0  0.4528  0.3059  0.55868  1.0000
  O   O41       1.0  0.4408099999999999  0.28656000000000004  0.46512  1.0000
  C   C80       1.0  0.45475  0.22902  0.42667000000000005  1.0000
  C   C81       1.0  0.49429  0.22659  0.44792000000000004  1.0000
  O   O42       1.0  0.50124  0.23539  0.55005  1.0000
  H   H73       1.0  0.47444  0.7223800000000001  0.50047  1.0000
  H   H74       1.0  0.44085  0.67842  0.55557  1.0000
  H   H75       1.0  0.49698999999999993  0.62287  0.41403  1.0000
  H   H76       1.0  0.5023399999999999  0.63165  0.54211  1.0000
  H   H77       1.0  0.4836  0.52544  0.48351000000000005  1.0000
  H   H78       1.0  0.44422  0.55156  0.43252  1.0000
  H   H79       1.0  0.45988  0.58513  0.6480200000000002  1.0000
  H   H80       1.0  0.4182999999999999  0.57777  0.58706  1.0000
  H   H81       1.0  0.4673999999999999  0.47256  0.62563  1.0000
  H   H82       1.0  0.4288800000000001  0.4938200000000001  0.69394  1.0000
  H   H83       1.0  0.43244  0.4380700000000001  0.48168  1.0000
  H   H84       1.0  0.3936999999999999  0.47244  0.53336  1.0000
  H   H85       1.0  0.39040999999999987  0.35957000000000006  0.54058  1.0000
  H   H86       1.0  0.39092  0.39802  0.65949  1.0000
  H   H87       1.0  0.4407  0.19041  0.45968000000000003  1.0000
  H   H88       1.0  0.4501899999999999  0.2233  0.34732  1.0000
  H   H89       1.0  0.50421  0.18122  0.41919  1.0000
  H   H90       1.0  0.50851  0.26327  0.41071  1.0000
  C   C82       1.0  0.9963599999999999  0.8216100000000001  0.68334  1.0000
  C   C83       1.0  0.022489999999999895  0.8647600000000001  0.74259  1.0000
  C   C84       1.0  0.0064199999999998685  0.92333  0.7923  1.0000
  C   C85       1.0  0.98637  0.9606700000000001  0.7219500000000001  1.0000
  C   C86       1.0  0.97852  0.026150000000000007  0.7650500000000001  1.0000
  C   C87       1.0  0.9549399999999998  0.026250000000000006  0.85544  1.0000
  C   C88       1.0  0.9425699999999999  0.09109000000000002  0.88927  1.0000
  C   C89       1.0  0.97004  0.13324  0.94061  1.0000
  S   S6        1.0  0.012340000000000002  0.11336000000000003  0.96477  1.0000
  C   C90       1.0  0.01988  0.18554000000000004  0.02225  1.0000
  C   C91       1.0  0.9908899999999999  0.22198  0.023780000000000003  1.0000
  C   C92       1.0  0.9629  0.19271000000000002  0.97583  1.0000
  O   O43       1.0  0.93037  0.22032000000000002  0.9682  1.0000
  C   C93       1.0  0.93141  0.28593  0.9921  1.0000
  C   C94       1.0  0.95452  0.30394  0.08167000000000002  1.0000
  O   O44       1.0  0.9895099999999999  0.28251  0.06716  1.0000
  H   H91       1.0  0.009859999999999978  0.7791400000000002  0.6559  1.0000
  H   H92       1.0  0.9876799999999999  0.8443600000000001  0.61901  1.0000
  H   H93       1.0  0.0345200000000001  0.8387000000000001  0.79899  1.0000
  H   H94       1.0  0.04403  0.8785600000000002  0.69394  1.0000
  H   H95       1.0  0.028140000000000005  0.9526500000000001  0.82663  1.0000
  H   H96       1.0  0.9885999999999999  0.90994  0.851  1.0000
  H   H97       1.0  0.002310000000000002  0.9646900000000002  0.65539  1.0000
  H   H98       1.0  0.96123  0.9361300000000002  0.70049  1.0000
  H   H99       1.0  0.0036299999999999995  0.05187  0.78201  1.0000
  H   H100      1.0  0.96503  0.05003  0.70846  1.0000
  H   H101      1.0  0.96853  0.0063100000000000135  0.9158100000000001  1.0000
  H   H102      1.0  0.93128  0.99651  0.8374000000000001  1.0000
  H   H103      1.0  0.9202799999999998  0.08591  0.9401300000000001  1.0000
  H   H104      1.0  0.93237  0.11355  0.8263700000000002  1.0000
  H   H105      1.0  0.94195  0.30945000000000006  0.9295  1.0000
  H   H106      1.0  0.90429  0.3014200000000001  0.00632  1.0000
  H   H107      1.0  0.9556299999999999  0.35493  0.09677  1.0000
  H   H108      1.0  0.94274  0.28348000000000007  0.1456  1.0000
  C   C95       1.0  0.50714  0.13485  0.81448  1.0000
  C   C96       1.0  0.4843199999999999  0.08039  0.84536  1.0000
  C   C97       1.0  0.50455  0.03327999999999999  0.89849  1.0000
  C   C98       1.0  0.5344  0.004040000000000003  0.83717  1.0000
  C   C99       1.0  0.54703  0.9445000000000002  0.8760800000000001  1.0000
  C   C100      1.0  0.5646899999999998  0.9559500000000002  0.9760200000000002  1.0000
  C   C101      1.0  0.57524  0.89549  0.016329999999999956  1.0000
  C   C102      1.0  0.54506  0.8573700000000001  0.05344  1.0000
  S   S7        1.0  0.5020099999999998  0.87933  0.06099  1.0000
  C   C103      1.0  0.4908899999999999  0.8108000000000001  0.10809000000000002  1.0000
  C   C104      1.0  0.51922  0.7740300000000001  0.11863  1.0000
  C   C105      1.0  0.54979  0.8001500000000001  0.08641000000000001  1.0000
  O   O45       1.0  0.58216  0.77158  0.08988  1.0000
  C   C106      1.0  0.57931  0.70694  0.10398  1.0000
  C   C107      1.0  0.5512099999999999  0.6936200000000001  0.18023  1.0000
  O   O46       1.0  0.51765  0.71553  0.15445  1.0000
  H   H109      1.0  0.4901599999999999  0.16608000000000003  0.77733  1.0000
  H   H110      1.0  0.5271999999999998  0.11794000000000003  0.76134  1.0000
  H   H111      1.0  0.4629499999999999  0.09856000000000001  0.89338  1.0000
  H   H112      1.0  0.47162999999999994  0.05642  0.77996  1.0000
  H   H113      1.0  0.4854399999999999  0.9965400000000001  0.9176  1.0000
  H   H114      1.0  0.51525  0.056200000000000014  0.96722  1.0000
  H   H115      1.0  0.52487  0.9922300000000001  0.76196  1.0000
  H   H116      1.0  0.55692  0.03757  0.8341  1.0000
  H   H117      1.0  0.5245099999999999  0.91103  0.87844  1.0000
  H   H118      1.0  0.56636  0.92362  0.8238800000000001  1.0000
  H   H119      1.0  0.54749  0.9813900000000001  0.02917  1.0000
  H   H120      1.0  0.5887799999999999  0.98529  0.96831  1.0000
  H   H121      1.0  0.59381  0.907  0.07727  1.0000
  H   H122      1.0  0.58946  0.8670800000000002  0.9594600000000001  1.0000
  H   H123      1.0  0.5723899999999998  0.68065  0.03408  1.0000
  H   H124      1.0  0.6051399999999998  0.69146  0.12764  1.0000
  H   H125      1.0  0.54882  0.64314  0.18697  1.0000
  H   H126      1.0  0.5593699999999999  0.71658  0.25165  1.0000
  C   C108      1.0  0.04452  0.36111000000000004  0.29585  1.0000
  C   C109      1.0  0.045579999999999996  0.42712000000000006  0.34581  1.0000
  C   C110      1.0  0.013499999999999998  0.44417  0.40897  1.0000
  C   C111      1.0  0.97835  0.43121000000000004  0.35569  1.0000
  C   C112      1.0  0.9468999999999999  0.45220000000000005  0.41765  1.0000
  C   C113      1.0  0.9422699999999999  0.41626000000000013  0.5084  1.0000
  C   C114      1.0  0.9057699999999999  0.42375000000000007  0.55353  1.0000
  C   C115      1.0  0.89917  0.49012  0.58441  1.0000
  S   S8        1.0  0.9176899999999999  0.5278800000000001  0.68642  1.0000
  C   C116      1.0  0.89845  0.59433  0.65748  1.0000
  C   C117      1.0  0.8791199999999999  0.5868  0.57311  1.0000
  C   C118      1.0  0.87987  0.5277000000000001  0.531  1.0000
  O   O47       1.0  0.86307  0.50902  0.44306  1.0000
  C   C119      1.0  0.8533099999999999  0.55921  0.38867  1.0000
  C   C120      1.0  0.83808  0.61234  0.45479  1.0000
  O   O48       1.0  0.86213  0.63401  0.53051  1.0000
  H   H127      1.0  0.06896  0.35607000000000005  0.25293  1.0000
  H   H128      1.0  0.022439999999999995  0.35489  0.24348  1.0000
  H   H129      1.0  0.06957  0.43371000000000004  0.39142  1.0000
  H   H130      1.0  0.048029999999999996  0.46006  0.2888  1.0000
  H   H131      1.0  0.015919999999999993  0.49424  0.43269000000000013  1.0000
  H   H132      1.0  0.01422  0.41919000000000006  0.47537  1.0000
  H   H133      1.0  0.97861  0.45607  0.28877  1.0000
  H   H134      1.0  0.9744699999999998  0.38119  0.33391000000000004  1.0000
  H   H135      1.0  0.94999  0.5024400000000001  0.4394  1.0000
  H   H136      1.0  0.9230199999999998  0.4449900000000001  0.37172  1.0000
  H   H137      1.0  0.96242  0.4325300000000001  0.56336  1.0000
  H   H138      1.0  0.94597  0.36625  0.48901  1.0000
  H   H139      1.0  0.90361  0.39647  0.61771  1.0000
  H   H140      1.0  0.8855099999999999  0.40467000000000003  0.50081  1.0000
  H   H141      1.0  0.8767299999999999  0.57671  0.35017000000000004  1.0000
  H   H142      1.0  0.83348  0.54187  0.33362  1.0000
  H   H143      1.0  0.8321899999999998  0.6512800000000001  0.41114000000000006  1.0000
  H   H144      1.0  0.8131799999999998  0.59614  0.48751  1.0000
