data_image0
_chemical_formula_structural       EuOCO6COC2EuOCO6COC2EuOCO6COC2EuOCO6COC3NC2NC2F2CF2C2H12CNC2NC2F2CF2C2H12CNC2NC2F2CF2C2H12CNC2NC2F2CF2C2H12CNC2NC2F2CF2C2H12CNC2NC2F2CF2C2H12CNC2NC2F2CF2C2H12CNC2NC2F2CF2C2H12
_chemical_formula_sum              "Eu4 O32 C80 N16 F32 H96"
_cell_length_a       41.2134
_cell_length_b       20.132
_cell_length_c       9.9958
_cell_angle_alpha    85.523
_cell_angle_beta     86.0106
_cell_angle_gamma    92.7347

_symmetry_space_group_name_H-M    'P 1'
_symmetry_Int_Tables_number       1

loop_
  _symmetry_equiv_pos_as_xyz
  'x,y,z'

loop_
  _atom_site_type_symbol
  _atom_site_label
  _atom_site_symmetry_multiplicity
  _atom_site_fract_x
  _atom_site_fract_y
  _atom_site_fract_z
  _atom_site_occupancy
  Eu  Eu1       1.0  0.38993  0.7601199999999999  0.28913  1.0000
  O   O1        1.0  0.35058  0.88462  0.26713  1.0000
  C   C1        1.0  0.36803  0.6268699999999999  0.19047  1.0000
  O   O2        1.0  0.46013000000000004  0.79435  0.18593  1.0000
  O   O3        1.0  0.42241999999999996  0.8544099999999999  0.28924  1.0000
  O   O4        1.0  0.42891999999999997  0.63584  0.33769  1.0000
  O   O5        1.0  0.38595  0.65314  0.09687  1.0000
  O   O6        1.0  0.35833  0.66409  0.29636  1.0000
  O   O7        1.0  0.35298  0.8028899999999998  0.43429  1.0000
  C   C2        1.0  0.34392  0.86547  0.38519  1.0000
  O   O8        1.0  0.41575999999999996  0.7185399999999997  0.46914  1.0000
  C   C3        1.0  0.4315800000000001  0.66071  0.44411  1.0000
  C   C4        1.0  0.45452  0.83956  0.25737  1.0000
  Eu  Eu2       1.0  0.8766800000000001  0.7443  0.81505  1.0000
  O   O9        1.0  0.84885  0.87571  0.85768  1.0000
  C   C5        1.0  0.80559  0.7004  0.7855099999999999  1.0000
  O   O10       1.0  0.8997  0.78735  0.08508000000000004  1.0000
  O   O11       1.0  0.91646  0.81796  0.8678999999999999  1.0000
  O   O12       1.0  0.9050299999999999  0.61211  0.78273  1.0000
  O   O13       1.0  0.8035599999999999  0.7478599999999999  0.85394  1.0000
  O   O14       1.0  0.83572  0.67346  0.7599899999999999  1.0000
  O   O15       1.0  0.8604999999999999  0.82553  0.66676  1.0000
  C   C6        1.0  0.8486299999999999  0.8779299999999999  0.7354299999999999  1.0000
  O   O16       1.0  0.91014  0.70797  0.6479  1.0000
  C   C7        1.0  0.9143999999999999  0.64002  0.67311  1.0000
  C   C8        1.0  0.91125  0.8313  0.0019599999999999618  1.0000
  Eu  Eu3       1.0  0.12051  0.21371  0.21274999999999997  1.0000
  O   O17       1.0  0.14757  0.08253  0.14323  1.0000
  C   C9        1.0  0.18033  0.30751  0.191  1.0000
  O   O18       1.0  0.06445000000000001  0.26544  0.07663  1.0000
  O   O19       1.0  0.07827  0.15949  0.12444999999999999  1.0000
  O   O20       1.0  0.10265999999999999  0.35051999999999994  0.2979299999999999  1.0000
  O   O21       1.0  0.18751999999999996  0.28139  0.08751999999999999  1.0000
  O   O22       1.0  0.16257  0.27025  0.29685999999999996  1.0000
  O   O23       1.0  0.13068  0.11999999999999998  0.34264  1.0000
  C   C10       1.0  0.14463  0.07257  0.26555  1.0000
  O   O24       1.0  0.08579  0.24563  0.38073  1.0000
  C   C11       1.0  0.08615  0.31482  0.3835799999999999  1.0000
  C   C12       1.0  0.05998  0.20652  0.0583  1.0000
  Eu  Eu4       1.0  0.63627  0.2552  0.7253799999999999  1.0000
  O   O25       1.0  0.64732  0.06092  0.58238  1.0000
  C   C13       1.0  0.70766  0.31268999999999997  0.75965  1.0000
  O   O26       1.0  0.5930999999999998  0.25700999999999996  0.9823699999999999  1.0000
  O   O27       1.0  0.58171  0.23316  0.77221  1.0000
  O   O28       1.0  0.60036  0.3805799999999999  0.71483  1.0000
  O   O29       1.0  0.73654  0.32697  0.73145  1.0000
  O   O30       1.0  0.69064  0.27665  0.67051  1.0000
  O   O31       1.0  0.63686  0.16947  0.58866  1.0000
  C   C14       1.0  0.64988  0.11114999999999998  0.64259  1.0000
  O   O32       1.0  0.62675  0.32896  0.5503  1.0000
  C   C15       1.0  0.61271  0.38455999999999996  0.59957  1.0000
  C   C16       1.0  0.5728900000000001  0.23791999999999996  0.9080999999999999  1.0000
  C   C17       1.0  0.35833  0.55357  0.19506  1.0000
  N   N1        1.0  0.32323999999999997  0.53916  0.18274999999999997  1.0000
  C   C18       1.0  0.31078  0.573  0.06231  1.0000
  C   C19       1.0  0.27649  0.54309  0.04161  1.0000
  N   N2        1.0  0.26279  0.50061  0.1618  1.0000
  C   C20       1.0  0.22843999999999998  0.47856  0.1493  1.0000
  C   C21       1.0  0.2234  0.40276  0.18432  1.0000
  F   F1        1.0  0.23669  0.38528  0.30489  1.0000
  F   F2        1.0  0.23957000000000003  0.37057  0.08402  1.0000
  C   C22       1.0  0.18673  0.3813  0.1976  1.0000
  F   F3        1.0  0.17094  0.4135299999999999  0.09533  1.0000
  F   F4        1.0  0.17312999999999998  0.39951  0.31923  1.0000
  C   C23       1.0  0.26639  0.53582  0.28452  1.0000
  C   C24       1.0  0.3027  0.54919  0.30574  1.0000
  H   H1        1.0  0.3657  0.5287299999999999  0.29058  1.0000
  H   H2        1.0  0.3723  0.53083  0.11276999999999998  1.0000
  H   H3        1.0  0.3273  0.5668799999999999  0.97177  1.0000
  H   H4        1.0  0.30954  0.62742  0.07363  1.0000
  H   H5        1.0  0.27826  0.51201  0.95439  1.0000
  H   H6        1.0  0.26024  0.5843  0.01687  1.0000
  H   H7        1.0  0.21144  0.50525  0.21520999999999998  1.0000
  H   H8        1.0  0.22131  0.48944999999999994  0.0446  1.0000
  H   H9        1.0  0.25421  0.58414  0.27616  1.0000
  H   H10       1.0  0.25467  0.5054  0.37425  1.0000
  H   H11       1.0  0.30957  0.5141600000000001  0.38932  1.0000
  H   H12       1.0  0.30623  0.6007099999999999  0.33613  1.0000
  C   C25       1.0  0.8345999999999999  0.9354799999999999  0.65972  1.0000
  N   N3        1.0  0.79869  0.92802  0.6762799999999999  1.0000
  C   C26       1.0  0.78495  0.9565999999999998  0.79933  1.0000
  C   C27       1.0  0.7712699999999998  0.025589999999999995  0.76843  1.0000
  N   N4        1.0  0.74619  0.024809999999999992  0.66846  1.0000
  C   C28       1.0  0.71256  0.028019999999999996  0.72969  1.0000
  C   C29       1.0  0.70403  0.10082999999999999  0.74854  1.0000
  F   F5        1.0  0.7162  0.14196  0.6368299999999999  1.0000
  F   F6        1.0  0.71892  0.12175  0.85907  1.0000
  C   C30       1.0  0.66686  0.10867  0.7722799999999999  1.0000
  F   F7        1.0  0.66214  0.1666  0.8340799999999999  1.0000
  F   F8        1.0  0.6528  0.056579999999999984  0.85906  1.0000
  C   C31       1.0  0.74847  0.96849  0.58201  1.0000
  C   C32       1.0  0.78398  0.95224  0.55198  1.0000
  H   H13       1.0  0.84351  0.9347899999999999  0.55208  1.0000
  H   H14       1.0  0.84393  0.98368  0.69393  1.0000
  H   H15       1.0  0.8031  0.9605599999999999  0.87607  1.0000
  H   H16       1.0  0.76494  0.92187  0.8470899999999999  1.0000
  H   H17       1.0  0.79177  0.06078  0.72691  1.0000
  H   H18       1.0  0.76197  0.04453999999999999  0.86445  1.0000
  H   H19       1.0  0.69494  0.006310000000000003  0.66387  1.0000
  H   H20       1.0  0.70922  0.9975199999999999  0.82788  1.0000
  H   H21       1.0  0.73485  0.9228899999999999  0.63145  1.0000
  H   H22       1.0  0.73765  0.98214  0.48546999999999996  1.0000
  H   H23       1.0  0.79758  0.9978499999999999  0.50254  1.0000
  H   H24       1.0  0.78495  0.9126999999999997  0.48039  1.0000
  C   C33       1.0  0.15543  0.008840000000000002  0.33431999999999995  1.0000
  N   N5        1.0  0.19101  0.0012800000000000018  0.31945  1.0000
  C   C34       1.0  0.21050999999999997  0.05913  0.35856  1.0000
  C   C35       1.0  0.24712999999999996  0.04613  0.34717999999999993  1.0000
  N   N6        1.0  0.25205999999999995  0.97644  0.31739999999999996  1.0000
  C   C36       1.0  0.28663  0.95999  0.3214  1.0000
  C   C37       1.0  0.29132  0.9191299999999998  0.45475  1.0000
  F   F9        1.0  0.27522  0.85711  0.45463999999999993  1.0000
  F   F10       1.0  0.27742000000000006  0.95121  0.5605  1.0000
  C   C38       1.0  0.3274  0.91005  0.48011  1.0000
  F   F11       1.0  0.32875  0.8817399999999997  0.61027  1.0000
  F   F12       1.0  0.34438  0.9714899999999997  0.47051  1.0000
  C   C39       1.0  0.23883  0.9635099999999999  0.18769  1.0000
  C   C40       1.0  0.20284  0.9818299999999999  0.18626  1.0000
  H   H25       1.0  0.14226  0.9655299999999999  0.29623  1.0000
  H   H26       1.0  0.14785  0.007400000000000004  0.44347999999999993  1.0000
  H   H27       1.0  0.20302000000000003  0.06828999999999999  0.46419999999999995  1.0000
  H   H28       1.0  0.2064  0.10491  0.29351  1.0000
  H   H29       1.0  0.25761  0.05652999999999996  0.44343999999999995  1.0000
  H   H30       1.0  0.25988  0.08128000000000002  0.26659  1.0000
  H   H31       1.0  0.2941599999999999  0.92966  0.23731999999999998  1.0000
  H   H32       1.0  0.30309  0.005889999999999952  0.31022  1.0000
  H   H33       1.0  0.25352  0.99251  0.10301  1.0000
  H   H34       1.0  0.24029  0.9096099999999999  0.17183  1.0000
  H   H35       1.0  0.18794999999999998  0.9378999999999998  0.15964  1.0000
  H   H36       1.0  0.20071  0.02326  0.10758999999999999  1.0000
  C   C41       1.0  0.77598  0.67296  0.72459  1.0000
  N   N7        1.0  0.7498  0.65097  0.82969  1.0000
  C   C42       1.0  0.75881  0.5914599999999999  0.9138  1.0000
  C   C43       1.0  0.7286  0.54978  0.97677  1.0000
  N   N8        1.0  0.70886  0.52354  0.87185  1.0000
  C   C44       1.0  0.71557  0.45361999999999997  0.84593  1.0000
  C   C45       1.0  0.68522  0.40726999999999997  0.8889099999999999  1.0000
  F   F13       1.0  0.66135  0.42139999999999994  0.8017599999999999  1.0000
  F   F14       1.0  0.67351  0.42018  0.01715  1.0000
  C   C46       1.0  0.69183  0.33219  0.8911  1.0000
  F   F15       1.0  0.66257  0.296  0.92153  1.0000
  F   F16       1.0  0.71197  0.31583  0.99282  1.0000
  C   C47       1.0  0.71032  0.56832  0.74591  1.0000
  C   C48       1.0  0.71782  0.6415  0.77183  1.0000
  H   H37       1.0  0.76786  0.7139499999999999  0.65567  1.0000
  H   H38       1.0  0.7824799999999995  0.63139  0.66233  1.0000
  H   H39       1.0  0.7733399999999999  0.60826  0.9955  1.0000
  H   H40       1.0  0.77401  0.55842  0.85409  1.0000
  H   H41       1.0  0.71334  0.58188  0.038269999999999804  1.0000
  H   H42       1.0  0.73605  0.50934  0.04876999999999998  1.0000
  H   H43       1.0  0.72193  0.44881  0.73737  1.0000
  H   H44       1.0  0.73674  0.43557999999999997  0.89905  1.0000
  H   H45       1.0  0.72961  0.55454  0.67131  1.0000
  H   H46       1.0  0.6865499999999999  0.5639499999999998  0.7002599999999999  1.0000
  H   H47       1.0  0.69847  0.65748  0.8436799999999999  1.0000
  H   H48       1.0  0.7163100000000001  0.67357  0.6769499999999999  1.0000
  C   C49       1.0  0.45154  0.6298699999999999  0.55057  1.0000
  N   N9        1.0  0.46404  0.56526  0.51559  1.0000
  C   C50       1.0  0.49195  0.57374  0.41228999999999993  1.0000
  C   C51       1.0  0.5252  0.5743499999999999  0.47358999999999996  1.0000
  N   N10       1.0  0.52922  0.5152999999999998  0.56897  1.0000
  C   C52       1.0  0.55455  0.47135999999999995  0.5206  1.0000
  C   C53       1.0  0.58872  0.49827999999999995  0.55125  1.0000
  F   F17       1.0  0.58869  0.50935  0.6864199999999999  1.0000
  F   F18       1.0  0.59629  0.55877  0.47746  1.0000
  C   C54       1.0  0.61558  0.45032  0.5149399999999998  1.0000
  F   F19       1.0  0.64553  0.48095999999999994  0.53352  1.0000
  F   F20       1.0  0.61514  0.43861999999999995  0.38033  1.0000
  C   C55       1.0  0.49831999999999993  0.47696999999999995  0.61211  1.0000
  C   C56       1.0  0.47115999999999997  0.52448  0.63912  1.0000
  H   H49       1.0  0.43517999999999996  0.62262  0.64448  1.0000
  H   H50       1.0  0.47188000000000013  0.66555  0.56891  1.0000
  H   H51       1.0  0.49083  0.62028  0.3455  1.0000
  H   H52       1.0  0.49045  0.53203  0.34603  1.0000
  H   H53       1.0  0.52783  0.61977  0.52902  1.0000
  H   H54       1.0  0.54436  0.57957  0.38906  1.0000
  H   H55       1.0  0.55033  0.4203799999999999  0.5725  1.0000
  H   H56       1.0  0.55345  0.46589999999999987  0.41107  1.0000
  H   H57       1.0  0.49124  0.44334999999999997  0.53449  1.0000
  H   H58       1.0  0.50134  0.44575999999999993  0.70678  1.0000
  H   H59       1.0  0.47883999999999993  0.5565599999999999  0.71856  1.0000
  H   H60       1.0  0.44866  0.49492999999999987  0.67954  1.0000
  C   C57       1.0  0.91745  0.90065  0.042019999999999946  1.0000
  N   N11       1.0  0.94673  0.9044699999999999  0.11905999999999994  1.0000
  C   C58       1.0  0.97695  0.91516  0.028920000000000053  1.0000
  C   C59       1.0  0.9851  0.98953  0.9850499999999999  1.0000
  N   N12       1.0  0.98357  0.03289  0.09904  1.0000
  C   C60       1.0  0.01243  0.07953999999999997  0.09908  1.0000
  C   C61       1.0  0.00567  0.14724  0.025279999999999997  1.0000
  F   F21       1.0  0.99028  0.18604999999999994  0.11642  1.0000
  F   F22       1.0  0.9847299999999999  0.13721  0.9252099999999999  1.0000
  C   C62       1.0  0.03653000000000001  0.18576999999999996  0.95836  1.0000
  F   F23       1.0  0.027049999999999994  0.24228  0.88589  1.0000
  F   F24       1.0  0.05235  0.14707  0.8683699999999999  1.0000
  C   C63       1.0  0.97497  0.9964899999999999  0.23116  1.0000
  C   C64       1.0  0.94373  0.9530699999999998  0.22326999999999997  1.0000
  H   H61       1.0  0.89522  0.9131499999999998  0.10264000000000005  1.0000
  H   H62       1.0  0.9199  0.93652  0.9509699999999999  1.0000
  H   H63       1.0  0.97532  0.8868299999999999  0.9382  1.0000
  H   H64       1.0  0.9975099999999999  0.89481  0.08248999999999994  1.0000
  H   H65       1.0  0.9674299999999999  0.00692  0.91272  1.0000
  H   H66       1.0  0.009300000000000083  0.9935499999999999  0.9276099999999999  1.0000
  H   H67       1.0  0.01812  0.08879999999999999  0.20352  1.0000
  H   H68       1.0  0.03466  0.05811  0.05447000000000002  1.0000
  H   H69       1.0  0.99511  0.96544  0.26331  1.0000
  H   H70       1.0  0.97015  0.0325899999999999  0.30803  1.0000
  H   H71       1.0  0.92406  0.9879299999999999  0.20403999999999997  1.0000
  H   H72       1.0  0.9372799999999999  0.9251899999999997  0.32255  1.0000
  C   C65       1.0  0.53861  0.21802  0.96325  1.0000
  N   N13       1.0  0.52792  0.15278  0.91849  1.0000
  C   C66       1.0  0.5463  0.09722  0.9764899999999999  1.0000
  C   C67       1.0  0.52974  0.06391  0.10905000000000001  1.0000
  N   N14       1.0  0.49491999999999997  0.04267  0.0998  1.0000
  C   C68       1.0  0.48858999999999997  0.96985  0.12769  1.0000
  C   C69       1.0  0.48301999999999995  0.95186  0.28068  1.0000
  F   F25       1.0  0.4541  0.97753  0.3269  1.0000
  F   F26       1.0  0.50794  0.98058  0.34648  1.0000
  C   C70       1.0  0.48188999999999993  0.87612  0.31772  1.0000
  F   F27       1.0  0.47746  0.86439  0.45626  1.0000
  F   F28       1.0  0.51141  0.85114  0.27672  1.0000
  C   C71       1.0  0.4817699999999999  0.06734  0.9727699999999999  1.0000
  C   C72       1.0  0.49201  0.1413  0.94057  1.0000
  H   H73       1.0  0.52266  0.25728  0.92503  1.0000
  H   H74       1.0  0.53685  0.2164  0.07511999999999999  1.0000
  H   H75       1.0  0.57164  0.11376  0.9942999999999999  1.0000
  H   H76       1.0  0.5485999999999999  0.05915999999999999  0.90213  1.0000
  H   H77       1.0  0.53097  0.09966999999999998  0.18788  1.0000
  H   H78       1.0  0.54458  0.021599999999999998  0.14129  1.0000
  H   H79       1.0  0.46623  0.9528099999999998  0.08079  1.0000
  H   H80       1.0  0.5089  0.9422  0.08308  1.0000
  H   H81       1.0  0.49044  0.03824000000000002  0.8881999999999999  1.0000
  H   H82       1.0  0.45472  0.06186999999999998  0.9834199999999998  1.0000
  H   H83       1.0  0.48194999999999993  0.16881999999999997  0.025279999999999997  1.0000
  H   H84       1.0  0.48071  0.15997  0.84822  1.0000
  C   C73       1.0  0.06676  0.34465  0.49443  1.0000
  N   N15       1.0  0.04086  0.38504  0.43968  1.0000
  C   C74       1.0  0.011510000000000001  0.38439000000000006  0.53509  1.0000
  C   C75       1.0  0.00982  0.44873  0.60779  1.0000
  N   N16       1.0  0.00816  0.50846  0.51194  1.0000
  C   C76       1.0  0.97416  0.5265  0.49426  1.0000
  C   C77       1.0  0.9622100000000001  0.57423  0.59839  1.0000
  F   F29       1.0  0.98468  0.6277799999999999  0.5972  1.0000
  F   F30       1.0  0.9594499999999999  0.54115  0.72583  1.0000
  C   C78       1.0  0.92886  0.60043  0.56428  1.0000
  F   F31       1.0  0.9071699999999999  0.5474099999999998  0.54798  1.0000
  F   F32       1.0  0.93261  0.64059  0.44458  1.0000
  C   C79       1.0  0.025890000000000003  0.50168  0.37940999999999997  1.0000
  C   C80       1.0  0.05354  0.45346999999999993  0.3898  1.0000
  H   H85       1.0  0.08327999999999999  0.37442  0.55298  1.0000
  H   H86       1.0  0.05626  0.30199  0.56378  1.0000
  H   H87       1.0  0.009789999999999998  0.34087999999999996  0.61123  1.0000
  H   H88       1.0  0.98957  0.3792  0.47733  1.0000
  H   H89       1.0  0.03198  0.45459  0.66405  1.0000
  H   H90       1.0  0.9888499999999999  0.44339999999999996  0.68456  1.0000
  H   H91       1.0  0.9723499999999998  0.5526899999999999  0.39292  1.0000
  H   H92       1.0  0.95748  0.48104  0.49991  1.0000
  H   H93       1.0  0.009259999999999997  0.48279999999999995  0.30596  1.0000
  H   H94       1.0  0.03632  0.5516199999999999  0.33815  1.0000
  H   H95       1.0  0.07137  0.47381  0.45675999999999994  1.0000
  H   H96       1.0  0.0661  0.4521599999999999  0.28812  1.0000
