data_image0
_chemical_formula_structural       OSmOCO2C2O3SmOCO2C2O3SmOCO2C2O3SmOCO2C2O3SmOCO2C2O3SmOCO2C2O2C5FCFC2FCFH6C5FCFC2FCFH6C5FCFC2FCFH6C5FCFC2FCFH6C5FCFC2FCFH6C5FCFC2FCFH6C5FCFC2FCFH6C5FCFC2FCFH6C5FCFC2FCFH6
_chemical_formula_sum              "O36 Sm6 C99 F36 H54"
_cell_length_a       38.0897
_cell_length_b       40.0082
_cell_length_c       30.2047
_cell_angle_alpha    95.8999
_cell_angle_beta     84.48260000000002
_cell_angle_gamma    122.7506

_symmetry_space_group_name_H-M    'P 1'
_symmetry_Int_Tables_number       1

loop_
  _symmetry_equiv_pos_as_xyz
  'x,y,z'

loop_
  _atom_site_type_symbol
  _atom_site_label
  _atom_site_symmetry_multiplicity
  _atom_site_fract_x
  _atom_site_fract_y
  _atom_site_fract_z
  _atom_site_occupancy
  O   O1        1.0  0.37145  0.57971  0.8887300000000001  1.0000
  Sm  Sm1       1.0  0.4047399999999999  0.5893  0.8220100000000002  1.0000
  O   O2        1.0  0.3354599999999998  0.5592899999999998  0.82981  1.0000
  C   C1        1.0  0.42221  0.63612  0.7571800000000002  1.0000
  O   O3        1.0  0.41051  0.64262  0.7966  1.0000
  O   O4        1.0  0.42416  0.60495  0.75164  1.0000
  C   C2        1.0  0.45762000000000014  0.5684  0.83515  1.0000
  C   C3        1.0  0.33538999999999997  0.56267  0.8724900000000002  1.0000
  O   O5        1.0  0.46914999999999996  0.60477  0.8326200000000002  1.0000
  O   O6        1.0  0.41838  0.54318  0.83141  1.0000
  O   O7        1.0  0.82332  0.38192  0.20904000000000003  1.0000
  Sm  Sm2       1.0  0.81457  0.38123  0.13716  1.0000
  O   O8        1.0  0.7869799999999997  0.32524  0.17225  1.0000
  C   C4        1.0  0.75228  0.36519  0.08913000000000003  1.0000
  O   O9        1.0  0.75178  0.37164  0.13159  1.0000
  O   O10       1.0  0.78489  0.36607  0.07209000000000003  1.0000
  C   C5        1.0  0.89155  0.43673  0.11274000000000003  1.0000
  C   C6        1.0  0.80237  0.34387  0.20943000000000006  1.0000
  O   O11       1.0  0.8612799999999999  0.44234  0.11566000000000003  1.0000
  O   O12       1.0  0.8815199999999999  0.40212  0.12244  1.0000
  O   O13       1.0  0.45019999999999993  0.85509  0.4739600000000001  1.0000
  Sm  Sm3       1.0  0.44593  0.79666  0.4659200000000001  1.0000
  O   O14       1.0  0.47985999999999995  0.84257  0.5209000000000001  1.0000
  C   C7        1.0  0.4168000000000001  0.7346000000000001  0.5175500000000001  1.0000
  O   O15       1.0  0.40735999999999994  0.76057  0.52495  1.0000
  O   O16       1.0  0.44136  0.74081  0.4837400000000001  1.0000
  C   C8        1.0  0.3664099999999999  0.75477  0.44013000000000013  1.0000
  C   C9        1.0  0.47161999999999993  0.86706  0.50857  1.0000
  O   O17       1.0  0.37694000000000005  0.7725100000000001  0.4782200000000001  1.0000
  O   O18       1.0  0.3970099999999999  0.7592199999999999  0.41509  1.0000
  O   O19       1.0  0.55181  0.13545  0.49164000000000013  1.0000
  Sm  Sm4       1.0  0.60852  0.19692  0.4966000000000001  1.0000
  O   O20       1.0  0.6120199999999999  0.1445  0.47126  1.0000
  C   C10       1.0  0.66264  0.24873999999999996  0.43898  1.0000
  O   O21       1.0  0.62593  0.2201  0.42851  1.0000
  O   O22       1.0  0.6705699999999997  0.25051  0.47974000000000006  1.0000
  C   C11       1.0  0.59213  0.22082000000000002  0.5765400000000003  1.0000
  C   C12       1.0  0.57261  0.11961999999999999  0.47684  1.0000
  O   O23       1.0  0.5900399999999998  0.23396  0.54054  1.0000
  O   O24       1.0  0.60308  0.19547  0.5705800000000002  1.0000
  O   O25       1.0  0.15263000000000002  0.64933  0.15073000000000006  1.0000
  Sm  Sm5       1.0  0.19457  0.62784  0.1589  1.0000
  O   O26       1.0  0.12918999999999994  0.58662  0.13794000000000006  1.0000
  C   C13       1.0  0.23381999999999997  0.60135  0.10445  1.0000
  O   O27       1.0  0.22035000000000002  0.62173  0.09139000000000003  1.0000
  O   O28       1.0  0.22648  0.59441  0.14592  1.0000
  C   C14       1.0  0.22911  0.6699  0.23278000000000004  1.0000
  C   C15       1.0  0.12190999999999998  0.61448  0.13953  1.0000
  O   O29       1.0  0.24905000000000005  0.67708  0.19477000000000005  1.0000
  O   O30       1.0  0.19114  0.6402  0.23232000000000005  1.0000
  O   O31       1.0  0.62609  0.48237  0.86125  1.0000
  Sm  Sm6       1.0  0.64747  0.44034  0.8382300000000003  1.0000
  O   O32       1.0  0.58734  0.42263000000000006  0.8786200000000002  1.0000
  C   C16       1.0  0.65916  0.43215  0.9220100000000002  1.0000
  O   O33       1.0  0.6258699999999998  0.40824  0.9019900000000002  1.0000
  O   O34       1.0  0.6864999999999997  0.46014  0.8985300000000003  1.0000
  C   C17       1.0  0.61475  0.37453  0.7850700000000003  1.0000
  C   C18       1.0  0.59232  0.45667  0.88065  1.0000
  O   O35       1.0  0.6439799999999998  0.38443  0.8108900000000002  1.0000
  O   O36       1.0  0.6023999999999999  0.39863  0.7871600000000002  1.0000
  C   C19       1.0  0.29598  0.54894  0.90107  1.0000
  C   C20       1.0  0.28942  0.52067  0.93642  1.0000
  C   C21       1.0  0.31551  0.54215  0.97779  1.0000
  C   C22       1.0  0.29499  0.55795  0.011430000000000003  1.0000
  C   C23       1.0  0.30615  0.59775  0.011860000000000004  1.0000
  F   F1        1.0  0.33624000000000004  0.6229800000000001  0.9827600000000002  1.0000
  C   C24       1.0  0.28631  0.6119  0.04232  1.0000
  F   F2        1.0  0.29749  0.65038  0.041880000000000014  1.0000
  C   C25       1.0  0.25595  0.58686  0.07374  1.0000
  C   C26       1.0  0.24618  0.54769  0.07478  1.0000
  F   F3        1.0  0.2173  0.52313  0.10521000000000003  1.0000
  C   C27       1.0  0.2650999999999999  0.53313  0.04350000000000001  1.0000
  F   F4        1.0  0.25405  0.49471999999999994  0.04434000000000001  1.0000
  H   H1        1.0  0.29632  0.5753  0.91705  1.0000
  H   H2        1.0  0.26905  0.53302  0.87907  1.0000
  H   H3        1.0  0.29702999999999996  0.49875  0.92098  1.0000
  H   H4        1.0  0.2557  0.50325  0.94712  1.0000
  H   H5        1.0  0.34762  0.56645  0.96818  1.0000
  H   H6        1.0  0.31944  0.52069  0.9939000000000002  1.0000
  C   C28       1.0  0.79707  0.32224  0.24979000000000004  1.0000
  C   C29       1.0  0.81493  0.35017  0.29175  1.0000
  C   C30       1.0  0.7853699999999999  0.36275  0.31402  1.0000
  C   C31       1.0  0.75326  0.33262  0.34582  1.0000
  C   C32       1.0  0.71161  0.3061  0.33414  1.0000
  F   F5        1.0  0.6993599999999998  0.30672  0.29362000000000005  1.0000
  C   C33       1.0  0.68218  0.27857  0.36413  1.0000
  F   F6        1.0  0.64232  0.25335  0.35156  1.0000
  C   C34       1.0  0.6937099999999998  0.27743  0.40668  1.0000
  C   C35       1.0  0.7355  0.30414  0.41819  1.0000
  F   F7        1.0  0.7482599999999999  0.30385  0.4585200000000001  1.0000
  C   C36       1.0  0.76487  0.33135  0.3880900000000001  1.0000
  F   F8        1.0  0.80481  0.35681  0.40038  1.0000
  H   H7        1.0  0.76347  0.29941  0.25596  1.0000
  H   H8        1.0  0.8136999999999999  0.30638000000000004  0.24214000000000005  1.0000
  H   H9        1.0  0.8456999999999999  0.37713  0.28311  1.0000
  H   H10       1.0  0.82133  0.33502  0.31569  1.0000
  H   H11       1.0  0.77013  0.3679299999999999  0.2883  1.0000
  H   H12       1.0  0.80408  0.3919  0.3328900000000001  1.0000
  C   C37       1.0  0.66553  0.42891  0.9692500000000002  1.0000
  C   C38       1.0  0.6272  0.39321  0.9915600000000002  1.0000
  C   C39       1.0  0.62676  0.35442  0.98275  1.0000
  C   C40       1.0  0.65819  0.35449  0.00988  1.0000
  C   C41       1.0  0.6951399999999998  0.35901  0.9895200000000002  1.0000
  F   F9        1.0  0.70287  0.36242  0.9448700000000002  1.0000
  C   C42       1.0  0.72506  0.36116  0.01511  1.0000
  F   F10       1.0  0.7607499999999998  0.36651  0.9942100000000001  1.0000
  C   C43       1.0  0.7187499999999998  0.35898  0.06170000000000001  1.0000
  C   C44       1.0  0.6810499999999998  0.35307  0.08186  1.0000
  F   F11       1.0  0.67318  0.34978  0.1265  1.0000
  C   C45       1.0  0.65101  0.3506  0.05613000000000001  1.0000
  F   F12       1.0  0.61482  0.34454  0.07645  1.0000
  H   H13       1.0  0.69373  0.42745  0.9701400000000001  1.0000
  H   H14       1.0  0.6718899999999998  0.45674  0.9883700000000002  1.0000
  H   H15       1.0  0.59786  0.38842  0.98002  1.0000
  H   H16       1.0  0.62679  0.40051  0.027970000000000054  1.0000
  H   H17       1.0  0.63237  0.34981  0.94653  1.0000
  H   H18       1.0  0.5951  0.32886  0.9917100000000002  1.0000
  C   C46       1.0  0.32195  0.72897  0.4270800000000001  1.0000
  C   C47       1.0  0.29925  0.75143  0.4312700000000001  1.0000
  C   C48       1.0  0.30592  0.77381  0.3897900000000001  1.0000
  C   C49       1.0  0.28583000000000003  0.74577  0.34956  1.0000
  C   C50       1.0  0.31065  0.74285  0.31373  1.0000
  F   F13       1.0  0.35292999999999997  0.76416  0.3152200000000001  1.0000
  C   C51       1.0  0.2921299999999999  0.7176499999999999  0.27615000000000006  1.0000
  F   F14       1.0  0.31709  0.71536  0.24235  1.0000
  C   C52       1.0  0.2483899999999998  0.6947399999999999  0.27366  1.0000
  C   C53       1.0  0.22348999999999997  0.69711  0.30983  1.0000
  F   F15       1.0  0.18120999999999995  0.67583  0.30835  1.0000
  C   C54       1.0  0.24204999999999996  0.72258  0.3473100000000001  1.0000
  F   F16       1.0  0.21724999999999994  0.7251899999999999  0.38108  1.0000
  H   H19       1.0  0.32067  0.71534  0.3928500000000001  1.0000
  H   H20       1.0  0.3056099999999999  0.70415  0.4497200000000001  1.0000
  H   H21       1.0  0.30977999999999994  0.77297  0.4608000000000001  1.0000
  H   H22       1.0  0.26529  0.72973  0.43751000000000007  1.0000
  H   H23       1.0  0.33994000000000013  0.79494  0.38316  1.0000
  H   H24       1.0  0.29208  0.79225  0.39689  1.0000
  C   C55       1.0  0.39951  0.69926  0.54491  1.0000
  C   C56       1.0  0.43426999999999993  0.69721  0.5637800000000002  1.0000
  C   C57       1.0  0.45420999999999995  0.72695  0.60423  1.0000
  C   C58       1.0  0.44748999999999994  0.70566  0.6456900000000001  1.0000
  C   C59       1.0  0.41863999999999996  0.70307  0.6801400000000002  1.0000
  F   F17       1.0  0.3962999999999998  0.72  0.6769600000000002  1.0000
  C   C60       1.0  0.4114699999999999  0.68173  0.7174600000000002  1.0000
  F   F18       1.0  0.38278  0.67894  0.74973  1.0000
  C   C61       1.0  0.43249999999999994  0.66206  0.7204600000000002  1.0000
  C   C62       1.0  0.46208999999999995  0.66559  0.6865700000000002  1.0000
  F   F19       1.0  0.48422999999999994  0.64843  0.6895300000000002  1.0000
  C   C63       1.0  0.46948  0.68711  0.64954  1.0000
  F   F20       1.0  0.4976  0.68926  0.6168700000000003  1.0000
  H   H25       1.0  0.37818999999999997  0.69976  0.57237  1.0000
  H   H26       1.0  0.38063  0.67199  0.52315  1.0000
  H   H27       1.0  0.45883  0.70269  0.53726  1.0000
  H   H28       1.0  0.42057999999999995  0.66614  0.5729400000000002  1.0000
  H   H29       1.0  0.44202  0.74679  0.6100200000000001  1.0000
  H   H30       1.0  0.48833  0.74703  0.5969900000000001  1.0000
  C   C64       1.0  0.5967699999999999  0.33815  0.7538500000000002  1.0000
  C   C65       1.0  0.58085  0.30017  0.7781300000000002  1.0000
  C   C66       1.0  0.54616  0.26277  0.7534300000000002  1.0000
  C   C67       1.0  0.56046  0.25433  0.7074800000000002  1.0000
  C   C68       1.0  0.54942  0.26308  0.6691  1.0000
  F   F21       1.0  0.52744  0.28103  0.67264  1.0000
  C   C69       1.0  0.5603499999999999  0.2529  0.6266100000000002  1.0000
  F   F22       1.0  0.5483699999999998  0.26114  0.59046  1.0000
  C   C70       1.0  0.5821999999999999  0.23333000000000007  0.6215600000000002  1.0000
  C   C71       1.0  0.59351  0.2249  0.6600900000000002  1.0000
  F   F23       1.0  0.6147699999999999  0.20627  0.65683  1.0000
  C   C72       1.0  0.5829  0.23546000000000003  0.7025600000000002  1.0000
  F   F24       1.0  0.5936099999999999  0.22625999999999996  0.7389900000000001  1.0000
  H   H31       1.0  0.5708899999999998  0.33591  0.73684  1.0000
  H   H32       1.0  0.62132  0.34185  0.7281500000000002  1.0000
  H   H33       1.0  0.5678100000000001  0.30271  0.8119700000000002  1.0000
  H   H34       1.0  0.60738  0.2967600000000001  0.7825000000000002  1.0000
  H   H35       1.0  0.5192  0.26604  0.7514400000000002  1.0000
  H   H36       1.0  0.53448  0.23673  0.7737  1.0000
  C   C73       1.0  0.56091  0.46504000000000006  0.9036900000000002  1.0000
  C   C74       1.0  0.5727999999999999  0.50806  0.9001900000000003  1.0000
  C   C75       1.0  0.57266  0.51773  0.85195  1.0000
  C   C76       1.0  0.54321  0.53151  0.8482900000000002  1.0000
  C   C77       1.0  0.49995999999999996  0.50357  0.8485700000000003  1.0000
  F   F25       1.0  0.48459  0.46432  0.8516  1.0000
  C   C78       1.0  0.47219  0.51569  0.8452300000000003  1.0000
  F   F26       1.0  0.4305999999999999  0.48764  0.8460100000000003  1.0000
  C   C79       1.0  0.48716  0.55608  0.8410800000000002  1.0000
  C   C80       1.0  0.53059  0.58419  0.8413100000000002  1.0000
  F   F27       1.0  0.5463599999999998  0.62349  0.8379500000000002  1.0000
  C   C81       1.0  0.5583499999999999  0.57194  0.84476  1.0000
  F   F28       1.0  0.6000199999999999  0.59969  0.8446900000000003  1.0000
  H   H37       1.0  0.52997  0.444  0.88941  1.0000
  H   H38       1.0  0.55796  0.45922  0.9394600000000002  1.0000
  H   H39       1.0  0.60423  0.52905  0.91359  1.0000
  H   H40       1.0  0.55048  0.51257  0.9224700000000002  1.0000
  H   H41       1.0  0.5635999999999999  0.4915300000000001  0.82809  1.0000
  H   H42       1.0  0.6050099999999998  0.54092  0.84111  1.0000
  C   C82       1.0  0.08032  0.60695  0.12968  1.0000
  C   C83       1.0  0.07368999999999998  0.60084  0.07943000000000001  1.0000
  C   C84       1.0  0.06151999999999999  0.5591  0.05973000000000001  1.0000
  C   C85       1.0  0.017370000000000024  0.52728  0.07382  1.0000
  C   C86       1.0  0.009770000000000037  0.49754999999999994  0.10141  1.0000
  F   F29       1.0  0.04195999999999999  0.4971900000000001  0.11660000000000002  1.0000
  C   C87       1.0  0.9688299999999999  0.46791  0.11377000000000002  1.0000
  F   F30       1.0  0.9625999999999999  0.43977  0.14063000000000006  1.0000
  C   C88       1.0  0.93475  0.46784  0.09936  1.0000
  C   C89       1.0  0.9423399999999998  0.49760000000000004  0.07189  1.0000
  F   F31       1.0  0.91014  0.49801  0.05679000000000001  1.0000
  C   C90       1.0  0.9831999999999999  0.5266  0.05859000000000002  1.0000
  F   F32       1.0  0.98938  0.55369  0.0302  1.0000
  H   H43       1.0  0.0549  0.58107  0.14766  1.0000
  H   H44       1.0  0.07906000000000013  0.6333500000000002  0.14261000000000004  1.0000
  H   H45       1.0  0.10261999999999999  0.62355  0.06152000000000001  1.0000
  H   H46       1.0  0.049100000000000005  0.60644  0.07332000000000002  1.0000
  H   H47       1.0  0.08447999999999999  0.5524  0.06892  1.0000
  H   H48       1.0  0.06399000000000002  0.55915  0.02279  1.0000
  C   C91       1.0  0.48456  0.90583  0.5339900000000002  1.0000
  C   C92       1.0  0.51724  0.94218  0.50831  1.0000
  C   C93       1.0  0.49994999999999995  0.9489  0.46821  1.0000
  C   C94       1.0  0.5175899999999999  0.99276  0.4648500000000001  1.0000
  C   C95       1.0  0.49223  0.008420000000000006  0.4751700000000001  1.0000
  F   F33       1.0  0.4506800000000001  0.9840200000000001  0.4850600000000001  1.0000
  C   C96       1.0  0.50976  0.04957  0.47725  1.0000
  F   F34       1.0  0.48442999999999997  0.06352000000000001  0.4889000000000001  1.0000
  C   C97       1.0  0.5530399999999999  0.07596000000000001  0.4689700000000001  1.0000
  C   C98       1.0  0.5779  0.05997  0.45617000000000013  1.0000
  F   F35       1.0  0.6195799999999999  0.08415  0.44705  1.0000
  C   C99       1.0  0.56034  0.018850000000000006  0.4542400000000001  1.0000
  F   F36       1.0  0.58544  0.004480000000000008  0.44357000000000013  1.0000
  H   H49       1.0  0.4565299999999999  0.9072799999999999  0.54346  1.0000
  H   H50       1.0  0.49811  0.90677  0.56541  1.0000
  H   H51       1.0  0.54431  0.93953  0.497  1.0000
  H   H52       1.0  0.52909  0.96842  0.5326100000000001  1.0000
  H   H53       1.0  0.46530999999999995  0.93209  0.47116000000000013  1.0000
  H   H54       1.0  0.50824  0.93687  0.43698  1.0000
