data_image0
_chemical_formula_structural       Mn5CN8C2N8CN16Cl2C14NC4H21C10NC4H21C10NC4H21C10NC4H21
_chemical_formula_sum              "Mn5 C64 N36 Cl2 H84"
_cell_length_a       17.4752
_cell_length_b       17.0553
_cell_length_c       17.8909
_cell_angle_alpha    130.6923
_cell_angle_beta     83.5885
_cell_angle_gamma    128.9309

_symmetry_space_group_name_H-M    'P 1'
_symmetry_Int_Tables_number       1

loop_
  _symmetry_equiv_pos_as_xyz
  'x,y,z'

loop_
  _atom_site_type_symbol
  _atom_site_label
  _atom_site_symmetry_multiplicity
  _atom_site_fract_x
  _atom_site_fract_y
  _atom_site_fract_z
  _atom_site_occupancy
  Mn  Mn1       1.0  0.20191999999999993  0.5829199999999999  0.4268199999999999  1.0000
  Mn  Mn2       1.0  0.9323300000000001  0.21801000000000004  0.23974  1.0000
  Mn  Mn3       1.0  0.74129  0.36045  0.6033  1.0000
  Mn  Mn4       1.0  0.96751  0.74305  0.77058  1.0000
  Mn  Mn5       1.0  0.9448  0.9741500000000001  0.00527  1.0000
  C   C1        1.0  0.06521000000000003  0.5383  0.27412  1.0000
  N   N1        1.0  0.06901999999999997  0.50257  0.32213  1.0000
  N   N2        1.0  0.9619599999999999  0.36923  0.26499  1.0000
  N   N3        1.0  0.89479  0.32507  0.18752999999999997  1.0000
  N   N4        1.0  0.95614  0.42774000000000006  0.19108  1.0000
  N   N5        1.0  0.72679  0.007789999999999998  0.03742  1.0000
  N   N6        1.0  0.81697  0.04561  0.07422  1.0000
  N   N7        1.0  0.8144600000000002  0.94767  0.98789  1.0000
  N   N8        1.0  0.72212  0.84323  0.89059  1.0000
  C   C2        1.0  0.6689700000000002  0.8837800000000001  0.92362  1.0000
  C   C3        1.0  0.9177299999999999  0.96806  0.2356  1.0000
  N   N9        1.0  0.9198700000000001  0.07559999999999996  0.21236999999999998  1.0000
  N   N10       1.0  0.8954600000000001  0.04582000000000001  0.26783  1.0000
  N   N11       1.0  0.057700000000000036  0.20149  0.11073  1.0000
  N   N12       1.0  0.05952  0.27743  0.20831999999999998  1.0000
  N   N13       1.0  0.16348  0.39525  0.29398  1.0000
  N   N14       1.0  0.22979000000000008  0.38759000000000005  0.24959  1.0000
  N   N15       1.0  0.9523800000000001  0.017269999999999997  0.14614  1.0000
  N   N16       1.0  0.9572100000000001  0.9548200000000001  0.1628  1.0000
  C   C4        1.0  0.17099000000000006  0.2954000000000001  0.1407099999999999  1.0000
  N   N17       1.0  0.9036700000000002  0.49283999999999994  0.7032199999999998  1.0000
  N   N18       1.0  0.9901800000000001  0.6323500000000001  0.7547599999999999  1.0000
  N   N19       1.0  0.0884699999999999  0.6901499999999999  0.8028999999999998  1.0000
  N   N20       1.0  0.06660000000000002  0.58828  0.78589  1.0000
  N   N21       1.0  0.1880699999999999  0.98531  0.97565  1.0000
  N   N22       1.0  0.0882899999999999  0.9291999999999999  0.9364999999999999  1.0000
  N   N23       1.0  0.07544000000000002  0.0025599999999998944  0.021729999999999996  1.0000
  N   N24       1.0  0.16834  0.11313  0.12013  1.0000
  N   N25       1.0  0.94564  0.020740000000000088  0.87318  1.0000
  N   N26       1.0  0.9388700000000003  0.9394400000000002  0.87316  1.0000
  N   N27       1.0  0.9463000000000003  0.85586  0.7868799999999999  1.0000
  N   N28       1.0  0.9633300000000004  0.88601  0.73105  1.0000
  N   N29       1.0  0.83174  0.74315  0.89139  1.0000
  N   N30       1.0  0.84329  0.6638  0.8075  1.0000
  N   N31       1.0  0.7568700000000004  0.51854  0.74357  1.0000
  N   N32       1.0  0.6853099999999999  0.49643999999999994  0.78301  1.0000
  Cl  Cl1       1.0  0.06578000000000009  0.41944000000000004  0.42816  1.0000
  Cl  Cl2       1.0  0.82258  0.51585  0.58593  1.0000
  C   C5        1.0  0.9511500000000002  0.4662499999999999  0.7253099999999999  1.0000
  C   C6        1.0  0.23691  0.09951  0.08968  1.0000
  C   C7        1.0  0.95923  0.98584  0.78412  1.0000
  C   C8        1.0  0.7315999999999999  0.6367999999999999  0.87497  1.0000
  C   C9        1.0  0.7116999999999999  0.68051  0.97312  1.0000
  C   C10       1.0  0.59575  0.5768900000000001  0.96013  1.0000
  C   C11       1.0  0.54486  0.4425700000000001  0.92168  1.0000
  C   C12       1.0  0.5874900000000001  0.37493  0.8656500000000001  1.0000
  C   C13       1.0  0.45781000000000005  0.37689  0.94362  1.0000
  C   C14       1.0  0.37646  0.20974000000000007  0.86981  1.0000
  C   C15       1.0  0.44618  0.46674  0.030569999999999996  1.0000
  C   C16       1.0  0.37967999999999996  0.4203699999999999  0.08182  1.0000
  C   C17       1.0  0.26605000000000006  0.36336999999999997  0.04312000000000005  1.0000
  C   C18       1.0  0.22508  0.40132  0.13108000000000009  1.0000
  N   N33       1.0  0.3143800000000001  0.57166  0.24551999999999996  1.0000
  C   C19       1.0  0.49871000000000004  0.60193  0.07003  1.0000
  C   C20       1.0  0.49793000000000015  0.7108000000000001  0.168  1.0000
  C   C21       1.0  0.55903  0.64256  0.02178  1.0000
  C   C22       1.0  0.5972300000000001  0.7710700000000001  0.04995  1.0000
  H   H1        1.0  0.7663300000000002  0.69896  0.02033  1.0000
  H   H2        1.0  0.7479000000000002  0.7917900000000002  0.026249999999999996  1.0000
  H   H3        1.0  0.5464700000000002  0.2987500000000002  0.77352  1.0000
  H   H4        1.0  0.5696200000000001  0.30836000000000025  0.8756800000000001  1.0000
  H   H5        1.0  0.68172  0.46682  0.90697  1.0000
  H   H6        1.0  0.2973000000000002  0.15826000000000007  0.8742200000000001  1.0000
  H   H7        1.0  0.34779000000000004  0.13853000000000001  0.77791  1.0000
  H   H8        1.0  0.41847999999999996  0.19398999999999994  0.89178  1.0000
  H   H9        1.0  0.43358000000000013  0.5169000000000001  0.17608999999999997  1.0000
  H   H10       1.0  0.36282000000000003  0.3314  0.05938  1.0000
  H   H11       1.0  0.27007  0.40657000000000004  0.01475000000000004  1.0000
  H   H12       1.0  0.19903000000000007  0.2373500000000001  0.96784  1.0000
  H   H13       1.0  0.1532800000000001  0.37152000000000013  0.09201999999999999  1.0000
  H   H14       1.0  0.27236000000000005  0.59612  0.28537  1.0000
  H   H15       1.0  0.3828200000000001  0.62231  0.31022  1.0000
  H   H16       1.0  0.44744  0.71264  0.13817  1.0000
  H   H17       1.0  0.587  0.82821  0.23523  1.0000
  H   H18       1.0  0.46249000000000007  0.68255  0.21059  1.0000
  H   H19       1.0  0.5367500000000001  0.77733  0.06096000000000001  1.0000
  H   H20       1.0  0.68441  0.88362  0.12721  1.0000
  H   H21       1.0  0.6004  0.7483699999999999  0.9768899999999999  1.0000
  C   C23       1.0  0.89014  0.34433  0.7144799999999999  1.0000
  C   C24       1.0  0.95591  0.41873999999999983  0.8285099999999999  1.0000
  C   C25       1.0  0.027400000000000355  0.40739000000000014  0.83905  1.0000
  C   C26       1.0  0.023330000000000347  0.29947000000000024  0.7325700000000002  1.0000
  C   C27       1.0  0.10744000000000005  0.5038200000000003  0.94963  1.0000
  C   C28       1.0  0.19883000000000037  0.5137500000000003  0.9615400000000001  1.0000
  C   C29       1.0  0.10252  0.59224  0.04703  1.0000
  C   C30       1.0  0.1912  0.70399  0.16869  1.0000
  C   C31       1.0  0.17477999999999994  0.62238  0.19209  1.0000
  C   C32       1.0  0.16169  0.67394  0.29937  1.0000
  N   N34       1.0  0.2697000000000002  0.7968400000000002  0.40391  1.0000
  C   C33       1.0  0.018569999999999996  0.58416  0.03309  1.0000
  C   C34       1.0  0.99729  0.653  0.13016  1.0000
  C   C35       1.0  0.95526  0.51268  0.92809  1.0000
  C   C36       1.0  0.8908400000000001  0.5421800000000001  0.9231100000000001  1.0000
  H   H22       1.0  0.7977100000000003  0.27330000000000004  0.6859699999999999  1.0000
  H   H23       1.0  0.88782  0.2621  0.64227  1.0000
  H   H24       1.0  0.0728899999999999  0.28712  0.74728  1.0000
  H   H25       1.0  0.05732000000000004  0.34169999999999984  0.6976199999999999  1.0000
  H   H26       1.0  0.9344500000000001  0.18209  0.66785  1.0000
  H   H27       1.0  0.1592  0.40822  0.92904  1.0000
  H   H28       1.0  0.23759  0.52452  0.91071  1.0000
  H   H29       1.0  0.26992000000000005  0.6112400000000001  0.04926999999999992  1.0000
  H   H30       1.0  0.19353  0.78983  0.23517000000000002  1.0000
  H   H31       1.0  0.27882  0.78012  0.18394  1.0000
  H   H32       1.0  0.09967000000000022  0.4957000000000001  0.11432  1.0000
  H   H33       1.0  0.25062000000000006  0.64718  0.20295  1.0000
  H   H34       1.0  0.13323000000000002  0.7232400000000001  0.31713  1.0000
  H   H35       1.0  0.26167  0.77901  0.45135  1.0000
  H   H36       1.0  0.3357700000000002  0.8156700000000001  0.38950999999999997  1.0000
  H   H37       1.0  0.9084800000000001  0.59435  0.10032  1.0000
  H   H38       1.0  0.05904000000000008  0.7763600000000002  0.1859  1.0000
  H   H39       1.0  0.008189999999999977  0.64117  0.181  1.0000
  H   H40       1.0  0.91102  0.63516  0.00827  1.0000
  H   H41       1.0  0.9185900000000001  0.58733  0.89096  1.0000
  H   H42       1.0  0.7975700000000001  0.4339600000000001  0.86708  1.0000
  C   C37       1.0  0.36026  0.21721  0.16971  1.0000
  C   C38       1.0  0.4059900000000001  0.15117  0.12536  1.0000
  C   C39       1.0  0.48991  0.20066  0.09492  1.0000
  C   C40       1.0  0.5220900000000003  0.30269  0.09041000000000009  1.0000
  C   C41       1.0  0.54036  0.15147  0.06622  1.0000
  C   C42       1.0  0.6481  0.23361  0.06160000000000009  1.0000
  C   C43       1.0  0.48918000000000006  0.026550000000000074  0.04222  1.0000
  C   C44       1.0  0.5425800000000002  0.97259  0.01368  1.0000
  C   C45       1.0  0.53091  0.88897  0.8934799999999999  1.0000
  C   C46       1.0  0.5543099999999997  0.7944799999999997  0.84455  1.0000
  N   N35       1.0  0.46024  0.6537  0.80906  1.0000
  C   C47       1.0  0.39208000000000015  0.9592500000000003  0.05363  1.0000
  C   C48       1.0  0.31963  0.806  0.004  1.0000
  C   C49       1.0  0.36061000000000004  0.033740000000000096  0.10887  1.0000
  C   C50       1.0  0.28067  0.99056  0.15244  1.0000
  H   H43       1.0  0.40442  0.31048  0.18214  1.0000
  H   H44       1.0  0.37620000000000003  0.2748600000000001  0.25631  1.0000
  H   H45       1.0  0.5700600000000001  0.31262000000000006  0.045700000000000074  1.0000
  H   H46       1.0  0.5726200000000001  0.4187  0.178  1.0000
  H   H47       1.0  0.44314  0.25416  0.04347999999999999  1.0000
  H   H48       1.0  0.62473  0.1765200000000001  0.97346  1.0000
  H   H49       1.0  0.7009500000000001  0.3562  0.12326999999999999  1.0000
  H   H50       1.0  0.7051300000000001  0.23596  0.08621999999999999  1.0000
  H   H51       1.0  0.5075  0.89857  0.02109  1.0000
  H   H52       1.0  0.6326400000000002  0.07448000000000003  0.0819  1.0000
  H   H53       1.0  0.4427999999999999  0.8098499999999998  0.8310899999999999  1.0000
  H   H54       1.0  0.59001  0.97453  0.89584  1.0000
  H   H55       1.0  0.5555200000000001  0.76  0.76638  1.0000
  H   H56       1.0  0.4761999999999999  0.5902099999999999  0.77357  1.0000
  H   H57       1.0  0.45789999999999975  0.6824399999999998  0.8811899999999999  1.0000
  H   H58       1.0  0.22909000000000004  0.7411000000000001  0.9756800000000001  1.0000
  H   H59       1.0  0.35207  0.82418  0.06925  1.0000
  H   H60       1.0  0.3194000000000001  0.73203  0.9258299999999999  1.0000
  H   H61       1.0  0.27039000000000013  0.92224  0.15616  1.0000
  H   H62       1.0  0.31665999999999994  0.09596000000000005  0.2417  1.0000
  H   H63       1.0  0.19493000000000008  0.92385  0.09779  1.0000
  C   C51       1.0  0.002510000000000235  0.0872200000000002  0.7760700000000001  1.0000
  C   C52       1.0  0.9991100000000002  0.027060000000000015  0.66439  1.0000
  C   C53       1.0  0.10188999999999997  0.09305999999999989  0.66185  1.0000
  C   C54       1.0  0.20779000000000006  0.18210999999999997  0.75245  1.0000
  C   C55       1.0  0.10551000000000002  0.07160999999999997  0.57142  1.0000
  C   C56       1.0  0.22075000000000003  0.16959999999999997  0.58245  1.0000
  C   C57       1.0  0.002080000000000257  0.9510699999999999  0.4683899999999999  1.0000
  C   C58       1.0  0.00791000000000037  0.8987500000000003  0.36083999999999994  1.0000
  C   C59       1.0  0.018220000000000083  0.9766800000000001  0.33703  1.0000
  C   C60       1.0  0.9045699999999999  0.90935  0.27956  1.0000
  N   N36       1.0  0.8151700000000001  0.7417499999999999  0.18563999999999997  1.0000
  C   C61       1.0  0.8960000000000005  0.86827  0.46473  1.0000
  C   C62       1.0  0.7834  0.72267  0.3528899999999999  1.0000
  C   C63       1.0  0.8963800000000003  0.9203500000000001  0.56727  1.0000
  C   C64       1.0  0.7906400000000002  0.86946  0.57802  1.0000
  H   H64       1.0  0.95653  0.11653000000000008  0.7954499999999999  1.0000
  H   H65       1.0  0.08979000000000004  0.19775000000000015  0.8490200000000001  1.0000
  H   H66       1.0  0.26660999999999996  0.30752  0.8185400000000002  1.0000
  H   H67       1.0  0.25172  0.15324000000000002  0.7118  1.0000
  H   H68       1.0  0.18643000000000007  0.14750000000000005  0.79274  1.0000
  H   H69       1.0  0.21855000000000002  0.18787  0.53403  1.0000
  H   H70       1.0  0.2866699999999999  0.28641000000000005  0.67248  1.0000
  H   H71       1.0  0.24709  0.11359999999999992  0.5509  1.0000
  H   H72       1.0  0.93621  0.77353  0.28472  1.0000
  H   H73       1.0  0.08192  0.91864  0.3667  1.0000
  H   H74       1.0  0.07875000000000003  0.10144000000000003  0.41798  1.0000
  H   H75       1.0  0.05565999999999993  0.9642999999999998  0.28039  1.0000
  H   H76       1.0  0.88056  0.94598  0.34694  1.0000
  H   H77       1.0  0.7346699999999999  0.69407  0.1572  1.0000
  H   H78       1.0  0.8302100000000001  0.6967900000000001  0.11767  1.0000
  H   H79       1.0  0.7158700000000002  0.64866  0.35714  1.0000
  H   H80       1.0  0.7863  0.64562  0.2819  1.0000
  H   H81       1.0  0.75534  0.7506900000000001  0.32985  1.0000
  H   H82       1.0  0.7754900000000001  0.8263499999999999  0.61024  1.0000
  H   H83       1.0  0.8066200000000001  0.97031  0.64178  1.0000
  H   H84       1.0  0.7119299999999998  0.7834700000000001  0.50015  1.0000
