data_image0
_chemical_formula_structural       Mn5CN8C2N8CN16Cl2C5NCOC12H11CNCOC12H11CNCOC12H11CNCOC12H11
_chemical_formula_sum              "Mn5 C64 N36 Cl2 O4 H44"
_cell_length_a       20.0586
_cell_length_b       20.1109
_cell_length_c       20.6348
_cell_angle_alpha    126.33619999999999
_cell_angle_beta     64.1879
_cell_angle_gamma    128.2594

_space_group_name_H-M_alt    "P 1"
_space_group_IT_number       1

loop_
  _space_group_symop_operation_xyz
  'x, y, z'

loop_
  _atom_site_type_symbol
  _atom_site_label
  _atom_site_symmetry_multiplicity
  _atom_site_fract_x
  _atom_site_fract_y
  _atom_site_fract_z
  _atom_site_occupancy
  Mn  Mn1       1.0  0.022300000000000084  0.38163000000000014  0.27354  1.0000
  Mn  Mn2       1.0  0.9054499999999998  0.14037  0.17967  1.0000
  Mn  Mn3       1.0  0.9577700000000002  0.6755300000000002  0.71625  1.0000
  Mn  Mn4       1.0  0.11806000000000001  0.89297  0.82729  1.0000
  Mn  Mn5       1.0  0.021569999999999995  0.02197  0.01299  1.0000
  C   C1        1.0  0.9402299999999999  0.3521700000000001  0.16521  1.0000
  N   N1        1.0  0.9242899999999998  0.31667  0.21255  1.0000
  N   N2        1.0  0.8973699999999999  0.22465  0.16325  1.0000
  N   N3        1.0  0.9156499999999999  0.21074000000000004  0.08796000000000002  1.0000
  N   N4        1.0  0.9437399999999998  0.28927  0.08736  1.0000
  N   N5        1.0  0.79634  0.011510000000000005  0.05297000000000002  1.0000
  N   N6        1.0  0.8673599999999998  0.04008  0.07219  1.0000
  N   N7        1.0  0.9148300000000001  0.009109999999999919  0.007679999999999909  1.0000
  N   N8        1.0  0.87556  0.95748  0.94224  1.0000
  C   C2        1.0  0.80112  0.95898  0.97234  1.0000
  C   C3        1.0  0.9508799999999998  0.99875  0.22202000000000005  1.0000
  N   N9        1.0  0.9271599999999999  0.055850000000000045  0.18122000000000005  1.0000
  N   N10       1.0  0.91394  0.048650000000000033  0.24568000000000004  1.0000
  N   N11       1.0  0.07425999999999999  0.16705  0.08209  1.0000
  N   N12       1.0  0.026840000000000048  0.20505000000000007  0.1389  1.0000
  N   N13       1.0  0.07202000000000001  0.2988  0.17372000000000007  1.0000
  N   N14       1.0  0.15209  0.32657  0.14111  1.0000
  N   N15       1.0  0.9693899999999999  0.011630000000000022  0.12005000000000003  1.0000
  N   N16       1.0  0.9876899999999998  0.9775  0.14466000000000007  1.0000
  C   C4        1.0  0.15283999999999992  0.24422  0.08329000000000009  1.0000
  N   N17       1.0  0.03243999999999983  0.6888600000000001  0.7697600000000002  1.0000
  N   N18       1.0  0.09845999999999992  0.77067  0.8076400000000002  1.0000
  N   N19       1.0  0.11753000000000013  0.7640400000000004  0.8567400000000002  1.0000
  N   N20       1.0  0.06306999999999999  0.67788  0.85241  1.0000
  N   N21       1.0  0.2181699999999999  0.9758900000000001  0.9550200000000002  1.0000
  N   N22       1.0  0.1550500000000001  0.9678100000000004  0.9400300000000003  1.0000
  N   N23       1.0  0.12437999999999999  0.02096000000000009  0.00733  1.0000
  N   N24       1.0  0.16331  0.061430000000000026  0.06901000000000003  1.0000
  N   N25       1.0  0.0749999999999997  0.10161999999999996  0.90288  1.0000
  N   N26       1.0  0.07628999999999991  0.04255000000000035  0.9116000000000002  1.0000
  N   N27       1.0  0.12323999999999975  0.006960000000000068  0.84976  1.0000
  N   N28       1.0  0.15134999999999982  0.03787000000000004  0.79641  1.0000
  N   N29       1.0  0.9679999999999999  0.8788800000000002  0.94637  1.0000
  N   N30       1.0  0.99454  0.8473  0.86921  1.0000
  N   N31       1.0  0.9321899999999999  0.7660300000000001  0.8273600000000002  1.0000
  N   N32       1.0  0.8637299999999997  0.74089  0.87783  1.0000
  Cl  Cl1       1.0  0.94594  0.2591600000000002  0.3044400000000001  1.0000
  Cl  Cl2       1.0  0.07336999999999991  0.80785  0.7038600000000003  1.0000
  C   C5        1.0  0.009069999999999705  0.6324400000000001  0.7994300000000002  1.0000
  C   C6        1.0  0.22175999999999996  0.03336  0.03543  1.0000
  C   C7        1.0  0.1204799999999997  0.09647000000000008  0.83034  1.0000
  C   C8        1.0  0.8876  0.8075099999999998  0.9527900000000001  1.0000
  C   C9        1.0  0.8734299999999998  0.76039  0.99627  1.0000
  N   N33       1.0  0.7839199999999997  0.68912  0.00394  1.0000
  C   C10       1.0  0.76119  0.62734  0.0292  1.0000
  O   O1        1.0  0.81144  0.6429  0.06117000000000001  1.0000
  C   C11       1.0  0.67572  0.54225  0.01912  1.0000
  C   C12       1.0  0.63937  0.4854  0.94665  1.0000
  C   C13       1.0  0.55588  0.40833  0.9395  1.0000
  C   C14       1.0  0.50619  0.38863  0.005790000000000002  1.0000
  C   C15       1.0  0.41189999999999993  0.32124  0.00571  1.0000
  C   C16       1.0  0.3670899999999999  0.28486  0.062020000000000006  1.0000
  C   C17       1.0  0.28005  0.25264000000000003  0.08326999999999996  1.0000
  C   C18       1.0  0.23366000000000003  0.24504000000000004  0.0424500000000001  1.0000
  C   C19       1.0  0.2759  0.27147000000000027  0.9802800000000002  1.0000
  C   C20       1.0  0.36428  0.30970000000000014  0.9621200000000002  1.0000
  C   C21       1.0  0.54552  0.44322000000000006  0.07677  1.0000
  C   C22       1.0  0.6297099999999998  0.51793  0.08264  1.0000
  H   H1        1.0  0.8974999999999999  0.81183  0.05606  1.0000
  H   H2        1.0  0.9093799999999997  0.72052  0.95388  1.0000
  H   H3        1.0  0.7378899999999999  0.6793699999999999  0.9832  1.0000
  H   H4        1.0  0.67524  0.50139  0.89595  1.0000
  H   H5        1.0  0.52964  0.36638  0.88289  1.0000
  H   H6        1.0  0.39990999999999993  0.28905  0.09535000000000003  1.0000
  H   H7        1.0  0.25008  0.2408  0.13617999999999997  1.0000
  H   H8        1.0  0.24164  0.27109  0.95138  1.0000
  H   H9        1.0  0.39547999999999994  0.33920000000000006  0.92013  1.0000
  H   H10       1.0  0.5105  0.43283  0.13021  1.0000
  H   H11       1.0  0.6573400000000001  0.5602100000000002  0.13861  1.0000
  C   C23       1.0  0.92212  0.54674  0.79439  1.0000
  N   N34       1.0  0.92916  0.4642300000000001  0.7629500000000002  1.0000
  C   C24       1.0  0.8665299999999998  0.39167000000000013  0.7831100000000002  1.0000
  O   O2        1.0  0.8244999999999999  0.3138900000000001  0.7300000000000002  1.0000
  C   C25       1.0  0.8510099999999999  0.40169  0.86565  1.0000
  C   C26       1.0  0.8874200000000001  0.48986  0.93318  1.0000
  C   C27       1.0  0.8781199999999997  0.49446  0.00697  1.0000
  C   C28       1.0  0.83558  0.4109600000000001  0.0146  1.0000
  C   C29       1.0  0.84339  0.41411  0.08574  1.0000
  C   C30       1.0  0.78667  0.33574  0.10308  1.0000
  C   C31       1.0  0.81035  0.32401  0.14863  1.0000
  C   C32       1.0  0.89131  0.39157  0.17837  1.0000
  C   C33       1.0  0.9392399999999999  0.4775000000000001  0.17482000000000006  1.0000
  C   C34       1.0  0.9166099999999999  0.48819  0.12772  1.0000
  C   C35       1.0  0.7958700000000001  0.32306000000000024  0.94784  1.0000
  C   C36       1.0  0.80218  0.31874  0.87542  1.0000
  H   H12       1.0  0.8875799999999998  0.5314400000000001  0.7531300000000002  1.0000
  H   H13       1.0  0.8839099999999999  0.56188  0.85419  1.0000
  H   H14       1.0  0.96065  0.44535000000000013  0.70447  1.0000
  H   H15       1.0  0.92726  0.55592  0.9293200000000001  1.0000
  H   H16       1.0  0.908  0.5640600000000001  0.05682  1.0000
  H   H17       1.0  0.7268199999999998  0.28006  0.0769  1.0000
  H   H18       1.0  0.7702399999999999  0.25853  0.15415  1.0000
  H   H19       1.0  0.0021199999999999943  0.52925  0.19576  1.0000
  H   H20       1.0  0.9626399999999999  0.54986  0.11704000000000005  1.0000
  H   H21       1.0  0.7638  0.2562800000000001  0.94888  1.0000
  H   H22       1.0  0.77248  0.24934000000000006  0.82524  1.0000
  C   C37       1.0  0.28625000000000006  0.06708000000000004  0.08066000000000002  1.0000
  N   N35       1.0  0.26195  0.9933400000000001  0.09752000000000001  1.0000
  C   C38       1.0  0.26929999999999993  0.91034  0.035849999999999944  1.0000
  O   O3        1.0  0.2041  0.8334000000000003  0.015600000000000058  1.0000
  C   C39       1.0  0.35373999999999994  0.9145600000000002  0.0006699999999999484  1.0000
  C   C40       1.0  0.42924  0.9979200000000003  0.034020000000000016  1.0000
  C   C41       1.0  0.50664  0.99801  0.006270000000000002  1.0000
  C   C42       1.0  0.5103300000000002  0.9145000000000002  0.94508  1.0000
  C   C43       1.0  0.5896499999999997  0.9117200000000001  0.9251600000000002  1.0000
  C   C44       1.0  0.58551  0.83703  0.92142  1.0000
  C   C45       1.0  0.65959  0.8453200000000003  0.9230200000000002  1.0000
  C   C46       1.0  0.7389499999999999  0.9276900000000001  0.9274800000000002  1.0000
  C   C47       1.0  0.7444099999999998  0.9974900000000002  0.9222800000000002  1.0000
  C   C48       1.0  0.6704399999999999  0.9894900000000003  0.9208500000000002  1.0000
  C   C49       1.0  0.43546999999999997  0.8319600000000003  0.90987  1.0000
  C   C50       1.0  0.35827  0.8321000000000002  0.93704  1.0000
  H   H23       1.0  0.34918  0.08663  0.04488000000000004  1.0000
  H   H24       1.0  0.29106  0.13192000000000026  0.13825  1.0000
  H   H25       1.0  0.21626000000000004  0.9869200000000001  0.14707  1.0000
  H   H26       1.0  0.42815  0.06226  0.084  1.0000
  H   H27       1.0  0.56286  0.06251  0.03577  1.0000
  H   H28       1.0  0.5243800000000001  0.7760400000000003  0.9247800000000003  1.0000
  H   H29       1.0  0.65352  0.79198  0.92948  1.0000
  H   H30       1.0  0.80448  0.06327  0.92863  1.0000
  H   H31       1.0  0.6757300000000002  0.047449999999999985  0.9225  1.0000
  H   H32       1.0  0.43635999999999997  0.76674  0.86228  1.0000
  H   H33       1.0  0.30144  0.76667  0.90965  1.0000
  C   C51       1.0  0.14496000000000006  0.16027000000000016  0.79912  1.0000
  N   N36       1.0  0.09183999999999995  0.11108999999999991  0.73694  1.0000
  C   C52       1.0  0.10861999999999986  0.054480000000000126  0.6573500000000002  1.0000
  O   O4        1.0  0.15383000000000005  0.023789999999999974  0.63994  1.0000
  C   C53       1.0  0.07461999999999988  0.03234000000000006  0.5917200000000002  1.0000
  C   C54       1.0  0.052189999999999945  0.09286999999999998  0.60349  1.0000
  C   C55       1.0  0.025809999999999993  0.07606000000000002  0.54047  1.0000
  C   C56       1.0  0.021220000000000037  0.9984700000000001  0.4637700000000001  1.0000
  C   C57       1.0  0.9952300000000003  0.9838800000000002  0.39717  1.0000
  C   C58       1.0  0.03993999999999997  0.96167  0.31918  1.0000
  C   C59       1.0  0.02249000000000005  0.96113  0.26008  1.0000
  C   C60       1.0  0.9605700000000001  0.9835200000000002  0.27838  1.0000
  C   C61       1.0  0.91251  0.000100000000000016  0.3546800000000001  1.0000
  C   C62       1.0  0.9295099999999998  0.99999  0.41326000000000007  1.0000
  C   C63       1.0  0.04390000000000014  0.9379200000000003  0.4514900000000001  1.0000
  C   C64       1.0  0.07024000000000016  0.9546900000000003  0.51496  1.0000
  H   H34       1.0  0.21365999999999982  0.18841  0.77437  1.0000
  H   H35       1.0  0.13730999999999996  0.2227200000000001  0.8504600000000002  1.0000
  H   H36       1.0  0.04312000000000004  0.12559000000000012  0.7544700000000002  1.0000
  H   H37       1.0  0.05783999999999988  0.15568000000000007  0.66031  1.0000
  H   H38       1.0  0.011209999999999916  0.12578  0.55141  1.0000
  H   H39       1.0  0.09124000000000004  0.94949  0.30518  1.0000
  H   H40       1.0  0.060150000000000065  0.9476600000000001  0.20148000000000005  1.0000
  H   H41       1.0  0.86365  0.016429999999999927  0.36999  1.0000
  H   H42       1.0  0.8928600000000001  0.01541999999999998  0.47224  1.0000
  H   H43       1.0  0.04127  0.87759  0.39294  1.0000
  H   H44       1.0  0.08793000000000005  0.9071900000000002  0.50359  1.0000
