data_image0
_chemical_formula_structural       Mn5CN8C2N8CN16Cl2C9OCN2CN2C2H6C5OCN2CN2C2H6C5OCN2CN2C2H6C5OCN2CN2C2H6
_chemical_formula_sum              "Mn5 C44 N48 Cl2 O4 H24"
_cell_length_a       17.3947
_cell_length_b       16.8118
_cell_length_c       18.038
_cell_angle_alpha    138.4315
_cell_angle_beta     51.95270000000001
_cell_angle_gamma    131.58

_symmetry_space_group_name_H-M    'P 1'
_symmetry_Int_Tables_number       1

loop_
  _symmetry_equiv_pos_as_xyz
  'x,y,z'

loop_
  _atom_site_type_symbol
  _atom_site_label
  _atom_site_symmetry_multiplicity
  _atom_site_fract_x
  _atom_site_fract_y
  _atom_site_fract_z
  _atom_site_occupancy
  Mn  Mn1       1.0  0.96715  0.49443  0.35805  1.0000
  Mn  Mn2       1.0  0.86213  0.17329000000000006  0.25229000000000007  1.0000
  Mn  Mn3       1.0  0.09083999999999996  0.5129700000000001  0.5828400000000001  1.0000
  Mn  Mn4       1.0  0.20966000000000012  0.8421600000000001  0.70975  1.0000
  Mn  Mn5       1.0  0.034220000000000014  0.005650000000000072  0.98154  1.0000
  C   C1        1.0  0.78363  0.36145  0.26452  1.0000
  N   N1        1.0  0.83511  0.36285  0.29864  1.0000
  N   N2        1.0  0.7860200000000003  0.24700000000000005  0.27654  1.0000
  N   N3        1.0  0.7007200000000001  0.18040000000000006  0.2416  1.0000
  N   N4        1.0  0.69712  0.24942000000000003  0.23304000000000002  1.0000
  N   N5        1.0  0.7243600000000001  0.9581700000000001  0.09517000000000002  1.0000
  N   N6        1.0  0.81645  0.004430000000000015  0.10625000000000002  1.0000
  N   N7        1.0  0.8832500000000002  0.9627900000000004  0.004130000000000189  1.0000
  N   N8        1.0  0.8374300000000001  0.8927400000000004  0.9232500000000001  1.0000
  C   C2        1.0  0.7376899999999998  0.8906200000000002  0.9825300000000001  1.0000
  C   C3        1.0  0.9840700000000001  0.03403000000000003  0.25246  1.0000
  N   N9        1.0  0.9378700000000001  0.10087000000000004  0.22874000000000003  1.0000
  N   N10       1.0  0.9338400000000001  0.10899000000000005  0.30956000000000006  1.0000
  N   N11       1.0  0.06726000000000003  0.1977  0.07765  1.0000
  N   N12       1.0  0.99484  0.24760000000000004  0.16232  1.0000
  N   N13       1.0  0.03583000000000007  0.3714000000000001  0.20534000000000005  1.0000
  N   N14       1.0  0.13629000000000005  0.4071300000000001  0.15286000000000002  1.0000
  N   N15       1.0  0.98755  0.024510000000000018  0.12722  1.0000
  N   N16       1.0  0.01828000000000038  0.9809500000000005  0.13878  1.0000
  C   C4        1.0  0.1561400000000001  0.29823000000000005  0.07224000000000008  1.0000
  N   N17       1.0  0.20965999999999993  0.63223  0.65981  1.0000
  N   N18       1.0  0.27024  0.7506100000000001  0.68447  1.0000
  N   N19       1.0  0.33763000000000015  0.8098900000000002  0.73914  1.0000
  N   N20       1.0  0.3155200000000001  0.7353  0.7600300000000001  1.0000
  N   N21       1.0  0.33737  0.040350000000000094  0.8769700000000001  1.0000
  N   N22       1.0  0.2516000000000001  0.0034100000000001018  0.86078  1.0000
  N   N23       1.0  0.18343000000000004  0.04772000000000004  0.9608700000000001  1.0000
  N   N24       1.0  0.22072  0.10711000000000001  0.043760000000000014  1.0000
  N   N25       1.0  0.054869999999999794  0.03748000000000013  0.8265100000000002  1.0000
  N   N26       1.0  0.08229999999999997  0.98861  0.8355800000000002  1.0000
  N   N27       1.0  0.14352999999999988  0.9266800000000001  0.7364300000000001  1.0000
  N   N28       1.0  0.15753000000000017  0.93206  0.65933  1.0000
  N   N29       1.0  0.0009400000000000986  0.8141200000000002  0.88508  1.0000
  N   N30       1.0  0.0663100000000001  0.7591100000000001  0.7870800000000001  1.0000
  N   N31       1.0  0.019719999999999984  0.6322400000000002  0.7340300000000002  1.0000
  N   N32       1.0  0.9242400000000001  0.5985600000000002  0.7951700000000003  1.0000
  Cl  Cl1       1.0  0.9207000000000004  0.3740600000000001  0.41003000000000006  1.0000
  Cl  Cl2       1.0  0.1595800000000004  0.6540700000000003  0.54324  1.0000
  C   C5        1.0  0.2311000000000001  0.6271100000000002  0.7163300000000002  1.0000
  C   C6        1.0  0.31721  0.10199000000000003  0.99033  1.0000
  C   C7        1.0  0.10171000000000019  0.0011100000000002807  0.7165200000000003  1.0000
  C   C8        1.0  0.9128600000000002  0.7124700000000003  0.88964  1.0000
  C   C9        1.0  0.8144099999999999  0.71361  0.9791000000000001  1.0000
  C   C10       1.0  0.80172  0.70839  0.06018000000000001  1.0000
  C   C11       1.0  0.70088  0.6499  0.1106  1.0000
  C   C12       1.0  0.61095  0.5946000000000001  0.08002000000000001  1.0000
  C   C13       1.0  0.50618  0.51861  0.12301  1.0000
  O   O1        1.0  0.4916300000000001  0.5379200000000001  0.20989000000000005  1.0000
  C   C14       1.0  0.41804000000000013  0.42073  0.06505  1.0000
  N   N33       1.0  0.42928  0.35959000000000024  0.9535800000000002  1.0000
  N   N34       1.0  0.3329  0.29470000000000024  0.9381700000000002  1.0000
  C   C15       1.0  0.26371000000000006  0.31414000000000003  0.039570000000000105  1.0000
  N   N35       1.0  0.31490000000000007  0.39102  0.11944  1.0000
  N   N36       1.0  0.2698500000000001  0.44552000000000014  0.23787  1.0000
  C   C16       1.0  0.6234799999999998  0.6103300000000002  0.006380000000000275  1.0000
  C   C17       1.0  0.7243899999999999  0.6655000000000001  0.9538700000000001  1.0000
  H   H1        1.0  0.8702200000000003  0.7372000000000001  0.07560000000000001  1.0000
  H   H2        1.0  0.69413  0.64063  0.16786  1.0000
  H   H3        1.0  0.28843  0.4195900000000001  0.26093  1.0000
  H   H4        1.0  0.30521  0.54667  0.28229  1.0000
  H   H5        1.0  0.55628  0.5757000000000001  0.9851500000000001  1.0000
  H   H6        1.0  0.7325300000000001  0.6600300000000001  0.88575  1.0000
  C   C18       1.0  0.14850000000000008  0.55899  0.77398  1.0000
  C   C19       1.0  0.04526999999999992  0.48207000000000017  0.7594400000000002  1.0000
  C   C20       1.0  0.9611499999999997  0.4478500000000001  0.8355000000000001  1.0000
  C   C21       1.0  0.97722  0.48946000000000023  0.9293400000000003  1.0000
  C   C22       1.0  0.8818700000000002  0.46420000000000017  0.01631999999999989  1.0000
  O   O2        1.0  0.7955200000000001  0.4274  0.011660000000000005  1.0000
  C   C23       1.0  0.8826500000000002  0.4755300000000002  0.10589000000000005  1.0000
  N   N37       1.0  0.9658899999999999  0.54793  0.14913  1.0000
  N   N38       1.0  0.9366600000000002  0.5237300000000001  0.22014000000000003  1.0000
  C   C24       1.0  0.8351300000000001  0.43787  0.22117000000000003  1.0000
  N   N39       1.0  0.7995000000000001  0.4074200000000001  0.15103000000000003  1.0000
  N   N40       1.0  0.70136  0.3156500000000002  0.1213000000000002  1.0000
  C   C25       1.0  0.08227999999999987  0.5578200000000002  0.9384900000000003  1.0000
  C   C26       1.0  0.16674999999999998  0.5913600000000001  0.8612500000000001  1.0000
  H   H7        1.0  0.02787999999999988  0.4544200000000001  0.6934600000000001  1.0000
  H   H8        1.0  0.8821600000000002  0.39353000000000005  0.8236200000000001  1.0000
  H   H9        1.0  0.6415600000000001  0.3354500000000001  0.19731999999999994  1.0000
  H   H10       1.0  0.69669  0.2232000000000001  0.0750200000000001  1.0000
  H   H11       1.0  0.10081000000000011  0.59094  0.006800000000000001  1.0000
  H   H12       1.0  0.2457100000000001  0.6501600000000002  0.8746900000000001  1.0000
  C   C27       1.0  0.36331  0.09251  0.02908000000000001  1.0000
  C   C28       1.0  0.29668  0.05323000000000002  0.10323000000000003  1.0000
  C   C29       1.0  0.3215500000000001  0.9879800000000001  0.10141  1.0000
  C   C30       1.0  0.4148100000000001  0.9628700000000001  0.027340000000000007  1.0000
  C   C31       1.0  0.4289899999999999  0.87415  0.014350000000000003  1.0000
  O   O3        1.0  0.3522100000000001  0.8083600000000001  0.05094000000000001  1.0000
  C   C32       1.0  0.5309700000000002  0.8630700000000001  0.96353  1.0000
  N   N41       1.0  0.60655  0.8675700000000002  0.8725200000000001  1.0000
  N   N42       1.0  0.6882400000000002  0.8637800000000002  0.85978  1.0000
  C   C33       1.0  0.6609300000000001  0.8537300000000004  0.9412500000000003  1.0000
  N   N43       1.0  0.56228  0.85062  0.005470000000000002  1.0000
  N   N44       1.0  0.5113600000000001  0.8557300000000001  0.10625000000000002  1.0000
  C   C34       1.0  0.4880600000000001  0.018240000000000048  0.96493  1.0000
  C   C35       1.0  0.46209999999999996  0.08160000000000008  0.9653000000000002  1.0000
  H   H13       1.0  0.2203000000000001  0.06074000000000002  0.15386  1.0000
  H   H14       1.0  0.26455  0.95102  0.15397  1.0000
  H   H15       1.0  0.49334000000000017  0.93865  0.17365000000000003  1.0000
  H   H16       1.0  0.44022000000000006  0.7741300000000001  0.09392  1.0000
  H   H17       1.0  0.5624399999999999  0.006730000000000003  0.91007  1.0000
  H   H18       1.0  0.5153000000000001  0.11175000000000014  0.9076900000000002  1.0000
  C   C36       1.0  0.09544999999999992  0.03574000000000008  0.6661100000000001  1.0000
  C   C37       1.0  0.05566999999999998  0.13041  0.73747  1.0000
  C   C38       1.0  0.056460000000000045  0.16995000000000005  0.69111  1.0000
  C   C39       1.0  0.09485000000000005  0.11370000000000006  0.57239  1.0000
  C   C40       1.0  0.10476000000000006  0.1674200000000001  0.52844  1.0000
  O   O4        1.0  0.14552  0.28495  0.57863  1.0000
  C   C41       1.0  0.06450999999999994  0.0861200000000001  0.4292300000000001  1.0000
  N   N45       1.0  0.05975000000000017  0.9636500000000001  0.33769000000000005  1.0000
  N   N46       1.0  0.028539999999999954  0.9282500000000001  0.26217000000000007  1.0000
  C   C42       1.0  0.012899999999999924  0.028799999999999958  0.3096  1.0000
  N   N47       1.0  0.03527999999999995  0.12819  0.4134  1.0000
  N   N48       1.0  0.03215999999999995  0.2510400000000001  0.4884100000000001  1.0000
  C   C43       1.0  0.13193999999999992  0.016430000000000153  0.5003000000000001  1.0000
  C   C44       1.0  0.13247000000000037  0.9779100000000004  0.5469400000000001  1.0000
  H   H19       1.0  0.027240000000000097  0.17714000000000008  0.8296600000000001  1.0000
  H   H20       1.0  0.028669999999999893  0.2463900000000001  0.7483300000000003  1.0000
  H   H21       1.0  0.9537700000000001  0.23742999999999995  0.51389  1.0000
  H   H22       1.0  0.07862000000000004  0.29168000000000005  0.44254  1.0000
  H   H23       1.0  0.16439000000000006  0.97407  0.40899  1.0000
  H   H24       1.0  0.16359000000000007  0.9046300000000002  0.4900400000000001  1.0000
