data_image0
_chemical_formula_structural       Mn5CN8C2N8CN16Cl2C7BrC3N2CSCH3C3BrC3N2CSCH3C3BrC3N2CSCH3C3BrC3N2CSCH3
_chemical_formula_sum              "Mn5 C40 N40 Cl2 Br4 S4 H12"
_cell_length_a       16.2924
_cell_length_b       14.526800000000001
_cell_length_c       16.036
_cell_angle_alpha    134.7719
_cell_angle_beta     47.6889
_cell_angle_gamma    129.996

_symmetry_space_group_name_H-M    'P 1'
_symmetry_Int_Tables_number       1

loop_
  _symmetry_equiv_pos_as_xyz
  'x,y,z'

loop_
  _atom_site_type_symbol
  _atom_site_label
  _atom_site_symmetry_multiplicity
  _atom_site_fract_x
  _atom_site_fract_y
  _atom_site_fract_z
  _atom_site_occupancy
  Mn  Mn1       1.0  0.88933  0.47734000000000004  0.39225  1.0000
  Mn  Mn2       1.0  0.7737199999999999  0.13303999999999996  0.29433999999999994  1.0000
  Mn  Mn3       1.0  0.06940000000000021  0.42965000000000003  0.6393799999999998  1.0000
  Mn  Mn4       1.0  0.1808000000000001  0.7559  0.6914299999999999  1.0000
  Mn  Mn5       1.0  0.9812800000000002  0.9518299999999998  0.9888899999999999  1.0000
  C   C1        1.0  0.6910700000000003  0.37837000000000004  0.33816  1.0000
  N   N1        1.0  0.7450100000000001  0.35714000000000007  0.35689  1.0000
  N   N2        1.0  0.6934600000000002  0.22879000000000002  0.33128  1.0000
  N   N3        1.0  0.60021  0.17571  0.31388  1.0000
  N   N4        1.0  0.5973200000000001  0.26679  0.3161999999999999  1.0000
  N   N5        1.0  0.65768  0.9448500000000001  0.12063  1.0000
  N   N6        1.0  0.7380400000000003  0.96374  0.13649  1.0000
  N   N7        1.0  0.8198  0.9131699999999999  0.022520000000000095  1.0000
  N   N8        1.0  0.79647  0.8658500000000001  0.9309799999999999  1.0000
  C   C2        1.0  0.6943800000000002  0.88471  0.99264  1.0000
  C   C3        1.0  0.9149800000000001  0.9939400000000002  0.30557  1.0000
  N   N9        1.0  0.8523999999999999  0.04869  0.27065  1.0000
  N   N10       1.0  0.84451  0.06077999999999994  0.36554999999999993  1.0000
  N   N11       1.0  0.012590000000000004  0.15676  0.07383  1.0000
  N   N12       1.0  0.9284800000000001  0.21312000000000006  0.17755999999999997  1.0000
  N   N13       1.0  0.96823  0.34371  0.21422999999999998  1.0000
  N   N14       1.0  0.07857000000000007  0.3777300000000001  0.13708  1.0000
  N   N15       1.0  0.92385  0.97915  0.1596  1.0000
  N   N16       1.0  0.96572  0.94354  0.17765  1.0000
  C   C4        1.0  0.10805000000000002  0.26259000000000005  0.05034000000000005  1.0000
  N   N17       1.0  0.19670000000000057  0.58176  0.7072699999999998  1.0000
  N   N18       1.0  0.25872  0.68105  0.68004  1.0000
  N   N19       1.0  0.36528000000000005  0.73616  0.6721299999999999  1.0000
  N   N20       1.0  0.37161  0.6772  0.7024  1.0000
  N   N21       1.0  0.3170500000000003  0.9751200000000001  0.84535  1.0000
  N   N22       1.0  0.22282000000000005  0.93515  0.8366899999999999  1.0000
  N   N23       1.0  0.14508000000000007  0.9919000000000001  0.9513  1.0000
  N   N24       1.0  0.18662  0.07126000000000002  0.03874  1.0000
  N   N25       1.0  0.04124000000000001  0.99246  0.79397  1.0000
  N   N26       1.0  0.044669999999999925  0.9200300000000001  0.81262  1.0000
  N   N27       1.0  0.10592000000000033  0.8359000000000002  0.70236  1.0000
  N   N28       1.0  0.14583000000000018  0.8529800000000002  0.6085799999999999  1.0000
  N   N29       1.0  0.9427699999999999  0.74779  0.91069  1.0000
  N   N30       1.0  0.0244700000000003  0.68846  0.8166599999999999  1.0000
  N   N31       1.0  0.97787  0.55842  0.78627  1.0000
  N   N32       1.0  0.86421  0.52608  0.8553  1.0000
  Cl  Cl1       1.0  0.8269  0.33488  0.45719  1.0000
  Cl  Cl2       1.0  0.12823999999999994  0.53748  0.53902  1.0000
  C   C5        1.0  0.26387999999999967  0.5858700000000001  0.73233  1.0000
  C   C6        1.0  0.2938  0.05995999999999995  0.9710199999999999  1.0000
  C   C7        1.0  0.10196999999999995  0.94753  0.66663  1.0000
  C   C8        1.0  0.84194  0.64471  0.9338399999999999  1.0000
  C   C9        1.0  0.72072  0.64903  0.02496  1.0000
  C   C10       1.0  0.69087  0.72342  0.15686  1.0000
  C   C11       1.0  0.57427  0.71026  0.24447  1.0000
  Br  Br1       1.0  0.5363800000000002  0.81599  0.42449999999999993  1.0000
  C   C12       1.0  0.48502  0.61578  0.20093  1.0000
  C   C13       1.0  0.51093  0.53429  0.06844  1.0000
  C   C14       1.0  0.4123800000000001  0.42719000000000007  0.02551  1.0000
  N   N33       1.0  0.42113000000000017  0.37102  0.9090699999999998  1.0000
  N   N34       1.0  0.31803  0.29370999999999997  0.9009699999999999  1.0000
  C   C15       1.0  0.22926000000000013  0.2852300000000001  0.009300000000000086  1.0000
  S   S1        1.0  0.27227000000000007  0.38137  0.12922  1.0000
  C   C16       1.0  0.6299400000000002  0.5546600000000002  0.9807099999999999  1.0000
  H   H1        1.0  0.7561200000000001  0.7817700000000001  0.19222  1.0000
  H   H2        1.0  0.39551000000000014  0.6061800000000002  0.27206  1.0000
  H   H3        1.0  0.6519400000000001  0.49275000000000013  0.8783299999999999  1.0000
  C   C17       1.0  0.21674999999999994  0.5835600000000001  0.84955  1.0000
  C   C18       1.0  0.2970700000000002  0.6444000000000001  0.8977999999999999  1.0000
  C   C19       1.0  0.2599  0.69134  0.026  1.0000
  Br  Br2       1.0  0.36726  0.78462  0.09705  1.0000
  C   C20       1.0  0.14220000000000033  0.67207  0.10620999999999998  1.0000
  C   C21       1.0  0.05777000000000029  0.59821  0.05906  1.0000
  C   C22       1.0  0.9326400000000001  0.55774  0.14362999999999998  1.0000
  N   N35       1.0  0.8449800000000002  0.4769299999999999  0.10533999999999998  1.0000
  N   N36       1.0  0.7478100000000002  0.42454999999999987  0.18198999999999987  1.0000
  C   C23       1.0  0.7589400000000004  0.46604  0.28092999999999996  1.0000
  S   S2        1.0  0.89219  0.57959  0.28545  1.0000
  C   C24       1.0  0.09564000000000004  0.55515  0.9299599999999998  1.0000
  H   H4        1.0  0.38997000000000026  0.6639500000000002  0.83807  1.0000
  H   H5        1.0  0.1177600000000001  0.7126100000000001  0.20556  1.0000
  H   H6        1.0  0.032240000000000116  0.5013400000000002  0.89233  1.0000
  C   C25       1.0  0.36705  0.11308  0.028269999999999997  1.0000
  C   C26       1.0  0.35518  0.22682  0.15094  1.0000
  C   C27       1.0  0.42397999999999997  0.27895  0.20632  1.0000
  Br  Br3       1.0  0.41227000000000014  0.43870000000000003  0.37058  1.0000
  C   C28       1.0  0.50036  0.21388999999999997  0.14299999999999996  1.0000
  C   C29       1.0  0.51115  0.09555000000000001  0.02187  1.0000
  C   C30       1.0  0.5827400000000005  0.01895999999999996  0.9652899999999999  1.0000
  N   N37       1.0  0.5739  0.88798  0.87085  1.0000
  N   N38       1.0  0.6221700000000003  0.8318  0.86061  1.0000
  C   C31       1.0  0.6682800000000002  0.92058  0.9478999999999997  1.0000
  S   S3        1.0  0.66355  0.08061  0.035989999999999994  1.0000
  C   C32       1.0  0.4450499999999999  0.04712  0.96369  1.0000
  H   H7        1.0  0.2930300000000001  0.27549  0.20367  1.0000
  H   H8        1.0  0.54759  0.2555  0.19266  1.0000
  H   H9        1.0  0.4516600000000003  0.9563500000000001  0.87053  1.0000
  C   C33       1.0  0.14236000000000004  0.020639999999999943  0.6077899999999999  1.0000
  C   C34       1.0  0.24185000000000004  0.13722  0.61544  1.0000
  C   C35       1.0  0.27444  0.21799  0.57362  1.0000
  Br  Br4       1.0  0.40577000000000013  0.3812199999999999  0.5932999999999999  1.0000
  C   C36       1.0  0.211  0.17958000000000005  0.51843  1.0000
  C   C37       1.0  0.11191999999999998  0.06090999999999999  0.50776  1.0000
  C   C38       1.0  0.04023  0.022599999999999985  0.45566999999999996  1.0000
  N   N39       1.0  0.9395000000000001  0.9165400000000001  0.45491  1.0000
  N   N40       1.0  0.8892300000000002  0.8997000000000003  0.40452999999999995  1.0000
  C   C39       1.0  0.9487500000000001  0.99557  0.37066999999999994  1.0000
  S   S4        1.0  0.07473000000000003  0.10959000000000008  0.39506  1.0000
  C   C40       1.0  0.07800000000000011  0.9819000000000001  0.55346  1.0000
  H   H10       1.0  0.28942  0.16948999999999997  0.66127  1.0000
  H   H11       1.0  0.23964000000000002  0.24281999999999998  0.48446999999999996  1.0000
  H   H12       1.0  0.000780000000000035  0.89171  0.54904  1.0000
