data_image0
_chemical_formula_structural       Mn5CN8C2N8CN16Cl2C17OC6H12C13OC6H12C13OC6H12C13OC6H12
_chemical_formula_sum              "Mn5 C84 N32 Cl2 O4 H48"
_cell_length_a       23.9062
_cell_length_b       24.4743
_cell_length_c       24.494
_cell_angle_alpha    130.58659999999998
_cell_angle_beta     60.4859
_cell_angle_gamma    143.9151

_symmetry_space_group_name_H-M    'P 1'
_symmetry_Int_Tables_number       1

loop_
  _symmetry_equiv_pos_as_xyz
  'x,y,z'

loop_
  _atom_site_type_symbol
  _atom_site_label
  _atom_site_symmetry_multiplicity
  _atom_site_fract_x
  _atom_site_fract_y
  _atom_site_fract_z
  _atom_site_occupancy
  Mn  Mn1       1.0  0.22913  0.51093  0.17187  1.0000
  Mn  Mn2       1.0  0.06361000000000001  0.2879000000000001  0.18709  1.0000
  Mn  Mn3       1.0  0.86089  0.65136  0.8675599999999999  1.0000
  Mn  Mn4       1.0  0.006319999999999912  0.86858  0.85369  1.0000
  Mn  Mn5       1.0  0.023490000000000007  0.07078  0.01644  1.0000
  C   C1        1.0  0.03700999999999998  0.41982  0.17062  1.0000
  N   N1        1.0  0.08686000000000019  0.4111900000000001  0.1694  1.0000
  N   N2        1.0  0.036990000000000356  0.3556300000000001  0.20083999999999994  1.0000
  N   N3        1.0  0.9651900000000001  0.34152  0.23079999999999998  1.0000
  N   N4        1.0  0.9647199999999999  0.38222999999999996  0.21337999999999996  1.0000
  N   N5        1.0  0.8635200000000001  0.12355  0.1466  1.0000
  N   N6        1.0  0.9350800000000002  0.13905  0.1327  1.0000
  N   N7        1.0  0.9213000000000002  0.06512000000000007  0.06644000000000005  1.0000
  N   N8        1.0  0.84257  0.0036599999999999966  0.034419999999999895  1.0000
  C   C2        1.0  0.80598  0.03939000000000002  0.08584999999999997  1.0000
  C   C3        1.0  0.08856000000000007  0.15315  0.20015999999999998  1.0000
  N   N9        1.0  0.09095000000000004  0.22262  0.17501  1.0000
  N   N10       1.0  0.09813  0.23036  0.23029  1.0000
  N   N11       1.0  0.10858  0.21396  0.030829999999999996  1.0000
  N   N12       1.0  0.12612000000000007  0.29224  0.09416  1.0000
  N   N13       1.0  0.19256000000000004  0.37947  0.09004  1.0000
  N   N14       1.0  0.21726000000000015  0.3607900000000001  0.0238  1.0000
  N   N15       1.0  0.07378000000000003  0.14224000000000003  0.11414  1.0000
  N   N16       1.0  0.07124999999999997  0.09620000000000006  0.12802  1.0000
  C   C4        1.0  0.16543000000000005  0.2574400000000001  0.9869  1.0000
  N   N17       1.0  0.00017000000000024548  0.7426800000000001  0.8511599999999999  1.0000
  N   N18       1.0  0.05487000000000017  0.82345  0.8433  1.0000
  N   N19       1.0  0.13402999999999998  0.85247  0.81493  1.0000
  N   N20       1.0  0.13415000000000007  0.7934000000000001  0.80664  1.0000
  N   N21       1.0  0.20848  0.05210999999999993  0.8959099999999999  1.0000
  N   N22       1.0  0.12873000000000015  0.021790000000000018  0.90577  1.0000
  N   N23       1.0  0.13270000000000007  0.08854999999999988  0.9711  1.0000
  N   N24       1.0  0.21509000000000006  0.16351  0.00623  1.0000
  N   N25       1.0  0.9401500000000005  0.00673999999999991  0.9012699999999999  1.0000
  N   N26       1.0  0.97032  0.9916500000000001  0.91814  1.0000
  N   N27       1.0  0.95716  0.91192  0.86135  1.0000
  N   N28       1.0  0.9206999999999999  0.8745799999999999  0.80544  1.0000
  N   N29       1.0  0.9390700000000004  0.92535  0.9995099999999999  1.0000
  N   N30       1.0  0.9549600000000004  0.8691000000000001  0.9488499999999999  1.0000
  N   N31       1.0  0.8969100000000005  0.7841300000000001  0.95325  1.0000
  N   N32       1.0  0.8388799999999998  0.7805899999999999  0.004479999999999817  1.0000
  Cl  Cl1       1.0  0.20850000000000002  0.45938  0.23944  1.0000
  Cl  Cl2       1.0  0.86566  0.69208  0.80215  1.0000
  C   C5        1.0  0.05054000000000001  0.7256199999999999  0.8295299999999999  1.0000
  C   C6        1.0  0.26204  0.14045999999999997  0.95806  1.0000
  C   C7        1.0  0.90942  0.93306  0.83096  1.0000
  C   C8        1.0  0.8621500000000002  0.8664600000000002  0.031639999999999995  1.0000
  C   C9        1.0  0.78064  0.83986  0.03668999999999999  1.0000
  C   C10       1.0  0.70603  0.7932100000000002  0.020950000000000024  1.0000
  C   C11       1.0  0.61783  0.7163599999999999  0.9815799999999999  1.0000
  C   C12       1.0  0.55961  0.59828  0.93715  1.0000
  C   C13       1.0  0.56302  0.5938899999999999  0.8702599999999999  1.0000
  C   C14       1.0  0.62162  0.7122699999999998  0.9146399999999999  1.0000
  C   C15       1.0  0.5284400000000001  0.67995  0.9340399999999999  1.0000
  C   C16       1.0  0.5260800000000003  0.6855700000000001  0.0021599999999997177  1.0000
  C   C17       1.0  0.46680000000000016  0.56594  0.9567699999999999  1.0000
  C   C18       1.0  0.47104999999999997  0.5622899999999998  0.8899599999999998  1.0000
  C   C19       1.0  0.3935300000000001  0.46964  0.83323  1.0000
  C   C20       1.0  0.3336  0.38942000000000004  0.78365  1.0000
  C   C21       1.0  0.26279  0.2870499999999999  0.7221699999999999  1.0000
  O   O1        1.0  0.23687000000000005  0.20381000000000002  0.71298  1.0000
  C   C22       1.0  0.1979999999999999  0.1865499999999999  0.77244  1.0000
  C   C23       1.0  0.1285299999999999  0.18262999999999976  0.8109699999999999  1.0000
  C   C24       1.0  0.10878999999999987  0.19185999999999992  0.87869  1.0000
  C   C25       1.0  0.15579  0.20202000000000003  0.90835  1.0000
  C   C26       1.0  0.21877000000000002  0.19643000000000002  0.86738  1.0000
  C   C27       1.0  0.2383300000000001  0.18666  0.79899  1.0000
  H   H1        1.0  0.57264  0.56481  0.93869  1.0000
  H   H2        1.0  0.5785700000000003  0.5561200000000002  0.81583  1.0000
  H   H3        1.0  0.68613  0.77184  0.89656  1.0000
  H   H4        1.0  0.5147900000000002  0.7123500000000001  0.9316299999999998  1.0000
  H   H5        1.0  0.5115000000000002  0.7239000000000001  0.05691  1.0000
  H   H6        1.0  0.40220999999999996  0.50421  0.97312  1.0000
  H   H7        1.0  0.29601999999999995  0.29530999999999996  0.67324  1.0000
  H   H8        1.0  0.20002000000000003  0.26784  0.72831  1.0000
  H   H9        1.0  0.09462999999999996  0.1803399999999999  0.79137  1.0000
  H   H10       1.0  0.06250000000000004  0.19997  0.91054  1.0000
  H   H11       1.0  0.25943999999999995  0.20971999999999993  0.89057  1.0000
  H   H12       1.0  0.2923  0.19017000000000003  0.77009  1.0000
  C   C28       1.0  0.017579999999999898  0.64172  0.8255899999999999  1.0000
  C   C29       1.0  0.99355  0.57366  0.8227199999999999  1.0000
  C   C30       1.0  0.9693100000000001  0.4949900000000001  0.82051  1.0000
  C   C31       1.0  0.04451000000000029  0.5045599999999999  0.8129499999999997  1.0000
  C   C32       1.0  0.9752100000000001  0.3839299999999998  0.7571599999999998  1.0000
  C   C33       1.0  0.9002200000000001  0.37552999999999975  0.7647499999999998  1.0000
  C   C34       1.0  0.8579300000000001  0.35048999999999997  0.82693  1.0000
  C   C35       1.0  0.92742  0.47115  0.8824899999999999  1.0000
  C   C36       1.0  0.0021999999999999815  0.47959  0.87486  1.0000
  C   C37       1.0  0.93321  0.36011  0.81918  1.0000
  C   C38       1.0  0.9166599999999999  0.2909299999999998  0.8233399999999997  1.0000
  C   C39       1.0  0.9056400000000002  0.24017  0.83271  1.0000
  C   C40       1.0  0.8938100000000004  0.18636999999999992  0.85215  1.0000
  O   O2        1.0  0.8468300000000001  0.1901700000000001  0.91737  1.0000
  C   C41       1.0  0.90167  0.2515  0.97687  1.0000
  C   C42       1.0  0.8857100000000002  0.19894000000000012  0.99805  1.0000
  C   C43       1.0  0.9338500000000002  0.25653  0.05999999999999999  1.0000
  C   C44       1.0  0.0014700000000000793  0.3684100000000001  0.10043999999999997  1.0000
  C   C45       1.0  0.01856000000000005  0.42177000000000003  0.07893  1.0000
  C   C46       1.0  0.96861  0.36304  0.01677  1.0000
  H   H13       1.0  0.12158999999999999  0.56881  0.8073  1.0000
  H   H14       1.0  0.9950800000000001  0.3478  0.70586  1.0000
  H   H15       1.0  0.8579600000000001  0.33351  0.71974  1.0000
  H   H16       1.0  0.7810300000000002  0.28623999999999994  0.8325999999999999  1.0000
  H   H17       1.0  0.90814  0.5079899999999999  0.9340399999999999  1.0000
  H   H18       1.0  0.04360999999999996  0.52115  0.92015  1.0000
  H   H19       1.0  0.9653700000000001  0.22641000000000003  0.85734  1.0000
  H   H20       1.0  0.8487400000000002  0.10142999999999999  0.80928  1.0000
  H   H21       1.0  0.8370400000000006  0.11382000000000007  0.96573  1.0000
  H   H22       1.0  0.92161  0.21605000000000005  0.07598  1.0000
  H   H23       1.0  0.06760999999999999  0.50705  0.11075999999999998  1.0000
  H   H24       1.0  0.98094  0.40356  0.00013  1.0000
  C   C47       1.0  0.3341199999999999  0.17017999999999994  0.97769  1.0000
  C   C48       1.0  0.38415  0.17686000000000002  0.9881499999999999  1.0000
  C   C49       1.0  0.4336100000000001  0.16649999999999984  0.9934199999999997  1.0000
  C   C50       1.0  0.44834  0.18545  0.06067  1.0000
  C   C51       1.0  0.54995  0.23728000000000002  0.03871  1.0000
  C   C52       1.0  0.5340699999999999  0.21826999999999988  0.97131  1.0000
  C   C53       1.0  0.4928199999999999  0.10759999999999999  0.92688  1.0000
  C   C54       1.0  0.39196000000000014  0.05615999999999996  0.9489799999999999  1.0000
  C   C55       1.0  0.4074499999999999  0.07495999999999996  0.01602999999999999  1.0000
  C   C56       1.0  0.5079899999999999  0.12672999999999993  0.9939499999999999  1.0000
  C   C57       1.0  0.5454700000000001  0.0987799999999999  0.9913399999999999  1.0000
  C   C58       1.0  0.5738800000000002  0.07258999999999995  0.98763  1.0000
  C   C59       1.0  0.6088500000000001  0.03981999999999996  0.9807499999999999  1.0000
  O   O3        1.0  0.5862500000000004  0.03035000000000008  0.04204000000000008  1.0000
  C   C60       1.0  0.6288300000000003  0.017410000000000068  0.05017999999999989  1.0000
  C   C61       1.0  0.6485599999999999  0.9611599999999998  0.9915299999999999  1.0000
  C   C62       1.0  0.6991799999999999  0.9596699999999998  0.003119999999999789  1.0000
  C   C63       1.0  0.7323500000000001  0.01578999999999996  0.07308000000000002  1.0000
  C   C64       1.0  0.7066500000000001  0.06543999999999972  0.13153999999999977  1.0000
  C   C65       1.0  0.6552  0.06572999999999975  0.12009999999999986  1.0000
  H   H25       1.0  0.4297  0.21793  0.11559  1.0000
  H   H26       1.0  0.61555  0.3114900000000001  0.07565999999999998  1.0000
  H   H27       1.0  0.5854700000000003  0.2774499999999998  0.9529599999999999  1.0000
  H   H28       1.0  0.51059  0.07444999999999993  0.8717899999999998  1.0000
  H   H29       1.0  0.3264100000000001  0.98177  0.9121399999999998  1.0000
  H   H30       1.0  0.35555000000000003  0.015100000000000004  0.03370999999999991  1.0000
  H   H31       1.0  0.68762  0.10234  0.97746  1.0000
  H   H32       1.0  0.5747900000000001  0.9622000000000002  0.93016  1.0000
  H   H33       1.0  0.62726  0.9206799999999999  0.93689  1.0000
  H   H34       1.0  0.7194800000000002  0.92272  0.9569999999999999  1.0000
  H   H35       1.0  0.73275  0.11113999999999981  0.18589999999999973  1.0000
  H   H36       1.0  0.6402300000000001  0.10889  0.16571000000000002  1.0000
  C   C66       1.0  0.89656  0.93794  0.7832799999999998  1.0000
  C   C67       1.0  0.8929500000000001  0.9422  0.73891  1.0000
  C   C68       1.0  0.8959400000000002  0.9484499999999998  0.6816899999999998  1.0000
  C   C69       1.0  0.9413400000000001  0.92645  0.6105399999999999  1.0000
  C   C70       1.0  0.9931800000000002  0.027689999999999982  0.61734  1.0000
  C   C71       1.0  0.9478599999999999  0.04966000000000004  0.68926  1.0000
  C   C72       1.0  0.86104  0.9815300000000001  0.64765  1.0000
  C   C73       1.0  0.80911  0.8800499999999999  0.6407899999999999  1.0000
  C   C74       1.0  0.8546200000000003  0.85815  0.56875  1.0000
  C   C75       1.0  0.9062999999999999  0.95929  0.57648  1.0000
  C   C76       1.0  0.9126500000000002  0.9677499999999999  0.5192  1.0000
  C   C77       1.0  0.9173900000000001  0.9781099999999999  0.47479999999999994  1.0000
  C   C78       1.0  0.9206200000000002  0.99487  0.42538  1.0000
  O   O4        1.0  0.98934  0.006570000000000015  0.37329  1.0000
  C   C79       1.0  0.008909999999999987  0.037440000000000015  0.32834  1.0000
  C   C80       1.0  0.9656000000000001  0.058449999999999974  0.33344999999999997  1.0000
  C   C81       1.0  0.9934600000000001  0.09686000000000004  0.29192  1.0000
  C   C82       1.0  0.06213000000000001  0.11167999999999996  0.24212999999999998  1.0000
  C   C83       1.0  0.10186000000000027  0.08548999999999997  0.23329  1.0000
  C   C84       1.0  0.07608999999999998  0.04977999999999998  0.27676  1.0000
  H   H37       1.0  0.97394  0.90334  0.59643  1.0000
  H   H38       1.0  0.06866000000000004  0.08802000000000006  0.60684  1.0000
  H   H39       1.0  0.9875199999999998  0.12916  0.7384  1.0000
  H   H40       1.0  0.8279400000000003  0.004509999999999968  0.66275  1.0000
  H   H41       1.0  0.7337  0.82039  0.65187  1.0000
  H   H42       1.0  0.8167400000000001  0.78  0.51848  1.0000
  H   H43       1.0  0.9402200000000001  0.06865999999999997  0.45932999999999996  1.0000
  H   H44       1.0  0.8488  0.9257899999999999  0.39755999999999997  1.0000
  H   H45       1.0  0.91022  0.04565000000000001  0.36924  1.0000
  H   H46       1.0  0.9591000000000003  0.11209  0.29677999999999993  1.0000
  H   H47       1.0  0.15281000000000006  0.09287  0.19326999999999994  1.0000
  H   H48       1.0  0.10891999999999989  0.03204000000000002  0.27051  1.0000
