data_image0
_chemical_formula_structural       Mn5CN8C2N8CN16Cl2C8O2C5NC6NC2H10C4O2C5NC6NC2H10C4O2C5NC6NC2H10C4O2C5NC6NC2H10
_chemical_formula_sum              "Mn5 C76 N40 Cl2 O8 H40"
_cell_length_a       15.4381
_cell_length_b       23.1314
_cell_length_c       18.457
_cell_angle_alpha    109.3719
_cell_angle_beta     61.18289999999999
_cell_angle_gamma    129.1211

_symmetry_space_group_name_H-M    'P 1'
_symmetry_Int_Tables_number       1

loop_
  _symmetry_equiv_pos_as_xyz
  'x,y,z'

loop_
  _atom_site_type_symbol
  _atom_site_label
  _atom_site_symmetry_multiplicity
  _atom_site_fract_x
  _atom_site_fract_y
  _atom_site_fract_z
  _atom_site_occupancy
  Mn  Mn1       1.0  0.9726000000000001  0.26937  0.24855  1.0000
  Mn  Mn2       1.0  0.82907  0.08156  0.20003000000000007  1.0000
  Mn  Mn3       1.0  0.0791399999999999  0.7952  0.81635  1.0000
  Mn  Mn4       1.0  0.23290999999999995  0.97818  0.87835  1.0000
  Mn  Mn5       1.0  0.03884999999999999  0.03485  0.040680000000000015  1.0000
  C   C1        1.0  0.82814  0.24623000000000003  0.1634  1.0000
  N   N1        1.0  0.8458600000000001  0.21712  0.20272  1.0000
  N   N2        1.0  0.7876299999999999  0.14481000000000002  0.18465000000000006  1.0000
  N   N3        1.0  0.72935  0.12847  0.13918  1.0000
  N   N4        1.0  0.75399  0.19078  0.12398  1.0000
  N   N5        1.0  0.73252  0.00496  0.06631  1.0000
  N   N6        1.0  0.8114500000000002  0.02345  0.09448  1.0000
  N   N7        1.0  0.88875  0.008280000000000006  0.037410000000000165  1.0000
  N   N8        1.0  0.8621500000000002  0.9789000000000001  0.9704600000000002  1.0000
  C   C2        1.0  0.76399  0.9760100000000002  0.9894100000000002  1.0000
  C   C3        1.0  0.89299  0.97019  0.2763100000000001  1.0000
  N   N9        1.0  0.87425  0.023240000000000004  0.21677000000000005  1.0000
  N   N10       1.0  0.83497  0.00012000000000000122  0.2895  1.0000
  N   N11       1.0  0.09146  0.14577  0.08121  1.0000
  N   N12       1.0  0.004819999999999989  0.15464  0.1366  1.0000
  N   N13       1.0  0.046049999999999966  0.22443999999999997  0.14839000000000005  1.0000
  N   N14       1.0  0.15683000000000005  0.26161000000000006  0.09523  1.0000
  N   N15       1.0  0.9533400000000001  0.0085  0.16108  1.0000
  N   N16       1.0  0.9704499999999999  0.9769799999999998  0.19654  1.0000
  C   C4        1.0  0.19035000000000007  0.21588000000000002  0.046049999999999924  1.0000
  N   N17       1.0  0.1763  0.83348  0.88572  1.0000
  N   N18       1.0  0.2570000000000001  0.9063999999999999  0.89291  1.0000
  N   N19       1.0  0.30662000000000017  0.9185200000000001  0.94239  1.0000
  N   N20       1.0  0.26106  0.8546100000000001  0.9676600000000002  1.0000
  N   N21       1.0  0.36403  0.0727199999999999  0.97952  1.0000
  N   N22       1.0  0.2529699999999998  0.031390000000000036  0.9839000000000002  1.0000
  N   N23       1.0  0.19519999999999998  0.06214999999999993  0.0365  1.0000
  N   N24       1.0  0.2739100000000001  0.12865  0.06035  1.0000
  N   N25       1.0  0.11307000000000021  0.10158000000000002  0.89859  1.0000
  N   N26       1.0  0.12452999999999997  0.06122000000000005  0.9236300000000002  1.0000
  N   N27       1.0  0.20170000000000018  0.046929999999999916  0.86345  1.0000
  N   N28       1.0  0.2450800000000002  0.0792900000000001  0.7945900000000002  1.0000
  N   N29       1.0  0.9782100000000004  0.9238800000000001  0.0005299999999999194  1.0000
  N   N30       1.0  0.05600999999999996  0.90899  0.9398000000000002  1.0000
  N   N31       1.0  0.9995000000000003  0.8436800000000001  0.90318  1.0000
  N   N32       1.0  0.8851600000000002  0.81508  0.93271  1.0000
  Cl  Cl1       1.0  0.8662000000000002  0.15973000000000007  0.31089  1.0000
  Cl  Cl2       1.0  0.2076499999999999  0.9094600000000002  0.76031  1.0000
  C   C5        1.0  0.17533000000000012  0.8009400000000002  0.93509  1.0000
  C   C6        1.0  0.37846  0.13433000000000003  0.02544  1.0000
  C   C7        1.0  0.1875800000000001  0.1133599999999999  0.8194300000000002  1.0000
  C   C8        1.0  0.86881  0.86266  0.99396  1.0000
  C   C9        1.0  0.73944  0.83037  0.05204  1.0000
  C   C10       1.0  0.7018400000000001  0.8488900000000001  0.13677  1.0000
  C   C11       1.0  0.5973  0.79285  0.19384  1.0000
  C   C12       1.0  0.5552699999999999  0.8136899999999999  0.28336  1.0000
  O   O1        1.0  0.48602  0.76596  0.33521  1.0000
  O   O2        1.0  0.5944400000000002  0.8879200000000002  0.30887  1.0000
  C   C13       1.0  0.5459200000000002  0.717  0.16558  1.0000
  C   C14       1.0  0.58223  0.69924  0.0807  1.0000
  C   C15       1.0  0.58508  0.63183  0.04605  1.0000
  C   C16       1.0  0.69293  0.64093  0.98585  1.0000
  C   C17       1.0  0.70155  0.58088  0.95337  1.0000
  N   N33       1.0  0.6072600000000004  0.5126500000000002  0.98345  1.0000
  C   C18       1.0  0.5017  0.50037  0.04339  1.0000
  C   C19       1.0  0.41857  0.4283  0.08100000000000003  1.0000
  C   C20       1.0  0.3572700000000001  0.36294  0.03691000000000001  1.0000
  C   C21       1.0  0.29929  0.29084  0.06838000000000002  1.0000
  C   C22       1.0  0.34136000000000016  0.29458  0.12484000000000002  1.0000
  C   C23       1.0  0.38157  0.35858  0.17428  1.0000
  N   N34       1.0  0.42123  0.42339  0.15099  1.0000
  C   C24       1.0  0.4881800000000001  0.55995  0.07654  1.0000
  C   C25       1.0  0.6528400000000001  0.7583500000000001  0.028350000000000007  1.0000
  H   H1        1.0  0.7536800000000002  0.90415  0.15912  1.0000
  H   H2        1.0  0.56643  0.89646  0.37154  1.0000
  H   H3        1.0  0.48583  0.67386  0.20945  1.0000
  H   H4        1.0  0.7747599999999999  0.69415  0.9660200000000001  1.0000
  H   H5        1.0  0.7857100000000002  0.58966  0.90704  1.0000
  H   H6        1.0  0.34887  0.36543  0.9830800000000001  1.0000
  H   H7        1.0  0.32649999999999996  0.24678  0.14210999999999996  1.0000
  H   H8        1.0  0.3847500000000001  0.35766  0.23018  1.0000
  H   H9        1.0  0.4055200000000001  0.55073  0.12694  1.0000
  H   H10       1.0  0.67045  0.74413  0.96272  1.0000
  C   C26       1.0  0.06706000000000022  0.7354600000000001  0.98357  1.0000
  C   C27       1.0  0.96226  0.73358  0.027600000000000072  1.0000
  C   C28       1.0  0.8658  0.68443  0.09240000000000002  1.0000
  C   C29       1.0  0.7722000000000001  0.69676  0.15067  1.0000
  O   O3        1.0  0.6854500000000001  0.65345  0.20616  1.0000
  O   O4        1.0  0.7926100000000005  0.7646900000000002  0.14973000000000006  1.0000
  C   C30       1.0  0.8742900000000002  0.6351200000000001  0.11223  1.0000
  C   C31       1.0  0.9814200000000003  0.6390600000000002  0.07250000000000002  1.0000
  C   C32       1.0  0.005929999999999955  0.61154  0.11700000000000003  1.0000
  C   C33       1.0  0.06488000000000005  0.66222  0.17157000000000006  1.0000
  C   C34       1.0  0.0896400000000002  0.63903  0.21548  1.0000
  N   N35       1.0  0.05930000000000001  0.56826  0.20315  1.0000
  C   C35       1.0  0.0005700000000000889  0.51706  0.15107  1.0000
  C   C36       1.0  0.005080000000000073  0.45131  0.12323  1.0000
  C   C37       1.0  0.9057400000000001  0.37919  0.1524  1.0000
  C   C38       1.0  0.9231400000000001  0.32194  0.13132  1.0000
  C   C39       1.0  0.03738000000000003  0.33794  0.0805  1.0000
  C   C40       1.0  0.13307000000000013  0.4094300000000001  0.05284  1.0000
  N   N36       1.0  0.11508999999999991  0.4640099999999999  0.07461  1.0000
  C   C41       1.0  0.97067  0.53789  0.10782  1.0000
  C   C42       1.0  0.0768700000000001  0.6881400000000002  0.007040000000000157  1.0000
  H   H11       1.0  0.9602500000000002  0.77568  0.0168299999999999  1.0000
  H   H12       1.0  0.7425700000000003  0.77607  0.20457  1.0000
  H   H13       1.0  0.8053400000000001  0.60153  0.16681000000000007  1.0000
  H   H14       1.0  0.09371000000000018  0.7198200000000001  0.17836000000000005  1.0000
  H   H15       1.0  0.13477999999999998  0.67809  0.25824  1.0000
  H   H16       1.0  0.81941  0.36946  0.19199000000000005  1.0000
  H   H17       1.0  0.05333  0.29535  0.06281000000000003  1.0000
  H   H18       1.0  0.2221600000000001  0.4222800000000001  0.01591  1.0000
  H   H19       1.0  0.9295900000000001  0.49982  0.06344  1.0000
  H   H20       1.0  0.16305  0.6951899999999999  0.97973  1.0000
  C   C43       1.0  0.498  0.20384  0.9947700000000002  1.0000
  C   C44       1.0  0.5102999999999999  0.25707  0.9630900000000001  1.0000
  C   C45       1.0  0.6242300000000001  0.3110200000000001  0.9099500000000003  1.0000
  C   C46       1.0  0.6430400000000001  0.37143  0.88019  1.0000
  O   O5        1.0  0.5637999999999999  0.36172  0.86739  1.0000
  O   O6        1.0  0.75608  0.43864  0.8618900000000002  1.0000
  C   C47       1.0  0.7196299999999999  0.30282  0.87788  1.0000
  C   C48       1.0  0.7033000000000001  0.24325  0.90017  1.0000
  C   C49       1.0  0.7729000000000001  0.20986  0.84076  1.0000
  C   C50       1.0  0.8242100000000004  0.21879  0.75444  1.0000
  C   C51       1.0  0.8387100000000001  0.16477  0.69888  1.0000
  N   N37       1.0  0.8007400000000002  0.10325000000000006  0.72812  1.0000
  C   C52       1.0  0.76708  0.09691999999999991  0.80944  1.0000
  C   C53       1.0  0.73611  0.02949000000000002  0.83494  1.0000
  C   C54       1.0  0.7399800000000004  0.028350000000000323  0.90932  1.0000
  C   C55       1.0  0.7271300000000002  0.9677100000000001  0.9247  1.0000
  C   C56       1.0  0.70592  0.90715  0.8672  1.0000
  C   C57       1.0  0.70089  0.90927  0.79467  1.0000
  N   N38       1.0  0.71864  0.9702600000000001  0.77961  1.0000
  C   C58       1.0  0.76048  0.15339  0.86628  1.0000
  C   C59       1.0  0.5973  0.20132000000000003  0.9677800000000002  1.0000
  H   H21       1.0  0.4293100000000001  0.25142  0.9735600000000001  1.0000
  H   H22       1.0  0.76442  0.47391  0.83418  1.0000
  H   H23       1.0  0.8035800000000001  0.33912000000000003  0.8290200000000002  1.0000
  H   H24       1.0  0.8407500000000001  0.26228  0.72923  1.0000
  H   H25       1.0  0.8701199999999999  0.16897  0.6327300000000002  1.0000
  H   H26       1.0  0.76324  0.07650000000000001  0.95182  1.0000
  H   H27       1.0  0.70063  0.86099  0.87614  1.0000
  H   H28       1.0  0.6900600000000001  0.86422  0.74813  1.0000
  H   H29       1.0  0.72968  0.14853  0.93224  1.0000
  H   H30       1.0  0.5810200000000002  0.15601  0.98899  1.0000
  C   C60       1.0  0.20372  0.16296  0.77346  1.0000
  C   C61       1.0  0.17227999999999988  0.21245  0.8264400000000002  1.0000
  C   C62       1.0  0.10122999999999996  0.22268  0.81381  1.0000
  C   C63       1.0  0.02806000000000007  0.24738000000000002  0.88339  1.0000
  O   O7        1.0  0.021739999999999947  0.29357  0.87209  1.0000
  O   O8        1.0  0.9568699999999997  0.21418  0.9608900000000002  1.0000
  C   C64       1.0  0.09459999999999998  0.20419999999999996  0.73602  1.0000
  C   C65       1.0  0.14327999999999988  0.16521  0.6756000000000002  1.0000
  C   C66       1.0  0.14565999999999998  0.15479  0.59152  1.0000
  C   C67       1.0  0.22309999999999997  0.21770000000000003  0.5426200000000001  1.0000
  C   C68       1.0  0.21513000000000002  0.21021  0.46825  1.0000
  N   N39       1.0  0.13285000000000002  0.14327000000000004  0.44381  1.0000
  C   C69       1.0  0.05810999999999998  0.07994  0.4876000000000001  1.0000
  C   C70       1.0  0.9673100000000001  0.011100000000000004  0.4568000000000001  1.0000
  C   C71       1.0  0.98885  0.0028299999999999987  0.37166  1.0000
  C   C72       1.0  0.8915400000000001  0.95166  0.34573  1.0000
  C   C73       1.0  0.7800299999999998  0.8995000000000001  0.40142  1.0000
  C   C74       1.0  0.7637100000000002  0.90579  0.4851100000000001  1.0000
  N   N40       1.0  0.85552  0.9624299999999999  0.51119  1.0000
  C   C75       1.0  0.06145  0.08556  0.56429  1.0000
  C   C76       1.0  0.1945699999999999  0.14200000000000002  0.6952700000000003  1.0000
  H   H31       1.0  0.18292999999999998  0.2307  0.8858  1.0000
  H   H32       1.0  0.95527  0.17203  0.97018  1.0000
  H   H33       1.0  0.046950000000000006  0.21731000000000003  0.72331  1.0000
  H   H34       1.0  0.2872  0.27183  0.56326  1.0000
  H   H35       1.0  0.27297  0.25727  0.42991  1.0000
  H   H36       1.0  0.07313000000000001  0.04471000000000001  0.32914  1.0000
  H   H37       1.0  0.7037399999999999  0.85965  0.38205  1.0000
  H   H38       1.0  0.67482  0.86932  0.52943  1.0000
  H   H39       1.0  0.9991300000000001  0.03721  0.6023  1.0000
  H   H40       1.0  0.22012000000000007  0.10515000000000001  0.6524000000000002  1.0000
