data_image0
_chemical_formula_structural       NdONdOC3O4COCO3CO2NdONdOC3O4COCO3CO2NdONdOC3O4COCO3CO2NdONdOC3O4COCO3CO2C3FCFC2FCFH2C3FCFC2FCFH2C3FCFC2FCFH2C3FCFC2FCFH2C3FCFC2FCFH2C3FCFC2FCFH2C3FCFC2FCFH2C3FCFC2FCFH2C3FCFC2FCFH2C3FCFC2FCFH2C3FCFC2FCFH2C3FCFC2FCFH2
_chemical_formula_sum              "Nd8 O48 C108 F48 H24"
_cell_length_a       21.1959
_cell_length_b       17.1749
_cell_length_c       17.4684
_cell_angle_alpha    93.2469
_cell_angle_beta     82.4131
_cell_angle_gamma    101.67479999999999

_symmetry_space_group_name_H-M    'P 1'
_symmetry_Int_Tables_number       1

loop_
  _symmetry_equiv_pos_as_xyz
  'x,y,z'

loop_
  _atom_site_type_symbol
  _atom_site_label
  _atom_site_symmetry_multiplicity
  _atom_site_fract_x
  _atom_site_fract_y
  _atom_site_fract_z
  _atom_site_occupancy
  Nd  Nd1       1.0  0.19251000000000001  0.71226  0.01733999999999991  1.0000
  O   O1        1.0  0.11234000000000001  0.68097  0.9356  1.0000
  Nd  Nd2       1.0  0.1569  0.60289  0.8383  1.0000
  O   O2        1.0  0.13828999999999997  0.72832  0.82061  1.0000
  C   C1        1.0  0.11128000000000002  0.5625  0.017740000000000086  1.0000
  C   C2        1.0  0.27953  0.62966  0.92924  1.0000
  C   C3        1.0  0.10749000000000003  0.76946  0.12768999999999986  1.0000
  O   O3        1.0  0.14771  0.58878  0.06506  1.0000
  O   O4        1.0  0.10900000000000001  0.62139  0.96586  1.0000
  O   O5        1.0  0.13931999999999997  0.71853  0.14020999999999997  1.0000
  O   O6        1.0  0.11840000000000002  0.7913999999999999  0.05889000000000011  1.0000
  C   C4        1.0  0.06303999999999998  0.61592  0.74751  1.0000
  O   O7        1.0  0.25531000000000004  0.6683  0.7777699999999999  1.0000
  C   C5        1.0  0.25762000000000007  0.6201899999999998  0.72049  1.0000
  O   O8        1.0  0.20863000000000004  0.5649399999999998  0.7230499999999997  1.0000
  O   O9        1.0  0.061890000000000014  0.55463  0.78555  1.0000
  O   O10       1.0  0.11025999999999998  0.6717899999999998  0.7585  1.0000
  C   C6        1.0  0.11515  0.74393  0.88632  1.0000
  O   O11       1.0  0.24564000000000014  0.6758  0.89579  1.0000
  O   O12       1.0  0.26452  0.62725  0.99841  1.0000
  Nd  Nd3       1.0  0.7009500000000001  0.7851599999999997  0.019099999999999995  1.0000
  O   O13       1.0  0.67946  0.8682499999999997  0.12107999999999998  1.0000
  Nd  Nd4       1.0  0.5708900000000001  0.88001  0.12402999999999999  1.0000
  O   O14       1.0  0.6583499999999999  0.9830099999999999  0.10019  1.0000
  C   C7        1.0  0.62097  0.71602  0.14760999999999996  1.0000
  C   C8        1.0  0.5781300000000003  0.76918  0.97058  1.0000
  C   C9        1.0  0.8141600000000001  0.77374  0.07614  1.0000
  O   O15       1.0  0.6499300000000001  0.6827699999999998  0.09609  1.0000
  O   O16       1.0  0.64381  0.7986  0.14365999999999998  1.0000
  O   O17       1.0  0.7893300000000002  0.83353  0.08041  1.0000
  O   O18       1.0  0.77998  0.7156999999999998  0.04472999999999993  1.0000
  C   C10       1.0  0.60188  0.9741899999999999  0.25367  1.0000
  O   O19       1.0  0.4995600000000001  0.95832  0.09566  1.0000
  C   C11       1.0  0.5426600000000001  0.02054  0.08019  1.0000
  O   O20       1.0  0.5995000000000001  0.010419999999999999  0.08667999999999997  1.0000
  O   O21       1.0  0.6186999999999999  0.9969199999999999  0.18614  1.0000
  O   O22       1.0  0.56051  0.91052  0.25612  1.0000
  C   C12       1.0  0.7032900000000003  0.94776  0.09865  1.0000
  O   O23       1.0  0.60928  0.84129  0.99791  1.0000
  O   O24       1.0  0.61176  0.7197099999999998  0.96519  1.0000
  Nd  Nd5       1.0  0.93865  0.16329  0.75394  1.0000
  O   O25       1.0  0.84616  0.08748  0.70393  1.0000
  Nd  Nd6       1.0  0.81121  0.17636000000000002  0.63744  1.0000
  O   O26       1.0  0.74994  0.11782  0.7413399999999998  1.0000
  C   C13       1.0  0.94836  0.10136000000000002  0.60364  1.0000
  C   C14       1.0  0.9330200000000001  0.30074  0.67996  1.0000
  C   C15       1.0  0.9695000000000001  0.02263999999999999  0.7874999999999998  1.0000
  O   O27       1.0  0.99291  0.13497999999999993  0.6376  1.0000
  O   O28       1.0  0.8887  0.09604999999999998  0.65159  1.0000
  O   O29       1.0  0.008340000000000035  0.07596  0.7497099999999998  1.0000
  O   O30       1.0  0.9179000000000003  0.04417  0.81484  1.0000
  C   C16       1.0  0.8199000000000001  0.12591  0.48960999999999993  1.0000
  O   O31       1.0  0.8369700000000002  0.28031  0.5518  1.0000
  C   C17       1.0  0.7818300000000001  0.3002  0.5651699999999998  1.0000
  O   O32       1.0  0.7443900000000001  0.25906  0.6161299999999997  1.0000
  O   O33       1.0  0.77431  0.0934  0.54043  1.0000
  O   O34       1.0  0.86273  0.18124999999999994  0.51577  1.0000
  C   C18       1.0  0.79037  0.08349  0.75955  1.0000
  O   O35       1.0  0.8787  0.2564199999999999  0.71959  1.0000
  O   O36       1.0  0.9803700000000001  0.27205  0.68105  1.0000
  Nd  Nd7       1.0  0.37458  0.20215999999999995  0.39938  1.0000
  O   O37       1.0  0.38168000000000013  0.31583  0.33351  1.0000
  Nd  Nd8       1.0  0.27889  0.34272  0.34792  1.0000
  O   O38       1.0  0.33441000000000004  0.31513  0.22987  1.0000
  C   C19       1.0  0.3629800000000001  0.34351999999999994  0.48224999999999996  1.0000
  C   C20       1.0  0.2358700000000001  0.17015999999999995  0.4242899999999999  1.0000
  C   C21       1.0  0.5004100000000001  0.2531  0.43636999999999987  1.0000
  O   O39       1.0  0.36519  0.28139999999999993  0.51021  1.0000
  O   O40       1.0  0.3712500000000001  0.33722999999999986  0.4019599999999999  1.0000
  O   O41       1.0  0.4860900000000003  0.24384  0.36825  1.0000
  O   O42       1.0  0.45120000000000005  0.23234999999999995  0.48464  1.0000
  C   C22       1.0  0.33301000000000003  0.49279  0.28521  1.0000
  O   O43       1.0  0.18336000000000005  0.34937  0.30504  1.0000
  C   C23       1.0  0.2012700000000001  0.33892  0.23413999999999996  1.0000
  O   O44       1.0  0.25748999999999994  0.32172  0.22135  1.0000
  O   O45       1.0  0.33875000000000005  0.4281799999999999  0.2517  1.0000
  O   O46       1.0  0.30032000000000003  0.48135  0.34957  1.0000
  C   C24       1.0  0.38046  0.29603  0.25421  1.0000
  O   O47       1.0  0.26954  0.20343999999999995  0.35787  1.0000
  O   O48       1.0  0.2729  0.15806  0.46687999999999996  1.0000
  C   C25       1.0  0.33625000000000005  0.59818  0.88906  1.0000
  C   C26       1.0  0.39713  0.6513299999999997  0.9114899999999998  1.0000
  C   C27       1.0  0.41196999999999995  0.6511  0.9876  1.0000
  F   F1        1.0  0.3742400000000001  0.60045  0.03986  1.0000
  C   C28       1.0  0.46719  0.70102  0.00969  1.0000
  F   F2        1.0  0.48026  0.70052  0.08332  1.0000
  C   C29       1.0  0.5108400000000001  0.74773  0.95541  1.0000
  C   C30       1.0  0.4953900000000002  0.75111  0.8803599999999999  1.0000
  F   F3        1.0  0.5375700000000001  0.7961499999999999  0.8271699999999997  1.0000
  C   C31       1.0  0.43817  0.70398  0.8586299999999998  1.0000
  F   F4        1.0  0.42391  0.70838  0.78576  1.0000
  H   H1        1.0  0.33344  0.53626  0.9062199999999998  1.0000
  H   H2        1.0  0.33576000000000006  0.59653  0.8257999999999998  1.0000
  C   C32       1.0  0.53097  0.09845999999999998  0.05445999999999999  1.0000
  C   C33       1.0  0.49378  0.14444  0.11553999999999998  1.0000
  C   C34       1.0  0.52511  0.21509  0.15142  1.0000
  F   F5        1.0  0.5907700000000001  0.23760999999999996  0.14015  1.0000
  C   C35       1.0  0.48873  0.26446  0.19745  1.0000
  F   F6        1.0  0.51971  0.33336  0.22895999999999997  1.0000
  C   C36       1.0  0.42075  0.2445  0.20805  1.0000
  C   C37       1.0  0.3896700000000001  0.17297  0.17429999999999995  1.0000
  F   F7        1.0  0.32395000000000007  0.15098  0.1852  1.0000
  C   C38       1.0  0.4258  0.12344999999999999  0.12892  1.0000
  F   F8        1.0  0.39409  0.05631  0.09521  1.0000
  H   H3        1.0  0.57916  0.13609  0.03569  1.0000
  H   H4        1.0  0.50564  0.08784  0.00193  1.0000
  C   C39       1.0  0.7617800000000001  0.36529  0.52508  1.0000
  C   C40       1.0  0.69345  0.34003  0.50153  1.0000
  C   C41       1.0  0.63892  0.3233  0.55792  1.0000
  F   F9        1.0  0.6457000000000002  0.3340799999999999  0.6341399999999999  1.0000
  C   C42       1.0  0.57651  0.29655  0.53674  1.0000
  F   F10       1.0  0.52574  0.28188  0.5936  1.0000
  C   C43       1.0  0.5666000000000001  0.28587  0.45830999999999994  1.0000
  C   C44       1.0  0.6203200000000001  0.3084199999999999  0.40194  1.0000
  F   F11       1.0  0.61254  0.30492999999999987  0.32591  1.0000
  C   C45       1.0  0.68286  0.33555  0.42334  1.0000
  F   F12       1.0  0.73322  0.35676  0.3671799999999999  1.0000
  H   H5        1.0  0.7628400000000001  0.41811  0.56507  1.0000
  H   H6        1.0  0.79831  0.3831199999999999  0.47420999999999996  1.0000
  C   C46       1.0  0.77141  0.99297  0.07702999999999992  1.0000
  C   C47       1.0  0.77909  0.01641  0.9936  1.0000
  C   C48       1.0  0.77743  0.09474  0.97595  1.0000
  F   F13       1.0  0.7710800000000001  0.15090999999999996  0.032829999999999915  1.0000
  C   C49       1.0  0.78137  0.11565  0.89927  1.0000
  F   F14       1.0  0.78209  0.19240999999999991  0.8835899999999998  1.0000
  C   C50       1.0  0.78567  0.05849  0.8389899999999999  1.0000
  C   C51       1.0  0.78728  0.9805500000000001  0.85575  1.0000
  F   F15       1.0  0.7931400000000001  0.9252399999999997  0.7978899999999998  1.0000
  C   C52       1.0  0.7850600000000002  0.95997  0.93239  1.0000
  F   F16       1.0  0.78949  0.8849299999999998  0.9459899999999999  1.0000
  H   H7        1.0  0.7774700000000002  0.046749999999999986  0.1158  1.0000
  H   H8        1.0  0.81096  0.9647499999999999  0.08832  1.0000
  C   C53       1.0  0.82341  0.10345  0.40519  1.0000
  C   C54       1.0  0.75744  0.06872  0.38056  1.0000
  C   C55       1.0  0.7172200000000001  0.11882999999999998  0.3616899999999999  1.0000
  F   F17       1.0  0.73591  0.19858999999999993  0.37023  1.0000
  C   C56       1.0  0.6608  0.08745000000000003  0.32753  1.0000
  F   F18       1.0  0.6267500000000001  0.13752999999999993  0.30161  1.0000
  C   C57       1.0  0.64269  0.00503000000000009  0.31442999999999993  1.0000
  C   C58       1.0  0.68111  0.95464  0.33739  1.0000
  F   F19       1.0  0.6681200000000002  0.8755  0.3195399999999999  1.0000
  C   C59       1.0  0.7382600000000001  0.9862399999999999  0.36934  1.0000
  F   F20       1.0  0.77733  0.93659  0.38392999999999994  1.0000
  H   H9        1.0  0.8455800000000001  0.1574  0.37136  1.0000
  H   H10       1.0  0.8570600000000002  0.06132  0.39157  1.0000
  C   C60       1.0  0.31238  0.6288799999999998  0.65586  1.0000
  C   C61       1.0  0.3235  0.55223  0.6128899999999998  1.0000
  C   C62       1.0  0.3519  0.55689  0.53535  1.0000
  F   F21       1.0  0.3662500000000001  0.62746  0.49944999999999995  1.0000
  C   C63       1.0  0.36791  0.48985  0.49461999999999995  1.0000
  F   F22       1.0  0.40244  0.49879  0.4235099999999999  1.0000
  C   C64       1.0  0.35162000000000004  0.41526  0.5282799999999997  1.0000
  C   C65       1.0  0.32436  0.4099899999999999  0.60615  1.0000
  F   F23       1.0  0.3090700000000001  0.3387899999999998  0.6410799999999998  1.0000
  C   C66       1.0  0.3128000000000001  0.4782199999999999  0.6489899999999997  1.0000
  F   F24       1.0  0.2926  0.47142  0.72573  1.0000
  H   H11       1.0  0.3013  0.67001  0.61499  1.0000
  H   H12       1.0  0.3579800000000001  0.65823  0.67841  1.0000
  C   C67       1.0  0.07563  0.47708999999999996  0.01634000000000002  1.0000
  C   C68       1.0  0.10315000000000002  0.4278  0.06853  1.0000
  C   C69       1.0  0.07047  0.40599  0.14193  1.0000
  F   F25       1.0  0.01090000000000001  0.42288  0.16518999999999995  1.0000
  C   C70       1.0  0.10055  0.37122  0.19404  1.0000
  F   F26       1.0  0.06886999999999999  0.3555699999999999  0.26604  1.0000
  C   C71       1.0  0.16396  0.3567799999999999  0.17358  1.0000
  C   C72       1.0  0.19493000000000005  0.37404  0.09845  1.0000
  F   F27       1.0  0.25616999999999995  0.3618299999999999  0.07675  1.0000
  C   C73       1.0  0.16519  0.41002  0.04688  1.0000
  F   F28       1.0  0.19846000000000005  0.43181999999999987  0.97706  1.0000
  H   H13       1.0  0.02310999999999998  0.4750299999999999  0.034210000000000074  1.0000
  H   H14       1.0  0.08089000000000002  0.45222999999999997  0.95638  1.0000
  C   C74       1.0  0.9607900000000001  0.05976  0.52625  1.0000
  C   C75       1.0  0.03127  0.08613  0.49145  1.0000
  C   C76       1.0  0.07465  0.03328  0.48216999999999993  1.0000
  F   F29       1.0  0.05406000000000001  0.9557799999999999  0.50083  1.0000
  C   C77       1.0  0.14054999999999998  0.060779999999999994  0.4565  1.0000
  F   F30       1.0  0.18151  0.008810000000000002  0.44981  1.0000
  C   C78       1.0  0.16477000000000003  0.14146  0.4403199999999999  1.0000
  C   C79       1.0  0.12148000000000007  0.1941  0.44874  1.0000
  F   F31       1.0  0.1438  0.27312  0.4395399999999999  1.0000
  C   C80       1.0  0.05539000000000003  0.16654  0.47359  1.0000
  F   F32       1.0  0.015190000000000009  0.21941  0.48496  1.0000
  H   H15       1.0  0.9486600000000001  0.99458  0.53523  1.0000
  H   H16       1.0  0.9290300000000002  0.0727  0.48563999999999996  1.0000
  C   C81       1.0  0.9761300000000003  0.9379599999999998  0.7824199999999998  1.0000
  C   C82       1.0  0.009219999999999971  0.9108599999999999  0.8443899999999998  1.0000
  C   C83       1.0  0.97723  0.84423  0.8875  1.0000
  F   F33       1.0  0.9115600000000001  0.82188  0.8939599999999998  1.0000
  C   C84       1.0  0.013289999999999993  0.7944099999999997  0.91543  1.0000
  F   F34       1.0  0.9819200000000002  0.72406  0.94607  1.0000
  C   C85       1.0  0.08128000000000005  0.8111399999999999  0.9004599999999998  1.0000
  C   C86       1.0  0.11256000000000001  0.885  0.87018  1.0000
  F   F35       1.0  0.17832000000000003  0.9036299999999999  0.85779  1.0000
  C   C87       1.0  0.0767  0.93505  0.84275  1.0000
  F   F36       1.0  0.10862  0.0016899999999999693  0.80569  1.0000
  H   H17       1.0  0.9270900000000001  0.90096  0.77972  1.0000
  H   H18       1.0  0.003629999999999961  0.9275799999999997  0.72528  1.0000
  C   C88       1.0  0.013969999999999972  0.62457  0.69573  1.0000
  C   C89       1.0  0.9818300000000002  0.5444299999999997  0.66716  1.0000
  C   C90       1.0  0.9189200000000002  0.51  0.70007  1.0000
  F   F37       1.0  0.8822200000000002  0.55342  0.74757  1.0000
  C   C91       1.0  0.8967800000000002  0.42826999999999993  0.69229  1.0000
  F   F38       1.0  0.83955  0.39468  0.73301  1.0000
  C   C92       1.0  0.9381700000000001  0.38092  0.6531599999999997  1.0000
  C   C93       1.0  0.9959  0.41686  0.6088699999999998  1.0000
  F   F39       1.0  0.0345899999999999  0.3718  0.5666  1.0000
  C   C94       1.0  0.01830999999999999  0.49850999999999995  0.61687  1.0000
  F   F40       1.0  0.07864000000000006  0.53101  0.5828399999999998  1.0000
  H   H19       1.0  0.9783800000000001  0.6569999999999998  0.7288099999999998  1.0000
  H   H20       1.0  0.03823000000000002  0.661  0.64565  1.0000
  C   C95       1.0  0.062179999999999895  0.80098  0.18825  1.0000
  C   C96       1.0  0.99703  0.7920899999999997  0.16046  1.0000
  C   C97       1.0  0.9515500000000001  0.7198099999999997  0.16706  1.0000
  F   F41       1.0  0.9645900000000001  0.65752  0.20249999999999996  1.0000
  C   C98       1.0  0.89213  0.7117999999999999  0.13744  1.0000
  F   F42       1.0  0.8477900000000002  0.64292  0.14667999999999998  1.0000
  C   C99       1.0  0.8776400000000001  0.77635  0.10215999999999997  1.0000
  C   C100      1.0  0.92389  0.84768  0.09444000000000007  1.0000
  F   F43       1.0  0.9124300000000001  0.9102799999999999  0.058089999999999975  1.0000
  C   C101      1.0  0.98281  0.85549  0.12336999999999974  1.0000
  F   F44       1.0  0.02658999999999986  0.9249099999999998  0.11389999999999965  1.0000
  H   H21       1.0  0.05798000000000004  0.76996  0.24316999999999997  1.0000
  H   H22       1.0  0.08304  0.8644499999999998  0.20022999999999969  1.0000
  C   C102      1.0  0.35828000000000004  0.57337  0.25137  1.0000
  C   C103      1.0  0.43162999999999996  0.5981999999999998  0.24302999999999997  1.0000
  C   C104      1.0  0.46923999999999993  0.5595999999999998  0.18709  1.0000
  F   F45       1.0  0.44163000000000013  0.49321  0.14841999999999994  1.0000
  C   C105      1.0  0.53394  0.59383  0.16382  1.0000
  F   F46       1.0  0.56614  0.55639  0.10513  1.0000
  C   C106      1.0  0.5620500000000002  0.66981  0.19346  1.0000
  C   C107      1.0  0.52747  0.70244  0.25721  1.0000
  F   F47       1.0  0.55599  0.76854  0.29482  1.0000
  C   C108      1.0  0.46255000000000007  0.66691  0.28201  1.0000
  F   F48       1.0  0.4289200000000001  0.70209  0.34102  1.0000
  H   H23       1.0  0.34207000000000004  0.57264  0.19319999999999996  1.0000
  H   H24       1.0  0.33526000000000006  0.61806  0.2870699999999999  1.0000
