data_image0
_chemical_formula_structural       NdONdOC3O4COCO3CO2NdONdOC3O4COCO3CO2NdONdOC3O4COCO3CO2NdONdOC3O4COCO3CO2C3ClC2N2CN2C2ClH4C3ClC2N2CN2C2ClH4C3ClC2N2CN2C2ClH4C3ClC2N2CN2C2ClH4C3ClC2N2CN2C2ClH4C3ClC2N2CN2C2ClH4C3ClC2N2CN2C2ClH4C3ClC2N2CN2C2ClH4C3ClC2N2CN2C2ClH4C3ClC2N2CN2C2ClH4C3ClC2N2CN2C2ClH4C3ClC2N2CN2C2ClH4
_chemical_formula_sum              "Nd8 O48 C120 Cl24 N48 H48"
_cell_length_a       27.5626
_cell_length_b       21.327399999999997
_cell_length_c       22.5652
_cell_angle_alpha    89.60310000000001
_cell_angle_beta     85.3979
_cell_angle_gamma    99.063

_symmetry_space_group_name_H-M    'P 1'
_symmetry_Int_Tables_number       1

loop_
  _symmetry_equiv_pos_as_xyz
  'x,y,z'

loop_
  _atom_site_type_symbol
  _atom_site_label
  _atom_site_symmetry_multiplicity
  _atom_site_fract_x
  _atom_site_fract_y
  _atom_site_fract_z
  _atom_site_occupancy
  Nd  Nd1       1.0  0.165  0.7478199999999999  0.9568200000000001  1.0000
  O   O1        1.0  0.12840999999999994  0.66686  0.9022300000000002  1.0000
  Nd  Nd2       1.0  0.18847  0.60686  0.8750500000000001  1.0000
  O   O2        1.0  0.15269  0.66355  0.8082000000000001  1.0000
  C   C1        1.0  0.14676  0.62554  0.009400000000000297  1.0000
  C   C2        1.0  0.25836  0.7119800000000001  0.9402300000000001  1.0000
  C   C3        1.0  0.07447000000000001  0.7722400000000001  0.0022599999999999287  1.0000
  O   O3        1.0  0.15914  0.67534  0.0332  1.0000
  O   O4        1.0  0.13530000000000003  0.63712  0.95118  1.0000
  O   O5        1.0  0.08395999999999999  0.7585399999999999  0.9492500000000003  1.0000
  O   O6        1.0  0.11107999999999997  0.77511  0.03204000000000007  1.0000
  C   C4        1.0  0.11749999999999997  0.53514  0.8116400000000001  1.0000
  O   O7        1.0  0.25028  0.56683  0.82178  1.0000
  C   C5        1.0  0.25011  0.59711  0.77414  1.0000
  O   O8        1.0  0.21855  0.63403  0.7775500000000001  1.0000
  O   O9        1.0  0.13936999999999994  0.58921  0.7950900000000002  1.0000
  O   O10       1.0  0.13301  0.51612  0.85823  1.0000
  C   C6        1.0  0.12818999999999994  0.6907499999999999  0.8442300000000003  1.0000
  O   O11       1.0  0.22814  0.70927  0.8948900000000002  1.0000
  O   O12       1.0  0.24046  0.73337  0.9847  1.0000
  Nd  Nd3       1.0  0.66476  0.8082800000000001  0.04363000000000001  1.0000
  O   O13       1.0  0.6596199999999998  0.9157200000000001  0.04778000000000002  1.0000
  Nd  Nd4       1.0  0.58275  0.9125700000000001  0.0992  1.0000
  O   O14       1.0  0.6003899999999998  0.9462100000000001  0.00217  1.0000
  C   C7        1.0  0.61736  0.7843900000000003  0.15443  1.0000
  C   C8        1.0  0.57489  0.79372  0.9997900000000001  1.0000
  C   C9        1.0  0.75735  0.82492  0.07491  1.0000
  O   O15       1.0  0.66188  0.7863  0.14454000000000003  1.0000
  O   O16       1.0  0.5944799999999999  0.80395  0.10474000000000003  1.0000
  O   O17       1.0  0.7204999999999998  0.82565  0.113  1.0000
  O   O18       1.0  0.7466899999999997  0.81746  0.021250000000000005  1.0000
  C   C10       1.0  0.6280399999999999  0.9219700000000001  0.20433000000000004  1.0000
  O   O19       1.0  0.5115  0.9461  0.13875  1.0000
  C   C11       1.0  0.53098  0.00409  0.14075  1.0000
  O   O20       1.0  0.5747699999999998  0.01527  0.11736  1.0000
  O   O21       1.0  0.64736  0.94772  0.15621  1.0000
  O   O22       1.0  0.58613  0.8906300000000001  0.19897000000000004  1.0000
  C   C12       1.0  0.6433299999999998  0.9380900000000001  0.9961  1.0000
  O   O23       1.0  0.5813599999999998  0.80666  0.061350000000000016  1.0000
  O   O24       1.0  0.6137699999999999  0.7951  0.96921  1.0000
  Nd  Nd5       1.0  0.8972099999999998  0.08639999999999999  0.71022  1.0000
  O   O25       1.0  0.86228  0.0762  0.62346  1.0000
  Nd  Nd6       1.0  0.8560399999999998  0.1761  0.59036  1.0000
  O   O26       1.0  0.78882  0.09945000000000001  0.62336  1.0000
  C   C13       1.0  0.95625  0.11670999999999997  0.60578  1.0000
  C   C14       1.0  0.91093  0.21988  0.7046800000000001  1.0000
  C   C15       1.0  0.93866  0.99256  0.75841  1.0000
  O   O27       1.0  0.97042  0.11481000000000001  0.65519  1.0000
  O   O28       1.0  0.90485  0.09703  0.60607  1.0000
  O   O29       1.0  0.9205499999999999  0.99008  0.7089300000000001  1.0000
  O   O30       1.0  0.9344999999999999  0.043820000000000005  0.7857600000000001  1.0000
  C   C16       1.0  0.8080499999999998  0.11564  0.4968600000000001  1.0000
  O   O31       1.0  0.80887  0.25515  0.58016  1.0000
  C   C17       1.0  0.7676499999999998  0.2207  0.5954100000000001  1.0000
  O   O32       1.0  0.77249  0.1653  0.6132500000000001  1.0000
  O   O33       1.0  0.79114  0.1123  0.55004  1.0000
  O   O34       1.0  0.8498499999999998  0.14953  0.49054  1.0000
  C   C18       1.0  0.81214  0.059550000000000006  0.6408400000000001  1.0000
  O   O35       1.0  0.86713  0.18420000000000003  0.6929500000000001  1.0000
  O   O36       1.0  0.93982  0.18712000000000004  0.72014  1.0000
  Nd  Nd7       1.0  0.36440999999999996  0.24782  0.4439700000000001  1.0000
  O   O37       1.0  0.3861699999999999  0.33884  0.38435  1.0000
  Nd  Nd8       1.0  0.31441  0.3794  0.37779000000000007  1.0000
  O   O38       1.0  0.35921999999999993  0.34619  0.29640000000000005  1.0000
  C   C19       1.0  0.37139999999999995  0.36894  0.49283000000000005  1.0000
  C   C20       1.0  0.26192  0.2516  0.4425800000000001  1.0000
  C   C21       1.0  0.46432  0.25093999999999994  0.45758000000000004  1.0000
  O   O39       1.0  0.36457  0.31962  0.52113  1.0000
  O   O40       1.0  0.37804999999999994  0.35799  0.43261  1.0000
  O   O41       1.0  0.4311099999999999  0.23859  0.49912  1.0000
  O   O42       1.0  0.4466799999999999  0.25955  0.4093400000000001  1.0000
  C   C22       1.0  0.37554  0.49017  0.33193  1.0000
  O   O43       1.0  0.24988  0.40009000000000006  0.32637000000000005  1.0000
  C   C23       1.0  0.26721  0.38373  0.27624  1.0000
  O   O44       1.0  0.30702999999999997  0.36106  0.27861  1.0000
  O   O45       1.0  0.37221  0.43751  0.30818  1.0000
  O   O46       1.0  0.34518000000000004  0.48800999999999994  0.37598000000000004  1.0000
  C   C24       1.0  0.39014  0.32496  0.32327  1.0000
  O   O47       1.0  0.29437  0.26924  0.39415000000000006  1.0000
  O   O48       1.0  0.28287  0.23561000000000004  0.48383000000000004  1.0000
  C   C25       1.0  0.30836  0.69746  0.9359700000000002  1.0000
  C   C26       1.0  0.34091000000000005  0.72197  0.8875100000000002  1.0000
  C   C27       1.0  0.39174  0.72716  0.89107  1.0000
  Cl  Cl1       1.0  0.4318  0.7599  0.8300700000000001  1.0000
  C   C28       1.0  0.40957  0.70681  0.94336  1.0000
  C   C29       1.0  0.46198  0.71572  0.9520400000000001  1.0000
  N   N1        1.0  0.48649999999999993  0.66667  0.9580100000000001  1.0000
  N   N2        1.0  0.53035  0.69055  0.9749900000000001  1.0000
  C   C30       1.0  0.53155  0.75357  0.98048  1.0000
  N   N3        1.0  0.48915999999999976  0.77089  0.9662900000000001  1.0000
  N   N4        1.0  0.47531  0.83133  0.97054  1.0000
  C   C31       1.0  0.37689999999999996  0.67547  0.9885500000000003  1.0000
  C   C32       1.0  0.32634  0.67062  0.9852000000000002  1.0000
  Cl  Cl2       1.0  0.28671  0.63285  0.04448999999999992  1.0000
  H   H1        1.0  0.32698999999999995  0.74141  0.84903  1.0000
  H   H2        1.0  0.4475499999999999  0.82989  0.00547  1.0000
  H   H3        1.0  0.46182  0.8415700000000002  0.93004  1.0000
  H   H4        1.0  0.39087000000000005  0.65703  0.02754000000000012  1.0000
  C   C33       1.0  0.50799  0.05362  0.17264000000000002  1.0000
  C   C34       1.0  0.46917  0.07894  0.14968  1.0000
  C   C35       1.0  0.45245  0.13246  0.17541000000000004  1.0000
  Cl  Cl3       1.0  0.40806999999999993  0.16645  0.13978000000000002  1.0000
  C   C36       1.0  0.47435  0.16064  0.22533000000000006  1.0000
  C   C37       1.0  0.46306999999999987  0.22116  0.25061  1.0000
  N   N5        1.0  0.49847  0.26817  0.26574  1.0000
  N   N6        1.0  0.4761899999999999  0.31232  0.29246  1.0000
  C   C38       1.0  0.4274199999999999  0.29172  0.29349  1.0000
  N   N7        1.0  0.41801  0.23493  0.26741000000000004  1.0000
  N   N8        1.0  0.3728599999999999  0.19346000000000002  0.2701700000000001  1.0000
  C   C39       1.0  0.5120500000000001  0.13386  0.24893000000000004  1.0000
  C   C40       1.0  0.52896  0.08123  0.2231  1.0000
  Cl  Cl4       1.0  0.57757  0.05218  0.25482  1.0000
  H   H5        1.0  0.45375999999999994  0.05934  0.10982  1.0000
  H   H6        1.0  0.36011  0.18633000000000002  0.31503000000000003  1.0000
  H   H7        1.0  0.34782  0.21693  0.24993  1.0000
  H   H8        1.0  0.52931  0.15495  0.2871  1.0000
  C   C41       1.0  0.7185999999999999  0.23681000000000002  0.58323  1.0000
  C   C42       1.0  0.6785199999999999  0.18665  0.58402  1.0000
  C   C43       1.0  0.63485  0.19384  0.55881  1.0000
  Cl  Cl5       1.0  0.5905299999999997  0.12546  0.5533  1.0000
  C   C44       1.0  0.62977  0.25267  0.53323  1.0000
  C   C45       1.0  0.58847  0.25958  0.49648  1.0000
  N   N9        1.0  0.59582  0.28114  0.43969  1.0000
  N   N10       1.0  0.55185  0.27974  0.41927  1.0000
  C   C46       1.0  0.5178  0.25737  0.46367  1.0000
  N   N11       1.0  0.5397899999999999  0.24424  0.51268  1.0000
  N   N12       1.0  0.51757  0.22486  0.56938  1.0000
  C   C47       1.0  0.66847  0.30397  0.53559  1.0000
  C   C48       1.0  0.71238  0.29677  0.56066  1.0000
  Cl  Cl6       1.0  0.75903  0.36359  0.56038  1.0000
  H   H9        1.0  0.6823899999999997  0.13974  0.60002  1.0000
  H   H10       1.0  0.49719  0.25968  0.58485  1.0000
  H   H11       1.0  0.49285  0.18311  0.56455  1.0000
  H   H12       1.0  0.6652599999999997  0.34958  0.51605  1.0000
  C   C49       1.0  0.67326  0.9478300000000001  0.93856  1.0000
  C   C50       1.0  0.69778  0.89918  0.9162500000000001  1.0000
  C   C51       1.0  0.7224700000000001  0.90398  0.85941  1.0000
  Cl  Cl7       1.0  0.74675  0.83679  0.83302  1.0000
  C   C52       1.0  0.72586  0.96027  0.8248800000000001  1.0000
  C   C53       1.0  0.7560999999999999  0.96883  0.76677  1.0000
  N   N13       1.0  0.79769  0.94353  0.7558600000000001  1.0000
  N   N14       1.0  0.8198499999999999  0.96846  0.7049  1.0000
  C   C54       1.0  0.79177  0.008679999999999998  0.6844400000000002  1.0000
  N   N15       1.0  0.7508399999999998  0.00863  0.7216300000000001  1.0000
  N   N16       1.0  0.7122099999999999  0.04373999999999989  0.7156700000000003  1.0000
  C   C55       1.0  0.7033899999999997  0.010399999999999998  0.8489700000000002  1.0000
  C   C56       1.0  0.6760499999999999  0.003820000000000001  0.90433  1.0000
  Cl  Cl8       1.0  0.64764  0.06784  0.9306800000000001  1.0000
  H   H13       1.0  0.6963600000000001  0.8561  0.9421300000000001  1.0000
  H   H14       1.0  0.67939  0.014440000000000003  0.7306200000000003  1.0000
  H   H15       1.0  0.7088  0.05020000000000002  0.6703500000000001  1.0000
  H   H16       1.0  0.70805  0.055700000000000006  0.8259000000000002  1.0000
  C   C57       1.0  0.7799  0.08314  0.4498600000000001  1.0000
  C   C58       1.0  0.72892  0.06495  0.46322  1.0000
  C   C59       1.0  0.6999699999999998  0.028770000000000007  0.42424  1.0000
  Cl  Cl9       1.0  0.63611  0.010079999999999999  0.44424000000000013  1.0000
  C   C60       1.0  0.7218399999999999  0.008930000000000106  0.37061  1.0000
  C   C61       1.0  0.69226  0.96501  0.33203  1.0000
  N   N17       1.0  0.66074  0.91344  0.3532600000000001  1.0000
  N   N18       1.0  0.63486  0.8907700000000001  0.30892  1.0000
  C   C62       1.0  0.65104  0.92836  0.26091000000000003  1.0000
  N   N19       1.0  0.6874699999999999  0.9748300000000001  0.27383  1.0000
  N   N20       1.0  0.70746  0.02857  0.23844000000000004  1.0000
  C   C63       1.0  0.7725199999999998  0.028799999999999937  0.35582  1.0000
  C   C64       1.0  0.8016799999999997  0.06582  0.39496  1.0000
  Cl  Cl10      1.0  0.86546  0.08532000000000005  0.3753400000000001  1.0000
  H   H17       1.0  0.71131  0.07804999999999998  0.5049400000000002  1.0000
  H   H18       1.0  0.7454899999999998  0.02926  0.23230000000000006  1.0000
  H   H19       1.0  0.70127  0.06871  0.26252  1.0000
  H   H20       1.0  0.7900599999999998  0.013099999999999891  0.31518  1.0000
  C   C65       1.0  0.2823999999999999  0.58656  0.72091  1.0000
  C   C66       1.0  0.32418999999999987  0.55841  0.72943  1.0000
  C   C67       1.0  0.35128  0.53609  0.6815400000000001  1.0000
  Cl  Cl11      1.0  0.40264  0.50005  0.6955600000000001  1.0000
  C   C68       1.0  0.33691  0.54202  0.62378  1.0000
  C   C69       1.0  0.35805  0.50744  0.57461  1.0000
  N   N21       1.0  0.37698  0.5339  0.52171  1.0000
  N   N22       1.0  0.38644  0.48675  0.4867000000000001  1.0000
  C   C70       1.0  0.37257  0.43217  0.51844  1.0000
  N   N23       1.0  0.3550399999999999  0.44399  0.57387  1.0000
  N   N24       1.0  0.3303999999999999  0.4004900000000001  0.61752  1.0000
  C   C71       1.0  0.29779  0.57471  0.61426  1.0000
  C   C72       1.0  0.27021  0.5967  0.6624200000000001  1.0000
  Cl  Cl12      1.0  0.21879999999999988  0.63198  0.6474400000000001  1.0000
  H   H21       1.0  0.3350699999999999  0.55195  0.7738500000000003  1.0000
  H   H22       1.0  0.30076  0.37332  0.59872  1.0000
  H   H23       1.0  0.35492  0.37039000000000005  0.62842  1.0000
  H   H24       1.0  0.28689  0.57985  0.5696000000000001  1.0000
  C   C73       1.0  0.14732  0.56456  0.042660000000000003  1.0000
  C   C74       1.0  0.13712  0.56571  0.10481  1.0000
  C   C75       1.0  0.15464  0.52389  0.14335  1.0000
  Cl  Cl13      1.0  0.15447  0.54587  0.21819  1.0000
  C   C76       1.0  0.17792  0.47371  0.11994000000000003  1.0000
  C   C77       1.0  0.20993  0.43757000000000007  0.15342  1.0000
  N   N25       1.0  0.25159  0.42128000000000004  0.12655000000000002  1.0000
  N   N26       1.0  0.27494  0.39605  0.16738000000000003  1.0000
  C   C78       1.0  0.24757  0.39654  0.21933  1.0000
  N   N27       1.0  0.2062  0.42184  0.21208000000000002  1.0000
  N   N28       1.0  0.16434  0.41785  0.2525  1.0000
  C   C79       1.0  0.18169999999999994  0.46749  0.05791  1.0000
  C   C80       1.0  0.17047  0.51424  0.01981999999999995  1.0000
  Cl  Cl14      1.0  0.19934999999999994  0.51474  0.94834  1.0000
  H   H25       1.0  0.12117000000000001  0.60506  0.12400000000000003  1.0000
  H   H26       1.0  0.15347999999999995  0.37009  0.26495  1.0000
  H   H27       1.0  0.17476  0.44244000000000006  0.29052  1.0000
  H   H28       1.0  0.20035000000000003  0.43053  0.03844000000000001  1.0000
  C   C81       1.0  0.99195  0.13709  0.55467  1.0000
  C   C82       1.0  0.9987399999999999  0.20076999999999998  0.53536  1.0000
  C   C83       1.0  0.043089999999999996  0.22875  0.50409  1.0000
  Cl  Cl15      1.0  0.05154  0.31078  0.48754  1.0000
  C   C84       1.0  0.0815  0.19281000000000004  0.4920900000000001  1.0000
  C   C85       1.0  0.13057  0.22212000000000004  0.46428000000000014  1.0000
  N   N29       1.0  0.13713  0.25256  0.41099  1.0000
  N   N30       1.0  0.18536999999999995  0.26826999999999995  0.39766  1.0000
  C   C86       1.0  0.20799999999999996  0.2477  0.44307  1.0000
  N   N31       1.0  0.17465  0.21865999999999997  0.4855500000000001  1.0000
  N   N32       1.0  0.18451999999999993  0.19183000000000003  0.5396300000000002  1.0000
  C   C87       1.0  0.07313999999999997  0.12794  0.50755  1.0000
  C   C88       1.0  0.029069999999999995  0.10028000000000001  0.53909  1.0000
  Cl  Cl16      1.0  0.02315999999999999  0.02047  0.5631700000000001  1.0000
  H   H29       1.0  0.97145  0.23031000000000001  0.5492  1.0000
  H   H30       1.0  0.15151999999999996  0.17859000000000003  0.56594  1.0000
  H   H31       1.0  0.20512  0.22768  0.56268  1.0000
  H   H32       1.0  0.10193999999999999  0.09941000000000001  0.49765000000000004  1.0000
  C   C89       1.0  0.96471  0.9416900000000001  0.7788400000000001  1.0000
  C   C90       1.0  0.9887200000000002  0.94912  0.8316400000000002  1.0000
  C   C91       1.0  0.021200000000000118  0.90806  0.84582  1.0000
  Cl  Cl17      1.0  0.05213000000000001  0.9205500000000001  0.9111100000000002  1.0000
  C   C92       1.0  0.029460000000000004  0.8586  0.80734  1.0000
  C   C93       1.0  0.06999  0.82289  0.81425  1.0000
  N   N33       1.0  0.11770999999999997  0.84822  0.8026100000000002  1.0000
  N   N34       1.0  0.14388  0.8023900000000002  0.8112800000000001  1.0000
  C   C94       1.0  0.11174000000000002  0.74983  0.82806  1.0000
  N   N35       1.0  0.06483  0.76106  0.8296  1.0000
  N   N36       1.0  0.02063999999999998  0.7186  0.8416900000000003  1.0000
  C   C95       1.0  0.002660000000000008  0.84763  0.7575400000000002  1.0000
  C   C96       1.0  0.97016  0.88813  0.7430800000000001  1.0000
  Cl  Cl18      1.0  0.94043  0.87106  0.6772100000000001  1.0000
  H   H33       1.0  0.98429  0.98861  0.8604800000000002  1.0000
  H   H34       1.0  0.9993599999999999  0.73843  0.8748600000000002  1.0000
  H   H35       1.0  0.02869999999999973  0.67616  0.8589500000000001  1.0000
  H   H36       1.0  0.009049999999999996  0.80952  0.7277300000000002  1.0000
  C   C97       1.0  0.07595999999999996  0.50104  0.7822600000000001  1.0000
  C   C98       1.0  0.08144  0.48894999999999994  0.72128  1.0000
  C   C99       1.0  0.042769999999999996  0.45355  0.6935500000000001  1.0000
  Cl  Cl19      1.0  0.052999999999999985  0.43275  0.6187600000000001  1.0000
  C   C100      1.0  0.99741  0.43289  0.7263700000000002  1.0000
  C   C101      1.0  0.96091  0.38298  0.70427  1.0000
  N   N37       1.0  0.9126  0.38695  0.7029900000000001  1.0000
  N   N38       1.0  0.88872  0.32811  0.69896  1.0000
  C   C102      1.0  0.92271  0.28907  0.69939  1.0000
  N   N39       1.0  0.96805  0.32241999999999993  0.7017900000000001  1.0000
  N   N40       1.0  0.01229000000000001  0.29977  0.71046  1.0000
  C   C103      1.0  0.99079  0.44953  0.7860500000000002  1.0000
  C   C104      1.0  0.02995  0.48252  0.81437  1.0000
  Cl  Cl20      1.0  0.0198799999999999  0.50048  0.8900300000000001  1.0000
  H   H37       1.0  0.11637  0.50472  0.6959  1.0000
  H   H38       1.0  0.0075699999999999865  0.27535  0.7512900000000001  1.0000
  H   H39       1.0  0.018179999999999995  0.26772  0.6767800000000002  1.0000
  H   H40       1.0  0.95604  0.43327  0.8117300000000002  1.0000
  C   C105      1.0  0.025989999999999958  0.7836900000000001  0.026580000000000048  1.0000
  C   C106      1.0  0.022199999999999765  0.8396  0.05766000000000001  1.0000
  C   C107      1.0  0.9760799999999997  0.85342  0.07882  1.0000
  Cl  Cl21      1.0  0.97287  0.92686  0.11278  1.0000
  C   C108      1.0  0.93332  0.8103100000000001  0.06971  1.0000
  C   C109      1.0  0.8839799999999999  0.82348  0.08975000000000002  1.0000
  N   N41       1.0  0.8685499999999999  0.8333200000000001  0.1467  1.0000
  N   N42       1.0  0.8208099999999999  0.8370800000000002  0.1479  1.0000
  C   C110      1.0  0.8079399999999999  0.8296500000000001  0.09166000000000003  1.0000
  N   N43       1.0  0.8469299999999997  0.8211600000000001  0.05454  1.0000
  N   N44       1.0  0.84961  0.8125000000000001  0.99274  1.0000
  C   C111      1.0  0.93733  0.7535600000000001  0.039980000000000133  1.0000
  C   C112      1.0  0.9833299999999998  0.73995  0.018530000000000157  1.0000
  Cl  Cl22      1.0  0.9864  0.6659699999999998  0.9854200000000001  1.0000
  H   H41       1.0  0.05500999999999999  0.8734599999999999  0.06391  1.0000
  H   H42       1.0  0.82523  0.7714900000000001  0.9841400000000002  1.0000
  H   H43       1.0  0.83801  0.85153  0.97313  1.0000
  H   H44       1.0  0.90458  0.71948  0.03388000000000013  1.0000
  C   C113      1.0  0.41404999999999986  0.5447  0.31343  1.0000
  C   C114      1.0  0.45687  0.532  0.28064000000000006  1.0000
  C   C115      1.0  0.49641999999999986  0.58029  0.26534  1.0000
  Cl  Cl23      1.0  0.55004  0.55992  0.22723  1.0000
  C   C116      1.0  0.4935099999999999  0.64304  0.28214  1.0000
  C   C117      1.0  0.53377  0.69503  0.2628  1.0000
  N   N45       1.0  0.5674799999999999  0.72347  0.2984200000000001  1.0000
  N   N46       1.0  0.6019099999999998  0.76046  0.26378  1.0000
  C   C118      1.0  0.58851  0.7544  0.20763000000000004  1.0000
  N   N47       1.0  0.54612  0.71345  0.20580000000000007  1.0000
  N   N48       1.0  0.52421  0.68683  0.15544  1.0000
  C   C119      1.0  0.4509  0.65629  0.31483  1.0000
  C   C120      1.0  0.4113299999999998  0.60763  0.33091000000000004  1.0000
  Cl  Cl24      1.0  0.35928  0.62803  0.37224  1.0000
  H   H45       1.0  0.46046  0.48376  0.26856  1.0000
  H   H46       1.0  0.51252  0.72292  0.13135  1.0000
  H   H47       1.0  0.5511  0.66871  0.12816  1.0000
  H   H48       1.0  0.4482  0.70471  0.32727000000000006  1.0000
