data_image0
_chemical_formula_structural       EuOCO6COC2EuOCO6COC2EuOCO6COC2EuOCO6COC6FCFC2FCFH4C4FCFC2FCFH4C4FCFC2FCFH4C4FCFC2FCFH4C4FCFC2FCFH4C4FCFC2FCFH4C4FCFC2FCFH4C4FCFC2FCFH4
_chemical_formula_sum              "Eu4 O32 C80 F32 H32"
_cell_length_a       24.1141
_cell_length_b       24.7548
_cell_length_c       32.7558
_cell_angle_alpha    88.70179999999999
_cell_angle_beta     89.49499999999999
_cell_angle_gamma    139.6671

_symmetry_space_group_name_H-M    'P 1'
_symmetry_Int_Tables_number       1

loop_
  _symmetry_equiv_pos_as_xyz
  'x,y,z'

loop_
  _atom_site_type_symbol
  _atom_site_label
  _atom_site_symmetry_multiplicity
  _atom_site_fract_x
  _atom_site_fract_y
  _atom_site_fract_z
  _atom_site_occupancy
  Eu  Eu1       1.0  0.33385  0.64024  0.45845  1.0000
  O   O1        1.0  0.23055  0.59912  0.53084  1.0000
  C   C1        1.0  0.41185999999999995  0.80957  0.46559  1.0000
  O   O2        1.0  0.4362500000000001  0.6153  0.44265  1.0000
  O   O3        1.0  0.31159  0.53608  0.47873  1.0000
  O   O4        1.0  0.45029  0.73479  0.38441000000000003  1.0000
  O   O5        1.0  0.4361200000000003  0.8004900000000003  0.49443000000000004  1.0000
  O   O6        1.0  0.35602  0.74464  0.43916  1.0000
  O   O7        1.0  0.19121000000000005  0.55064  0.4677  1.0000
  C   C2        1.0  0.17195000000000019  0.5507600000000002  0.50778  1.0000
  O   O8        1.0  0.3135600000000002  0.6039200000000002  0.39227  1.0000
  C   C3        1.0  0.38641  0.671  0.36815  1.0000
  C   C4        1.0  0.38117  0.55585  0.46656  1.0000
  Eu  Eu2       1.0  0.6581000000000001  0.35265  0.97337  1.0000
  O   O9        1.0  0.60071  0.43091  0.96052  1.0000
  C   C5        1.0  0.58626  0.20520999999999998  0.03010000000000024  1.0000
  O   O10       1.0  0.72827  0.37313  0.88078  1.0000
  O   O11       1.0  0.6891900000000002  0.42101  0.9127500000000002  1.0000
  O   O12       1.0  0.7721900000000003  0.34406  0.94652  1.0000
  O   O13       1.0  0.5566600000000002  0.15919000000000005  0.060480000000000096  1.0000
  O   O14       1.0  0.62258  0.28315  0.03432999999999997  1.0000
  O   O15       1.0  0.67882  0.4458800000000001  0.007980000000000098  1.0000
  C   C6        1.0  0.6562700000000002  0.47512  0.9855500000000001  1.0000
  O   O16       1.0  0.8002000000000001  0.43940000000000007  0.98189  1.0000
  C   C7        1.0  0.8224700000000003  0.40527  0.96713  1.0000
  C   C8        1.0  0.69026  0.38797999999999994  0.87931  1.0000
  Eu  Eu3       1.0  0.5315  0.24948999999999996  0.56313  1.0000
  O   O17       1.0  0.6533200000000001  0.24821000000000001  0.57574  1.0000
  C   C9        1.0  0.49122  0.15029000000000006  0.49029  1.0000
  O   O18       1.0  0.43928000000000006  0.16957  0.64504  1.0000
  O   O19       1.0  0.57442  0.29543  0.62756  1.0000
  O   O20       1.0  0.4077000000000001  0.23897000000000002  0.53311  1.0000
  O   O21       1.0  0.50216  0.12601  0.51805  1.0000
  O   O22       1.0  0.4916499999999999  0.20561999999999997  0.4980800000000001  1.0000
  O   O23       1.0  0.67066  0.34129  0.54209  1.0000
  C   C10       1.0  0.7014100000000001  0.31469  0.55625  1.0000
  O   O24       1.0  0.54594  0.3502  0.54844  1.0000
  C   C11       1.0  0.47078000000000003  0.31489000000000006  0.53306  1.0000
  C   C12       1.0  0.50949  0.23426999999999998  0.65643  1.0000
  Eu  Eu4       1.0  0.4417100000000001  0.6984  0.03355  1.0000
  O   O25       1.0  0.3421  0.66645  0.9632  1.0000
  C   C13       1.0  0.44186  0.58024  0.00785  1.0000
  O   O26       1.0  0.5466300000000002  0.86543  0.06702  1.0000
  O   O27       1.0  0.44079  0.78902  0.0226  1.0000
  O   O28       1.0  0.53249  0.73351  0.10833  1.0000
  O   O29       1.0  0.39147000000000004  0.55898  0.9828800000000001  1.0000
  O   O30       1.0  0.44751000000000024  0.6114800000000002  0.04432  1.0000
  O   O31       1.0  0.29930000000000007  0.58862  0.02096  1.0000
  C   C14       1.0  0.28260000000000013  0.60603  0.9856000000000001  1.0000
  O   O32       1.0  0.40821  0.68567  0.10098000000000003  1.0000
  C   C15       1.0  0.4726400000000001  0.71274  0.12493000000000001  1.0000
  C   C16       1.0  0.5087200000000001  0.8634100000000002  0.04147  1.0000
  C   C17       1.0  0.3850300000000001  0.66368  0.3224900000000001  1.0000
  C   C18       1.0  0.46899000000000024  0.7442600000000003  0.30027  1.0000
  C   C19       1.0  0.46764000000000033  0.7329200000000002  0.255  1.0000
  C   C20       1.0  0.5175099999999999  0.7284099999999999  0.23762000000000005  1.0000
  F   F1        1.0  0.56536  0.73105  0.26138  1.0000
  C   C21       1.0  0.5187800000000002  0.7213400000000002  0.19548  1.0000
  F   F2        1.0  0.56766  0.71706  0.17989  1.0000
  C   C22       1.0  0.4695600000000002  0.71785  0.16982  1.0000
  C   C23       1.0  0.41882  0.72132  0.18741  1.0000
  F   F3        1.0  0.37149000000000004  0.71955  0.1638  1.0000
  C   C24       1.0  0.41799  0.72886  0.22952000000000006  1.0000
  F   F4        1.0  0.37009000000000003  0.73416  0.24534000000000003  1.0000
  H   H1        1.0  0.3307400000000002  0.6475500000000002  0.31091  1.0000
  H   H2        1.0  0.37313000000000013  0.61161  0.31617  1.0000
  H   H3        1.0  0.5234800000000001  0.76297  0.31406  1.0000
  H   H4        1.0  0.47935999999999995  0.79579  0.30494  1.0000
  C   C25       1.0  0.6466500000000001  0.37299  0.84103  1.0000
  C   C26       1.0  0.58103  0.28147  0.82895  1.0000
  C   C27       1.0  0.5625000000000001  0.27175  0.78415  1.0000
  C   C28       1.0  0.4809000000000001  0.22651  0.77125  1.0000
  F   F5        1.0  0.41803000000000007  0.19365  0.79895  1.0000
  C   C29       1.0  0.46307000000000004  0.21361999999999998  0.72979  1.0000
  F   F6        1.0  0.38358  0.16879000000000002  0.7183  1.0000
  C   C30       1.0  0.5271  0.24726999999999996  0.7003600000000002  1.0000
  C   C31       1.0  0.60876  0.29274  0.71332  1.0000
  F   F7        1.0  0.67092  0.32291  0.68579  1.0000
  C   C32       1.0  0.62595  0.30408  0.75475  1.0000
  F   F8        1.0  0.70405  0.34448  0.7663500000000002  1.0000
  H   H5        1.0  0.61215  0.38621  0.84649  1.0000
  H   H6        1.0  0.6970800000000003  0.4174  0.8165500000000002  1.0000
  H   H7        1.0  0.52185  0.24209  0.84841  1.0000
  H   H8        1.0  0.6051000000000001  0.25797  0.8353  1.0000
  C   C33       1.0  0.7944500000000001  0.37012999999999996  0.54774  1.0000
  C   C34       1.0  0.81793  0.32988  0.56129  1.0000
  C   C35       1.0  0.90954  0.38537  0.54806  1.0000
  C   C36       1.0  0.93035  0.39043  0.50688  1.0000
  F   F9        1.0  0.8679400000000002  0.34325  0.47909  1.0000
  C   C37       1.0  0.015179999999999976  0.44372  0.4938600000000001  1.0000
  F   F10       1.0  0.03196999999999992  0.44664  0.4536600000000001  1.0000
  C   C38       1.0  0.08155000000000001  0.49343  0.52188  1.0000
  C   C39       1.0  0.06015000000000007  0.48725  0.56345  1.0000
  F   F11       1.0  0.12121999999999994  0.53256  0.5919700000000002  1.0000
  C   C40       1.0  0.97516  0.4339  0.57627  1.0000
  F   F12       1.0  0.9569800000000003  0.43043  0.61633  1.0000
  H   H9        1.0  0.8346500000000001  0.42936  0.56377  1.0000
  H   H10       1.0  0.8074900000000002  0.38494  0.5143  1.0000
  H   H11       1.0  0.7745900000000002  0.26787  0.5478400000000002  1.0000
  H   H12       1.0  0.80876  0.31928  0.59501  1.0000
  C   C41       1.0  0.5830500000000001  0.17706000000000002  0.98906  1.0000
  C   C42       1.0  0.64274  0.17214  0.98645  1.0000
  C   C43       1.0  0.60077  0.08972000000000001  0.003230000000000066  1.0000
  C   C44       1.0  0.62408  0.08424  0.04093  1.0000
  F   F13       1.0  0.6790200000000001  0.15123  0.06472  1.0000
  C   C45       1.0  0.5925  0.01015  0.05395  1.0000
  F   F14       1.0  0.6168800000000001  0.007440000000000002  0.09042  1.0000
  C   C46       1.0  0.5367  0.93989  0.029570000000000006  1.0000
  C   C47       1.0  0.51123  0.94486  0.9924900000000001  1.0000
  F   F15       1.0  0.4579100000000001  0.87909  0.96787  1.0000
  C   C48       1.0  0.5429500000000002  0.018989999999999993  0.9795800000000001  1.0000
  F   F16       1.0  0.52031  0.02297  0.94278  1.0000
  H   H13       1.0  0.604  0.22249  0.9649  1.0000
  H   H14       1.0  0.5158500000000001  0.11588000000000004  0.9830000000000001  1.0000
  H   H15       1.0  0.70266  0.22505  0.0024500000000000632  1.0000
  H   H16       1.0  0.66262  0.18054000000000003  0.95392  1.0000
  C   C49       1.0  0.70344  0.56233  0.99193  1.0000
  C   C50       1.0  0.6854700000000002  0.5943100000000002  0.9603300000000002  1.0000
  C   C51       1.0  0.6178900000000002  0.58347  0.97548  1.0000
  C   C52       1.0  0.53672  0.5257  0.95825  1.0000
  F   F17       1.0  0.5150100000000001  0.47381000000000006  0.92966  1.0000
  C   C53       1.0  0.47803999999999996  0.52242  0.9696900000000002  1.0000
  F   F18       1.0  0.40036000000000016  0.46617000000000003  0.95241  1.0000
  C   C54       1.0  0.49936  0.57668  0.9987  1.0000
  C   C55       1.0  0.57947  0.63229  0.01698  1.0000
  F   F19       1.0  0.60292  0.6862  0.04472  1.0000
  C   C56       1.0  0.638  0.63566  0.005400000000000072  1.0000
  F   F20       1.0  0.7163500000000003  0.6929300000000002  0.022029999999999994  1.0000
  H   H17       1.0  0.77324  0.605  0.9895000000000002  1.0000
  H   H18       1.0  0.6891700000000004  0.5651700000000003  0.02360999999999991  1.0000
  H   H19       1.0  0.6696200000000001  0.56562  0.93052  1.0000
  H   H20       1.0  0.74557  0.6622  0.95377  1.0000
  C   C57       1.0  0.3882000000000001  0.50485  0.48419  1.0000
  C   C58       1.0  0.46244999999999997  0.52747  0.4645200000000001  1.0000
  C   C59       1.0  0.4648300000000001  0.47257  0.48263  1.0000
  C   C60       1.0  0.52918  0.50478  0.50922  1.0000
  F   F21       1.0  0.5905200000000004  0.5859600000000003  0.51937  1.0000
  C   C61       1.0  0.5308  0.45349  0.5258400000000002  1.0000
  F   F22       1.0  0.5933400000000001  0.48664999999999997  0.55185  1.0000
  C   C62       1.0  0.4679100000000001  0.3687400000000001  0.5161300000000002  1.0000
  C   C63       1.0  0.4036100000000003  0.3367700000000001  0.4893700000000001  1.0000
  F   F23       1.0  0.34279  0.25604  0.4784  1.0000
  C   C64       1.0  0.40246  0.3883100000000001  0.47264  1.0000
  F   F24       1.0  0.3407  0.35595  0.44626  1.0000
  H   H21       1.0  0.3265800000000001  0.43784  0.48023  1.0000
  H   H22       1.0  0.39778  0.51497  0.5174500000000002  1.0000
  H   H23       1.0  0.5236800000000004  0.5943900000000002  0.46905  1.0000
  H   H24       1.0  0.4545500000000001  0.51939  0.43103  1.0000
  C   C65       1.0  0.19175000000000025  0.5514700000000002  0.9753300000000001  1.0000
  C   C66       1.0  0.14527  0.5457  0.01092  1.0000
  C   C67       1.0  0.06262999999999998  0.51039  0.9981  1.0000
  C   C68       1.0  0.05225000000000001  0.55917  0.9988900000000001  1.0000
  F   F25       1.0  0.11752000000000001  0.64004  0.00951  1.0000
  C   C69       1.0  0.9744  0.52513  0.9888299999999999  1.0000
  F   F26       1.0  0.9670600000000003  0.5742  0.9900500000000001  1.0000
  C   C70       1.0  0.90568  0.44204000000000004  0.97692  1.0000
  C   C71       1.0  0.9166700000000001  0.39369  0.97555  1.0000
  F   F27       1.0  0.85205  0.31313  0.96445  1.0000
  C   C72       1.0  0.99379  0.4271499999999999  0.98662  1.0000
  F   F28       1.0  0.0005399999999999776  0.37754999999999994  0.9867600000000001  1.0000
  H   H25       1.0  0.15827000000000008  0.48836  0.96886  1.0000
  H   H26       1.0  0.19187  0.57796  0.9473500000000002  1.0000
  H   H27       1.0  0.18895  0.6089  0.02295000000000001  1.0000
  H   H28       1.0  0.13047000000000006  0.5051  0.03631  1.0000
  C   C73       1.0  0.47580000000000017  0.11983  0.44784  1.0000
  C   C74       1.0  0.53988  0.12361000000000001  0.4338  1.0000
  C   C75       1.0  0.50517  0.04157000000000001  0.44307  1.0000
  C   C76       1.0  0.5343200000000001  0.03207000000000004  0.47615  1.0000
  F   F29       1.0  0.59339  0.09595  0.50104  1.0000
  C   C77       1.0  0.5029300000000003  0.9564900000000002  0.4840300000000001  1.0000
  F   F30       1.0  0.53256  0.95031  0.51669  1.0000
  C   C78       1.0  0.44239000000000017  0.8887  0.45852  1.0000
  C   C79       1.0  0.41307000000000027  0.8984500000000002  0.4254300000000001  1.0000
  F   F31       1.0  0.3547100000000001  0.83532  0.39995  1.0000
  C   C80       1.0  0.44399  0.97391  0.4179500000000001  1.0000
  F   F32       1.0  0.4148700000000002  0.9812300000000002  0.38559  1.0000
  H   H29       1.0  0.4823299999999999  0.15993999999999997  0.4262700000000001  1.0000
  H   H30       1.0  0.40838000000000013  0.055279999999999996  0.44659  1.0000
  H   H31       1.0  0.6031800000000002  0.17656  0.4476400000000001  1.0000
  H   H32       1.0  0.55247  0.13739  0.4002500000000001  1.0000
