data_image0
_chemical_formula_structural       EuOCO6COC2EuOCO6COC2EuOCO6COC12NC6NC4H28C10NC6NC4H28C10NC6NC4H28C10NC6NC4H28C10NC6NC4H28C10NC6NC4H28
_chemical_formula_sum              "Eu3 O24 C132 N12 H168"
_cell_length_a       31.4236
_cell_length_b       29.955
_cell_length_c       34.3574
_cell_angle_alpha    91.8391
_cell_angle_beta     92.4941
_cell_angle_gamma    121.24110000000002

_symmetry_space_group_name_H-M    'P 1'
_symmetry_Int_Tables_number       1

loop_
  _symmetry_equiv_pos_as_xyz
  'x,y,z'

loop_
  _atom_site_type_symbol
  _atom_site_label
  _atom_site_symmetry_multiplicity
  _atom_site_fract_x
  _atom_site_fract_y
  _atom_site_fract_z
  _atom_site_occupancy
  Eu  Eu1       1.0  0.53345  0.53293  0.83783  1.0000
  O   O1        1.0  0.46517  0.55914  0.87696  1.0000
  C   C1        1.0  0.59601  0.5235600000000001  0.9042400000000003  1.0000
  O   O2        1.0  0.55703  0.5813  0.7560000000000002  1.0000
  O   O3        1.0  0.50504  0.57578  0.80151  1.0000
  O   O4        1.0  0.60018  0.51417  0.7928700000000002  1.0000
  O   O5        1.0  0.6149600000000003  0.57062  0.9022100000000002  1.0000
  O   O6        1.0  0.5596200000000002  0.48955  0.87578  1.0000
  O   O7        1.0  0.45441  0.48143  0.85628  1.0000
  C   C2        1.0  0.43593  0.51302  0.86717  1.0000
  O   O8        1.0  0.51675  0.47529  0.78586  1.0000
  C   C3        1.0  0.5616  0.48256  0.77415  1.0000
  C   C4        1.0  0.52098  0.58392  0.76397  1.0000
  Eu  Eu2       1.0  0.027870000000000006  0.51387  0.17165  1.0000
  O   O9        1.0  0.94509  0.48264  0.22548000000000007  1.0000
  C   C5        1.0  0.061370000000000036  0.55302  0.25853  1.0000
  O   O10       1.0  0.0026900000000000825  0.57936  0.1169  1.0000
  O   O11       1.0  0.98162  0.49469  0.11374000000000002  1.0000
  O   O12       1.0  0.10226999999999994  0.5558  0.11398  1.0000
  O   O13       1.0  0.04025999999999995  0.52767  0.28609  1.0000
  O   O14       1.0  0.07422  0.52982  0.22919  1.0000
  O   O15       1.0  0.96744  0.4344  0.19004  1.0000
  C   C6        1.0  0.93191  0.44098  0.20781  1.0000
  O   O16       1.0  0.07038000000000003  0.4801500000000001  0.14372  1.0000
  C   C7        1.0  0.10087000000000003  0.51469  0.11708000000000002  1.0000
  C   C8        1.0  0.98544  0.53833  0.09722  1.0000
  Eu  Eu3       1.0  0.49466  0.011200000000000003  0.47719000000000006  1.0000
  O   O17       1.0  0.54528  0.10877  0.43359  1.0000
  C   C9        1.0  0.46624  0.93548  0.40642  1.0000
  O   O18       1.0  0.55361  0.08933  0.5554  1.0000
  O   O19       1.0  0.4894400000000001  0.07336999999999998  0.51308  1.0000
  O   O20       1.0  0.47054999999999997  0.9018799999999999  0.5089  1.0000
  O   O21       1.0  0.44604  0.96007  0.39959  1.0000
  O   O22       1.0  0.49805  0.9492  0.4398  1.0000
  O   O23       1.0  0.57671  0.0688  0.4686100000000001  1.0000
  C   C10       1.0  0.58227  0.10937  0.44663  1.0000
  O   O24       1.0  0.51865  0.98631  0.5321700000000001  1.0000
  C   C11       1.0  0.50761  0.93486  0.52874  1.0000
  C   C12       1.0  0.51129  0.08102  0.5507  1.0000
  C   C13       1.0  0.38037  0.49132  0.86275  1.0000
  C   C14       1.0  0.3663700000000002  0.5029100000000001  0.8219600000000002  1.0000
  C   C15       1.0  0.37759999999999994  0.55945  0.8186100000000002  1.0000
  C   C16       1.0  0.33561  0.5675199999999998  0.83181  1.0000
  C   C17       1.0  0.28491  0.52569  0.81229  1.0000
  C   C18       1.0  0.27394  0.47195  0.8236  1.0000
  C   C19       1.0  0.31249  0.46131  0.8069600000000001  1.0000
  C   C20       1.0  0.27172000000000013  0.46769  0.86829  1.0000
  C   C21       1.0  0.31631  0.51415  0.8936100000000002  1.0000
  C   C22       1.0  0.29837  0.51651  0.9349800000000001  1.0000
  N   N1        1.0  0.28518  0.46919  0.95597  1.0000
  C   C23       1.0  0.23163  0.4362  0.96192  1.0000
  C   C24       1.0  0.21358  0.46285  0.98888  1.0000
  C   C25       1.0  0.17744000000000004  0.47382  0.97511  1.0000
  C   C26       1.0  0.16017000000000003  0.49776000000000004  0.00012999999999996348  1.0000
  C   C27       1.0  0.1786  0.51087  0.03940000000000001  1.0000
  C   C28       1.0  0.16101000000000001  0.53783  0.06621  1.0000
  N   N2        1.0  0.12849  0.50222  0.09456000000000003  1.0000
  C   C29       1.0  0.21444  0.49959  0.05326  1.0000
  C   C30       1.0  0.23172  0.47564  0.02823  1.0000
  C   C31       1.0  0.33269  0.56787  0.87625  1.0000
  C   C32       1.0  0.36232  0.50742  0.89903  1.0000
  H   H1        1.0  0.3629900000000001  0.44811  0.86262  1.0000
  H   H2        1.0  0.39023  0.49817  0.80115  1.0000
  H   H3        1.0  0.38245  0.56849  0.78735  1.0000
  H   H4        1.0  0.41355  0.58822  0.83482  1.0000
  H   H5        1.0  0.34378  0.6063  0.82255  1.0000
  H   H6        1.0  0.25507  0.53236  0.8216600000000002  1.0000
  H   H7        1.0  0.28538  0.52781  0.7800200000000003  1.0000
  H   H8        1.0  0.23669999999999997  0.44190999999999997  0.8097100000000003  1.0000
  H   H9        1.0  0.30348  0.42126  0.81327  1.0000
  H   H10       1.0  0.30935  0.46162  0.77456  1.0000
  H   H11       1.0  0.26772  0.43001  0.8760900000000001  1.0000
  H   H12       1.0  0.23655  0.46558  0.87541  1.0000
  H   H13       1.0  0.26666999999999996  0.52317  0.93229  1.0000
  H   H14       1.0  0.3288600000000001  0.5514600000000002  0.95243  1.0000
  H   H15       1.0  0.30578  0.47998  0.98298  1.0000
  H   H16       1.0  0.22494  0.39982  0.97497  1.0000
  H   H17       1.0  0.20967  0.42365  0.93329  1.0000
  H   H18       1.0  0.16261000000000006  0.46392  0.94494  1.0000
  H   H19       1.0  0.13236  0.50596  0.98888  1.0000
  H   H20       1.0  0.19384  0.57238  0.082  1.0000
  H   H21       1.0  0.14029999999999995  0.55225  0.04885  1.0000
  H   H22       1.0  0.12763  0.46742  0.09902  1.0000
  H   H23       1.0  0.22921  0.50962  0.08343  1.0000
  H   H24       1.0  0.25908  0.46687  0.03959  1.0000
  H   H25       1.0  0.36914  0.5993  0.8904  1.0000
  H   H26       1.0  0.30549  0.57983  0.88292  1.0000
  H   H27       1.0  0.35436  0.4770400000000001  0.9200700000000003  1.0000
  H   H28       1.0  0.39355000000000007  0.5439900000000001  0.91413  1.0000
  C   C33       1.0  0.8770800000000002  0.39909  0.20194  1.0000
  C   C34       1.0  0.8502200000000004  0.41813  0.17401  1.0000
  C   C35       1.0  0.83546  0.45497999999999994  0.19396000000000005  1.0000
  C   C36       1.0  0.78449  0.42622000000000004  0.21212  1.0000
  C   C37       1.0  0.74384  0.38411  0.18337  1.0000
  C   C38       1.0  0.75894  0.34475999999999996  0.17179000000000003  1.0000
  C   C39       1.0  0.80608  0.37221  0.14936  1.0000
  C   C40       1.0  0.76519  0.31839  0.20784  1.0000
  C   C41       1.0  0.7969600000000001  0.35626  0.2441  1.0000
  C   C42       1.0  0.78065  0.32449  0.28142  1.0000
  N   N3        1.0  0.7902600000000001  0.28114  0.28016000000000013  1.0000
  C   C43       1.0  0.74464  0.22889  0.2791100000000001  1.0000
  C   C44       1.0  0.71702  0.21947  0.3158600000000001  1.0000
  C   C45       1.0  0.66828  0.2101  0.31398  1.0000
  C   C46       1.0  0.64255  0.20127  0.34779  1.0000
  C   C47       1.0  0.66517  0.20180999999999996  0.38411  1.0000
  C   C48       1.0  0.63914  0.19670999999999994  0.42097  1.0000
  N   N4        1.0  0.62917  0.14957  0.4402000000000001  1.0000
  C   C49       1.0  0.71355  0.2102  0.3859  1.0000
  C   C50       1.0  0.73923  0.2188400000000001  0.35204000000000013  1.0000
  C   C51       1.0  0.78613  0.40125  0.24994  1.0000
  C   C52       1.0  0.85453  0.38061  0.24178  1.0000
  H   H29       1.0  0.87577  0.36501  0.18664000000000006  1.0000
  H   H30       1.0  0.8773300000000003  0.44154  0.15227  1.0000
  H   H31       1.0  0.8334100000000001  0.47978  0.17142  1.0000
  H   H32       1.0  0.86485  0.4823  0.21642  1.0000
  H   H33       1.0  0.77399  0.45558000000000004  0.21937000000000006  1.0000
  H   H34       1.0  0.7074  0.36388000000000004  0.19687000000000004  1.0000
  H   H35       1.0  0.7390299999999999  0.40236  0.15716  1.0000
  H   H36       1.0  0.7286100000000002  0.31372  0.15154  1.0000
  H   H37       1.0  0.81576  0.34342  0.13853  1.0000
  H   H38       1.0  0.7979099999999999  0.38767  0.12285  1.0000
  H   H39       1.0  0.78061  0.29374  0.19921  1.0000
  H   H40       1.0  0.72668  0.29106  0.21628  1.0000
  H   H41       1.0  0.74056  0.30995  0.28505  1.0000
  H   H42       1.0  0.8014500000000001  0.35132  0.3076400000000001  1.0000
  H   H43       1.0  0.81393  0.28571  0.30433  1.0000
  H   H44       1.0  0.7550399999999999  0.19886  0.27546  1.0000
  H   H45       1.0  0.72004  0.22334000000000004  0.2529  1.0000
  H   H46       1.0  0.65029  0.21019  0.28637000000000007  1.0000
  H   H47       1.0  0.60517  0.19462  0.34565  1.0000
  H   H48       1.0  0.66353  0.23150000000000004  0.44119000000000014  1.0000
  H   H49       1.0  0.60417  0.19675  0.41462  1.0000
  H   H50       1.0  0.65968  0.14803  0.45174  1.0000
  H   H51       1.0  0.73166  0.21075  0.4136100000000001  1.0000
  H   H52       1.0  0.77655  0.22539  0.3541300000000001  1.0000
  H   H53       1.0  0.81384  0.43217  0.27172  1.0000
  H   H54       1.0  0.74932  0.38596  0.26248  1.0000
  H   H55       1.0  0.86498  0.35198  0.2506400000000001  1.0000
  H   H56       1.0  0.8743700000000002  0.41345  0.26451  1.0000
  C   C53       1.0  0.9679500000000002  0.53415  0.05491  1.0000
  C   C54       1.0  0.012820000000000066  0.56722  0.029910000000000003  1.0000
  C   C55       1.0  0.02845999999999994  0.62555  0.02818  1.0000
  C   C56       1.0  0.9985200000000003  0.6359  0.9964400000000001  1.0000
  C   C57       1.0  0.9954000000000001  0.60891  0.9569400000000001  1.0000
  C   C58       1.0  0.97032  0.55012  0.9616  1.0000
  C   C59       1.0  0.004250000000000043  0.54044  0.98883  1.0000
  C   C60       1.0  0.91701  0.52706  0.9757  1.0000
  C   C61       1.0  0.91202  0.55835  0.011  1.0000
  C   C62       1.0  0.85693  0.54478  0.01007  1.0000
  N   N5        1.0  0.82229  0.48842  0.014520000000000003  1.0000
  C   C63       1.0  0.7854700000000001  0.46171000000000006  0.9811300000000001  1.0000
  C   C64       1.0  0.74956  0.48081  0.97734  1.0000
  C   C65       1.0  0.74978  0.50861  0.94519  1.0000
  C   C66       1.0  0.71707  0.52695  0.94186  1.0000
  C   C67       1.0  0.68353  0.51761  0.9706400000000001  1.0000
  C   C68       1.0  0.64714  0.53571  0.96603  1.0000
  N   N6        1.0  0.6092500000000002  0.50367  0.93454  1.0000
  C   C69       1.0  0.6833  0.48984  0.002839999999999954  1.0000
  C   C70       1.0  0.71591  0.47133  0.006099999999999994  1.0000
  C   C71       1.0  0.9454400000000001  0.6185  0.00717  1.0000
  C   C72       1.0  0.92492  0.54477  0.05175000000000001  1.0000
  H   H57       1.0  0.95137  0.49223000000000006  0.04518  1.0000
  H   H58       1.0  0.04550999999999994  0.56717  0.04386  1.0000
  H   H59       1.0  0.06837000000000011  0.6480900000000002  0.02149  1.0000
  H   H60       1.0  0.026520000000000057  0.6415999999999998  0.0572  1.0000
  H   H61       1.0  0.01857  0.67881  0.9931100000000002  1.0000
  H   H62       1.0  0.9736  0.61648  0.93456  1.0000
  H   H63       1.0  0.03343999999999999  0.62487  0.94661  1.0000
  H   H64       1.0  0.967  0.53066  0.93253  1.0000
  H   H65       1.0  0.98876  0.49772  0.99012  1.0000
  H   H66       1.0  0.04100000000000014  0.55633  0.9760700000000001  1.0000
  H   H67       1.0  0.90155  0.48558  0.9825  1.0000
  H   H68       1.0  0.89366  0.52624  0.95007  1.0000
  H   H69       1.0  0.8477000000000001  0.5576  0.98256  1.0000
  H   H70       1.0  0.8530699999999999  0.56797  0.03418  1.0000
  H   H71       1.0  0.8038599999999999  0.48344  0.04017  1.0000
  H   H72       1.0  0.76403  0.41901  0.9851500000000001  1.0000
  H   H73       1.0  0.80509  0.4668  0.95393  1.0000
  H   H74       1.0  0.77546  0.51632  0.9227100000000003  1.0000
  H   H75       1.0  0.71784  0.54842  0.91689  1.0000
  H   H76       1.0  0.6281800000000001  0.53158  0.99344  1.0000
  H   H77       1.0  0.66775  0.57796  0.96025  1.0000
  H   H78       1.0  0.59029  0.46301  0.9358200000000001  1.0000
  H   H79       1.0  0.65753  0.48196999999999995  0.025260000000000286  1.0000
  H   H80       1.0  0.71475  0.44942  0.0309  1.0000
  H   H81       1.0  0.94732  0.64077  0.03441  1.0000
  H   H82       1.0  0.9284600000000003  0.63077  0.98396  1.0000
  H   H83       1.0  0.89196  0.50918  0.06171000000000001  1.0000
  H   H84       1.0  0.9319299999999999  0.57622  0.07389  1.0000
  C   C73       1.0  0.07543999999999994  0.60961  0.25786  1.0000
  C   C74       1.0  0.059050000000000005  0.62107  0.21794  1.0000
  C   C75       1.0  0.09810000000000002  0.63719  0.18670000000000006  1.0000
  C   C76       1.0  0.13817999999999994  0.69623  0.1884  1.0000
  C   C77       1.0  0.11505999999999995  0.7301399999999999  0.19202  1.0000
  C   C78       1.0  0.08633000000000002  0.71703  0.22889  1.0000
  C   C79       1.0  0.04201000000000001  0.66062  0.22339  1.0000
  C   C80       1.0  0.12101000000000006  0.727  0.26596  1.0000
  C   C81       1.0  0.1567  0.70503  0.263  1.0000
  C   C82       1.0  0.20248999999999995  0.73774  0.29292  1.0000
  N   N7        1.0  0.18750000000000008  0.73486  0.33335  1.0000
  C   C83       1.0  0.21392999999999995  0.7858799999999999  0.3557700000000001  1.0000
  C   C84       1.0  0.27012  0.81235  0.35584  1.0000
  C   C85       1.0  0.2978799999999999  0.8602699999999999  0.33864  1.0000
  C   C86       1.0  0.34921  0.88305  0.33603  1.0000
  C   C87       1.0  0.37365  0.85827  0.35049  1.0000
  C   C88       1.0  0.42811  0.88045  0.34441  1.0000
  N   N8        1.0  0.45791000000000015  0.8946300000000001  0.38166  1.0000
  C   C89       1.0  0.34627  0.81133  0.36899  1.0000
  C   C90       1.0  0.29487  0.78864  0.37182  1.0000
  C   C91       1.0  0.1779500000000001  0.71249  0.22197  1.0000
  C   C92       1.0  0.1311100000000001  0.64584  0.2717900000000001  1.0000
  H   H85       1.0  0.05399999999999996  0.61492  0.28066  1.0000
  H   H86       1.0  0.02489999999999997  0.58423  0.20614  1.0000
  H   H87       1.0  0.07822999999999988  0.62737  0.1575  1.0000
  H   H88       1.0  0.11621000000000004  0.61375  0.18816  1.0000
  H   H89       1.0  0.15722  0.70446  0.16065  1.0000
  H   H90       1.0  0.14451000000000006  0.7724  0.19361  1.0000
  H   H91       1.0  0.08968  0.7226499999999999  0.16576  1.0000
  H   H92       1.0  0.07100000000000002  0.7430300000000001  0.23196000000000006  1.0000
  H   H93       1.0  0.017829999999999954  0.65149  0.24824  1.0000
  H   H94       1.0  0.018300000000000118  0.6570100000000002  0.19699000000000005  1.0000
  H   H95       1.0  0.0982399999999999  0.7117  0.29158  1.0000
  H   H96       1.0  0.14396  0.77023  0.2718  1.0000
  H   H97       1.0  0.22292  0.779  0.28444  1.0000
  H   H98       1.0  0.2290200000000001  0.7237200000000003  0.29091000000000006  1.0000
  H   H99       1.0  0.19448999999999994  0.70885  0.34782  1.0000
  H   H100      1.0  0.20311000000000012  0.7801200000000001  0.38638  1.0000
  H   H101      1.0  0.20097  0.81114  0.3436700000000001  1.0000
  H   H102      1.0  0.27962000000000004  0.87942  0.32629  1.0000
  H   H103      1.0  0.36968999999999996  0.9194899999999999  0.32196  1.0000
  H   H104      1.0  0.43186  0.85046  0.32761  1.0000
  H   H105      1.0  0.44316  0.91542  0.32677  1.0000
  H   H106      1.0  0.47506  0.87376  0.3889600000000001  1.0000
  H   H107      1.0  0.36451  0.79172  0.38043  1.0000
  H   H108      1.0  0.27423  0.75201  0.38567  1.0000
  H   H109      1.0  0.19758  0.69081  0.21799  1.0000
  H   H110      1.0  0.20681000000000005  0.7543499999999999  0.21916000000000005  1.0000
  H   H111      1.0  0.1334100000000001  0.64202  0.30375  1.0000
  H   H112      1.0  0.15298000000000012  0.62954  0.25982  1.0000
  C   C93       1.0  0.5452800000000001  0.9226700000000001  0.54625  1.0000
  C   C94       1.0  0.58643  0.93689  0.51725  1.0000
  C   C95       1.0  0.5730500000000002  0.89298  0.48523000000000005  1.0000
  C   C96       1.0  0.58648  0.8522199999999999  0.49752  1.0000
  C   C97       1.0  0.63989  0.8789800000000001  0.5158600000000002  1.0000
  C   C98       1.0  0.6445700000000001  0.91315  0.5518300000000003  1.0000
  C   C99       1.0  0.63798  0.95759  0.5387  1.0000
  C   C100      1.0  0.60753  0.88054  0.58234  1.0000
  C   C101      1.0  0.55241  0.84106  0.56602  1.0000
  C   C102      1.0  0.5276699999999999  0.7968599999999999  0.59513  1.0000
  N   N9        1.0  0.52444  0.81735  0.63389  1.0000
  C   C103      1.0  0.5572000000000003  0.81579  0.66514  1.0000
  C   C104      1.0  0.54425  0.7608  0.6725800000000001  1.0000
  C   C105      1.0  0.5794700000000002  0.7459099999999999  0.66771  1.0000
  C   C106      1.0  0.56782  0.6953  0.67511  1.0000
  C   C107      1.0  0.52072  0.6587899999999999  0.68739  1.0000
  C   C108      1.0  0.50797  0.60439  0.69587  1.0000
  N   N10       1.0  0.49546  0.59487  0.73649  1.0000
  C   C109      1.0  0.48544  0.67362  0.6920000000000002  1.0000
  C   C110      1.0  0.49735  0.72439  0.68517  1.0000
  C   C111      1.0  0.5511  0.81403  0.52605  1.0000
  C   C112      1.0  0.51997  0.86672  0.5611  1.0000
  H   H113      1.0  0.5627900000000002  0.94997  0.57273  1.0000
  H   H114      1.0  0.59085  0.9709399999999999  0.5016  1.0000
  H   H115      1.0  0.59433  0.91181  0.45950000000000013  1.0000
  H   H116      1.0  0.5329  0.8731  0.47513000000000005  1.0000
  H   H117      1.0  0.58378  0.8288  0.4707100000000001  1.0000
  H   H118      1.0  0.6493  0.84938  0.52431  1.0000
  H   H119      1.0  0.66657  0.90327  0.49427000000000004  1.0000
  H   H120      1.0  0.68307  0.93107  0.56568  1.0000
  H   H121      1.0  0.64459  0.98491  0.56411  1.0000
  H   H122      1.0  0.6674  0.98095  0.51853  1.0000
  H   H123      1.0  0.60806  0.9070699999999999  0.60603  1.0000
  H   H124      1.0  0.6230299999999999  0.8582599999999999  0.59588  1.0000
  H   H125      1.0  0.54851  0.7761400000000002  0.59728  1.0000
  H   H126      1.0  0.48940000000000017  0.76678  0.5829000000000002  1.0000
  H   H127      1.0  0.48748000000000014  0.7965  0.64166  1.0000
  H   H128      1.0  0.55364  0.8339600000000001  0.6925400000000002  1.0000
  H   H129      1.0  0.59674  0.8404  0.65826  1.0000
  H   H130      1.0  0.61605  0.7735  0.65828  1.0000
  H   H131      1.0  0.59559  0.68471  0.67132  1.0000
  H   H132      1.0  0.4751000000000001  0.5757  0.67643  1.0000
  H   H133      1.0  0.5391000000000002  0.59841  0.68948  1.0000
  H   H134      1.0  0.46418999999999994  0.5953499999999999  0.74505  1.0000
  H   H135      1.0  0.44882000000000005  0.64604  0.7013200000000002  1.0000
  H   H136      1.0  0.46993999999999997  0.7352499999999998  0.6898  1.0000
  H   H137      1.0  0.51256  0.79123  0.51193  1.0000
  H   H138      1.0  0.56227  0.78479  0.5309  1.0000
  H   H139      1.0  0.50508  0.86895  0.58934  1.0000
  H   H140      1.0  0.4860200000000001  0.83964  0.5419700000000002  1.0000
  C   C113      1.0  0.48175  0.07672  0.58543  1.0000
  C   C114      1.0  0.42844  0.02709  0.57984  1.0000
  C   C115      1.0  0.38953  0.03494  0.55638  1.0000
  C   C116      1.0  0.36358  0.05672  0.58126  1.0000
  C   C117      1.0  0.34478  0.026760000000000006  0.61801  1.0000
  C   C118      1.0  0.38929  0.031580000000000004  0.64203  1.0000
  C   C119      1.0  0.40978  0.002970000000000004  0.6191  1.0000
  C   C120      1.0  0.42952  0.08959  0.65365  1.0000
  C   C121      1.0  0.44421000000000016  0.12827  0.62003  1.0000
  C   C122      1.0  0.4661199999999999  0.18465  0.63902  1.0000
  N   N11       1.0  0.51043  0.19999  0.6655400000000002  1.0000
  C   C123      1.0  0.50703  0.21728999999999998  0.70522  1.0000
  C   C124      1.0  0.50948  0.2691  0.70661  1.0000
  C   C125      1.0  0.46992000000000006  0.27289  0.7203200000000001  1.0000
  C   C126      1.0  0.4730700000000001  0.32126  0.7231300000000002  1.0000
  C   C127      1.0  0.5158300000000001  0.36657999999999996  0.71225  1.0000
  C   C128      1.0  0.52001  0.41908  0.7157900000000003  1.0000
  N   N12       1.0  0.5634099999999999  0.45568  0.74191  1.0000
  C   C129      1.0  0.55496  0.36251999999999995  0.69788  1.0000
  C   C130      1.0  0.55216  0.31442  0.6957100000000003  1.0000
  C   C131      1.0  0.3974  0.11523  0.59321  1.0000
  C   C132      1.0  0.48448  0.12895  0.5942500000000002  1.0000
  H   H141      1.0  0.50181  0.07161  0.61072  1.0000
  H   H142      1.0  0.43163999999999997  0.9968999999999999  0.56262  1.0000
  H   H143      1.0  0.3600500000000001  0.9962  0.54273  1.0000
  H   H144      1.0  0.40671  0.060390000000000006  0.5319300000000001  1.0000
  H   H145      1.0  0.33078  0.05149000000000001  0.5633000000000001  1.0000
  H   H146      1.0  0.3260200000000001  0.0426  0.63555  1.0000
  H   H147      1.0  0.3165999999999999  0.98492  0.60976  1.0000
  H   H148      1.0  0.37551  0.011169999999999992  0.66931  1.0000
  H   H149      1.0  0.43957  0.002250000000000003  0.63724  1.0000
  H   H150      1.0  0.37950000000000006  0.9612800000000001  0.6132  1.0000
  H   H151      1.0  0.46342  0.09196  0.66735  1.0000
  H   H152      1.0  0.41412000000000015  0.10248000000000002  0.6770600000000001  1.0000
  H   H153      1.0  0.43671  0.18665  0.65459  1.0000
  H   H154      1.0  0.4766  0.21286  0.61568  1.0000
  H   H155      1.0  0.54251  0.22929  0.65362  1.0000
  H   H156      1.0  0.5386400000000001  0.22165000000000004  0.72424  1.0000
  H   H157      1.0  0.47245  0.18633  0.71745  1.0000
  H   H158      1.0  0.4368300000000001  0.23854  0.72928  1.0000
  H   H159      1.0  0.44222  0.32329  0.73396  1.0000
  H   H160      1.0  0.52506  0.43487  0.68641  1.0000
  H   H161      1.0  0.4851599999999999  0.41513  0.72593  1.0000
  H   H162      1.0  0.59842  0.46329  0.73463  1.0000
  H   H163      1.0  0.58807  0.39677  0.68886  1.0000
  H   H164      1.0  0.58351  0.3127  0.6857  1.0000
  H   H165      1.0  0.4082700000000001  0.13781  0.5666  1.0000
  H   H166      1.0  0.37448000000000015  0.1277  0.60866  1.0000
  H   H167      1.0  0.52248  0.15586000000000003  0.60824  1.0000
  H   H168      1.0  0.4843100000000002  0.14679  0.5664  1.0000
