data_image0
_chemical_formula_structural       EuOCO6COC2EuOCO6COC2EuOCO6COC5NC3F2CF2CH5C3NC3F2CF2CH5C3NC3F2CF2CH5C3NC3F2CF2CH5C3NC3F2CF2CH5C3NC3F2CF2CH5
_chemical_formula_sum              "Eu3 O24 C60 N6 F24 H30"
_cell_length_a       21.4833
_cell_length_b       12.9511
_cell_length_c       19.9406
_cell_angle_alpha    85.47550000000001
_cell_angle_beta     107.92230000000002
_cell_angle_gamma    111.31989999999999

_symmetry_space_group_name_H-M    'P 1'
_symmetry_Int_Tables_number       1

loop_
  _symmetry_equiv_pos_as_xyz
  'x,y,z'

loop_
  _atom_site_type_symbol
  _atom_site_label
  _atom_site_symmetry_multiplicity
  _atom_site_fract_x
  _atom_site_fract_y
  _atom_site_fract_z
  _atom_site_occupancy
  Eu  Eu1       1.0  0.4306400000000001  0.5124400000000001  0.8947400000000001  1.0000
  O   O1        1.0  0.42359  0.55265  0.037860000000000005  1.0000
  C   C1        1.0  0.55161  0.44168  0.98231  1.0000
  O   O2        1.0  0.4905899999999999  0.7382699999999999  0.83882  1.0000
  O   O3        1.0  0.38001  0.63473  0.83869  1.0000
  O   O4        1.0  0.45978  0.45755  0.76673  1.0000
  O   O5        1.0  0.57802  0.54198  0.97835  1.0000
  O   O6        1.0  0.48027  0.3884  0.9494  1.0000
  O   O7        1.0  0.3441  0.43958999999999987  0.94657  1.0000
  C   C2        1.0  0.36552999999999997  0.48249  0.015069999999999917  1.0000
  O   O8        1.0  0.36323  0.38751  0.80342  1.0000
  C   C3        1.0  0.39807  0.3982  0.75332  1.0000
  C   C4        1.0  0.4288000000000001  0.72747  0.8196  1.0000
  Eu  Eu2       1.0  0.02389  0.45386  0.12034999999999998  1.0000
  O   O9        1.0  0.9250000000000002  0.42608999999999997  0.20714  1.0000
  C   C5        1.0  0.16979  0.63329  0.14812  1.0000
  O   O10       1.0  0.9251800000000001  0.44168  0.9667499999999999  1.0000
  O   O11       1.0  0.9058500000000002  0.38057  0.06986  1.0000
  O   O12       1.0  0.07922  0.42875  0.00423  1.0000
  O   O13       1.0  0.14005  0.65558  0.08938999999999998  1.0000
  O   O14       1.0  0.14146  0.52904  0.1732  1.0000
  O   O15       1.0  0.01323999999999992  0.36307999999999996  0.22162999999999997  1.0000
  C   C6        1.0  0.95932  0.3733099999999999  0.24227  1.0000
  O   O16       1.0  0.03677000000000001  0.30539  0.08052  1.0000
  C   C7        1.0  0.06772999999999998  0.3353799999999999  0.02657  1.0000
  C   C8        1.0  0.8851000000000001  0.4168299999999999  0.0022  1.0000
  Eu  Eu3       1.0  0.55525  0.1387  0.43059  1.0000
  O   O17       1.0  0.65782  0.29911  0.36676  1.0000
  C   C9        1.0  0.48206000000000004  0.09724  0.27465  1.0000
  O   O18       1.0  0.48488  0.25712999999999997  0.48695  1.0000
  O   O19       1.0  0.58747  0.23207  0.53534  1.0000
  O   O20       1.0  0.44975  0.012820000000000055  0.50065  1.0000
  O   O21       1.0  0.48200999999999994  0.1863899999999998  0.29031  1.0000
  O   O22       1.0  0.5193  0.04405999999999999  0.32545  1.0000
  O   O23       1.0  0.66904  0.16501  0.4437999999999999  1.0000
  C   C10       1.0  0.6958000000000001  0.25193  0.4028  1.0000
  O   O24       1.0  0.54151  0.97807  0.48971  1.0000
  C   C11       1.0  0.48679  0.95696  0.51821  1.0000
  C   C12       1.0  0.5293  0.25033  0.54084  1.0000
  C   C13       1.0  0.31826  0.44141  0.0596000000000001  1.0000
  C   C14       1.0  0.33580000000000004  0.49091999999999997  0.12637  1.0000
  C   C15       1.0  0.2905  0.45156999999999997  0.16789999999999997  1.0000
  N   N1        1.0  0.30782  0.5041999999999999  0.23486999999999997  1.0000
  C   C16       1.0  0.22747000000000003  0.36179  0.143  1.0000
  C   C17       1.0  0.20912000000000003  0.3108099999999999  0.07649  1.0000
  C   C18       1.0  0.14061  0.21426  0.0487  1.0000
  F   F1        1.0  0.11502000000000005  0.16423  0.10365999999999999  1.0000
  F   F2        1.0  0.15262000000000003  0.13493  0.01689000000000007  1.0000
  C   C19       1.0  0.08470999999999998  0.2512  0.9944699999999999  1.0000
  F   F3        1.0  0.10772  0.29519  0.9369099999999999  1.0000
  F   F4        1.0  0.023949999999999975  0.15981  0.9705199999999999  1.0000
  C   C20       1.0  0.25465  0.35183  0.035029999999999895  1.0000
  H   H1        1.0  0.38444000000000006  0.5605  0.14615  1.0000
  H   H2        1.0  0.276  0.4723  0.26747  1.0000
  H   H3        1.0  0.35279000000000005  0.5748  0.25254  1.0000
  H   H4        1.0  0.19236000000000003  0.33324999999999994  0.17506  1.0000
  H   H5        1.0  0.24086  0.31227  0.98398  1.0000
  C   C21       1.0  0.94243  0.31653999999999993  0.30495  1.0000
  C   C22       1.0  0.99368  0.28966  0.35841  1.0000
  C   C23       1.0  0.9779800000000001  0.23469  0.41788999999999993  1.0000
  N   N2        1.0  0.03120999999999995  0.2111  0.47327  1.0000
  C   C24       1.0  0.90992  0.20351  0.42300999999999994  1.0000
  C   C25       1.0  0.85758  0.22824  0.36944  1.0000
  C   C26       1.0  0.7832600000000001  0.1917  0.37363  1.0000
  F   F5        1.0  0.7709100000000001  0.10179  0.41693  1.0000
  F   F6        1.0  0.73619  0.15727999999999998  0.30696  1.0000
  C   C27       1.0  0.7707700000000002  0.28688  0.40261  1.0000
  F   F7        1.0  0.8141800000000001  0.31532  0.4711  1.0000
  F   F8        1.0  0.7865  0.37934999999999997  0.36214  1.0000
  C   C28       1.0  0.87469  0.28634999999999994  0.31104  1.0000
  H   H6        1.0  0.04614999999999991  0.31231999999999993  0.35443  1.0000
  H   H7        1.0  0.02072000000000006  0.17396999999999996  0.51893  1.0000
  H   H8        1.0  0.08255999999999998  0.23677999999999996  0.47082999999999997  1.0000
  H   H9        1.0  0.8985200000000001  0.16234  0.46945  1.0000
  H   H10       1.0  0.8348  0.30626  0.26964  1.0000
  C   C29       1.0  0.81676  0.43207  0.9757099999999999  1.0000
  C   C30       1.0  0.79276  0.46303000000000005  0.90621  1.0000
  C   C31       1.0  0.73107  0.4867  0.88379  1.0000
  N   N3        1.0  0.70728  0.51933  0.81307  1.0000
  C   C32       1.0  0.6923799999999999  0.47803999999999996  0.93062  1.0000
  C   C33       1.0  0.71404  0.44354  1.0000000000065512e-05  1.0000
  C   C34       1.0  0.6739199999999999  0.43679999999999997  0.05274000000000001  1.0000
  F   F9        1.0  0.68838  0.5431  0.0765499999999999  1.0000
  F   F10       1.0  0.69836  0.38089  0.11117  1.0000
  C   C35       1.0  0.59364  0.3733699999999999  0.023619999999999974  1.0000
  F   F11       1.0  0.58113  0.2831699999999999  0.98149  1.0000
  F   F12       1.0  0.56737  0.33195  0.07955000000000001  1.0000
  C   C36       1.0  0.77699  0.42233999999999994  0.02184  1.0000
  H   H11       1.0  0.8223599999999999  0.4705099999999999  0.86961  1.0000
  H   H12       1.0  0.65988  0.5327  0.79519  1.0000
  H   H13       1.0  0.7365  0.53008  0.77816  1.0000
  H   H14       1.0  0.6451199999999999  0.49677999999999994  0.9118099999999999  1.0000
  H   H15       1.0  0.7963200000000001  0.40007  0.07568  1.0000
  C   C37       1.0  0.23312999999999992  0.7174899999999997  0.19409  1.0000
  C   C38       1.0  0.25635  0.6991899999999999  0.26627  1.0000
  C   C39       1.0  0.31339  0.77983  0.31145999999999996  1.0000
  N   N4        1.0  0.33675999999999995  0.75933  0.38477  1.0000
  C   C40       1.0  0.34672000000000003  0.8816199999999998  0.285  1.0000
  C   C41       1.0  0.32587  0.90131  0.21243  1.0000
  C   C42       1.0  0.36123999999999995  0.013109999999999731  0.18395999999999998  1.0000
  F   F13       1.0  0.34564  0.09322000000000008  0.21043  1.0000
  F   F14       1.0  0.33348000000000005  0.010250000000000092  0.11103000000000002  1.0000
  C   C43       1.0  0.44204  0.0464500000000001  0.20128  1.0000
  F   F15       1.0  0.45780000000000004  0.9544199999999998  0.1929  1.0000
  F   F16       1.0  0.46478000000000014  0.12444000000000009  0.15409  1.0000
  C   C44       1.0  0.26876  0.8179  0.16734  1.0000
  H   H16       1.0  0.22959  0.62225  0.28774  1.0000
  H   H17       1.0  0.38084000000000007  0.8170699999999999  0.4186  1.0000
  H   H18       1.0  0.3121499999999999  0.68439  0.4053899999999999  1.0000
  H   H19       1.0  0.38846000000000014  0.94483  0.32146  1.0000
  H   H20       1.0  0.25055000000000005  0.83127  0.11155  1.0000
  C   C45       1.0  0.47325  0.8682199999999998  0.56897  1.0000
  C   C46       1.0  0.50642  0.79031  0.57951  1.0000
  C   C47       1.0  0.4934  0.70621  0.62747  1.0000
  N   N5        1.0  0.52728  0.62674  0.63741  1.0000
  C   C48       1.0  0.44655  0.69906  0.66493  1.0000
  C   C49       1.0  0.41339999999999993  0.7771499999999997  0.65583  1.0000
  C   C50       1.0  0.36411999999999994  0.7712499999999998  0.69803  1.0000
  F   F17       1.0  0.31778  0.66304  0.69547  1.0000
  F   F18       1.0  0.32419  0.8357799999999997  0.66785  1.0000
  C   C51       1.0  0.40446000000000004  0.8131699999999997  0.77546  1.0000
  F   F19       1.0  0.46118999999999993  0.9099899999999999  0.77749  1.0000
  F   F20       1.0  0.36056  0.8374599999999999  0.80481  1.0000
  C   C52       1.0  0.42734  0.86183  0.60773  1.0000
  H   H21       1.0  0.5424  0.7949899999999999  0.55053  1.0000
  H   H22       1.0  0.52047  0.5665199999999999  0.67506  1.0000
  H   H23       1.0  0.5616  0.63069  0.60899  1.0000
  H   H24       1.0  0.43606000000000006  0.6327999999999999  0.70115  1.0000
  H   H25       1.0  0.40315000000000006  0.92388  0.60097  1.0000
  C   C53       1.0  0.51815  0.25129  0.61027  1.0000
  C   C54       1.0  0.57231  0.2575799999999999  0.67269  1.0000
  C   C55       1.0  0.56092  0.25496  0.73859  1.0000
  N   N6        1.0  0.6165200000000001  0.26258  0.80187  1.0000
  C   C56       1.0  0.49496  0.24554999999999988  0.7421  1.0000
  C   C57       1.0  0.43948000000000004  0.23553  0.68003  1.0000
  C   C58       1.0  0.3674  0.22381  0.683  1.0000
  F   F21       1.0  0.35468  0.16696999999999995  0.7420599999999999  1.0000
  F   F22       1.0  0.31676  0.16097  0.62477  1.0000
  C   C59       1.0  0.3591800000000001  0.33709  0.68309  1.0000
  F   F23       1.0  0.38269  0.40167999999999987  0.63083  1.0000
  F   F24       1.0  0.28873  0.3207  0.66839  1.0000
  C   C60       1.0  0.45182  0.23942  0.61442  1.0000
  H   H26       1.0  0.62373  0.26596  0.67061  1.0000
  H   H27       1.0  0.6096500000000001  0.26507  0.85135  1.0000
  H   H28       1.0  0.66508  0.26488  0.7998699999999999  1.0000
  H   H29       1.0  0.48703  0.24603999999999998  0.79326  1.0000
  H   H30       1.0  0.40940000000000004  0.23233999999999994  0.56641  1.0000
