data_image0
_chemical_formula_structural       Mn5CN8C2N8CN16Cl2C4Mn5CN8C2N8CN16Cl2C4Mn5CN8C2N8CN16Cl2C9F2CF2C2H10C5F2CF2C2H10C5F2CF2C2H10C5F2CF2C2H10C5F2CF2C2H10C5F2CF2C2H10C5F2CF2C2H10C5F2CF2C2H10C5F2CF2C2H10C5F2CF2C2H10C5F2CF2C2H10C5F2CF2C2H10
_chemical_formula_sum              "Mn15 C120 N96 Cl6 F48 H120"
_cell_length_a       24.6179
_cell_length_b       18.7914
_cell_length_c       21.8313
_cell_angle_alpha    92.3705
_cell_angle_beta     79.7248
_cell_angle_gamma    95.32570000000001

_symmetry_space_group_name_H-M    'P 1'
_symmetry_Int_Tables_number       1

loop_
  _symmetry_equiv_pos_as_xyz
  'x,y,z'

loop_
  _atom_site_type_symbol
  _atom_site_label
  _atom_site_symmetry_multiplicity
  _atom_site_fract_x
  _atom_site_fract_y
  _atom_site_fract_z
  _atom_site_occupancy
  Mn  Mn1       1.0  0.18296  0.38407  0.02047  1.0000
  Mn  Mn2       1.0  0.10304  0.4454699999999999  0.93043  1.0000
  Mn  Mn3       1.0  0.76092  0.59061  0.9868  1.0000
  Mn  Mn4       1.0  0.8502700000000001  0.58459  0.09101  1.0000
  Mn  Mn5       1.0  0.978  0.5164399999999999  0.01071  1.0000
  C   C1        1.0  0.17494  0.26293  0.9231000000000001  1.0000
  N   N1        1.0  0.15518  0.3207  0.95462  1.0000
  N   N2        1.0  0.11939999999999999  0.34235  0.92311  1.0000
  N   N3        1.0  0.11555999999999997  0.29912999999999995  0.8744100000000001  1.0000
  N   N4        1.0  0.14935000000000004  0.24790999999999996  0.8737  1.0000
  N   N5        1.0  0.01976999999999999  0.3876  0.8557800000000001  1.0000
  N   N6        1.0  0.02776000000000001  0.4187  0.90927  1.0000
  N   N7        1.0  0.9814400000000002  0.44218  0.93956  1.0000
  N   N8        1.0  0.9413000000000001  0.42595  0.90688  1.0000
  C   C2        1.0  0.96547  0.3913  0.85501  1.0000
  C   C3        1.0  0.10679999999999999  0.66077  0.9403100000000001  1.0000
  N   N9        1.0  0.08998000000000002  0.5489  0.93607  1.0000
  N   N10       1.0  0.1298  0.60005  0.92015  1.0000
  N   N11       1.0  0.03092  0.46023  0.05138  1.0000
  N   N12       1.0  0.07507  0.4362599999999999  0.024560000000000002  1.0000
  N   N13       1.0  0.10289  0.40394  0.05927  1.0000
  N   N14       1.0  0.05967000000000001  0.44381000000000004  0.05228  1.0000
  N   N15       1.0  0.04454  0.57604  0.9645300000000001  1.0000
  N   N16       1.0  0.05330000000000001  0.64671  0.9681900000000001  1.0000
  C   C4        1.0  0.022429999999999995  0.45583999999999997  0.11129000000000001  1.0000
  N   N17       1.0  0.7941799999999999  0.6805299999999999  0.02599  1.0000
  N   N18       1.0  0.8260800000000001  0.6797  0.06887  1.0000
  N   N19       1.0  0.85244  0.74362  0.0739  1.0000
  N   N20       1.0  0.8384800000000001  0.78666  0.03349  1.0000
  N   N21       1.0  0.93501  0.66778  0.15048  1.0000
  N   N22       1.0  0.92678  0.62443  0.10318  1.0000
  N   N23       1.0  0.9724900000000001  0.5931  0.0808  1.0000
  N   N24       1.0  0.01265999999999989  0.6173  0.11142  1.0000
  N   N25       1.0  0.89344  0.39012  0.05116  1.0000
  N   N26       1.0  0.91034  0.45816000000000007  0.06095000000000001  1.0000
  N   N27       1.0  0.8732  0.48748  0.10365  1.0000
  N   N28       1.0  0.83354  0.43872  0.12545  1.0000
  N   N29       1.0  0.92546  0.56981  0.96969  1.0000
  N   N30       1.0  0.8740900000000001  0.56868  0.99953  1.0000
  N   N31       1.0  0.83911  0.56428  0.96044  1.0000
  N   N32       1.0  0.8666300000000001  0.5651  0.9031200000000003  1.0000
  Cl  Cl1       1.0  0.18770000000000006  0.47380000000000005  0.95478  1.0000
  Cl  Cl2       1.0  0.76434  0.5385899999999999  0.07711000000000001  1.0000
  C   C5        1.0  0.8027500000000001  0.7466  0.0028400000000000005  1.0000
  C   C6        1.0  0.9885200000000001  0.66325  0.15507  1.0000
  C   C7        1.0  0.8455700000000002  0.37848  0.09273  1.0000
  C   C8        1.0  0.92121  0.5722  0.90813  1.0000
  Mn  Mn6       1.0  0.49750000000000005  0.9034099999999999  0.24424000000000007  1.0000
  Mn  Mn7       1.0  0.48544  0.04831  0.15979  1.0000
  Mn  Mn8       1.0  0.51846  0.09730000000000001  0.73552  1.0000
  Mn  Mn9       1.0  0.52845  0.9558599999999999  0.8269500000000001  1.0000
  Mn  Mn10      1.0  0.50303  0.003240000000000002  0.9930600000000002  1.0000
  C   C9        1.0  0.61219  0.98509  0.22040000000000004  1.0000
  N   N33       1.0  0.55684  0.98713  0.23034  1.0000
  N   N34       1.0  0.54837  0.04831  0.20749  1.0000
  N   N35       1.0  0.59616  0.08654  0.19092000000000003  1.0000
  N   N36       1.0  0.6368499999999999  0.04866  0.19906000000000001  1.0000
  N   N37       1.0  0.55886  0.16917  0.10249000000000001  1.0000
  N   N38       1.0  0.53293  0.10639  0.09214  1.0000
  N   N39       1.0  0.53899  0.09164  0.03186  1.0000
  N   N40       1.0  0.57026  0.14413999999999996  0.0006500000000000394  1.0000
  C   C10       1.0  0.58297  0.19142  0.04552  1.0000
  C   C11       1.0  0.34428000000000003  0.020129999999999995  0.09183  1.0000
  N   N41       1.0  0.42459  0.04108  0.11065  1.0000
  N   N42       1.0  0.37258  0.04312  0.13694  1.0000
  N   N43       1.0  0.52316  0.9398499999999999  0.05949000000000001  1.0000
  N   N44       1.0  0.50652  0.9545200000000001  0.11904000000000002  1.0000
  N   N45       1.0  0.50494  0.8972299999999999  0.1518  1.0000
  N   N46       1.0  0.52301  0.84373  0.11573000000000003  1.0000
  N   N47       1.0  0.42892  0.01801000000000008  0.051800000000000006  1.0000
  N   N48       1.0  0.37853  0.0035099999999999017  0.038450000000000005  1.0000
  C   C12       1.0  0.53688  0.87031  0.05770000000000001  1.0000
  N   N49       1.0  0.46780000000000005  0.006409999999999999  0.7369  1.0000
  N   N50       1.0  0.47124  0.9512899999999999  0.77086  1.0000
  N   N51       1.0  0.42847  0.9037799999999999  0.76886  1.0000
  N   N52       1.0  0.39532000000000006  0.9289199999999999  0.73477  1.0000
  N   N53       1.0  0.4372500000000001  0.84995  0.88011  1.0000
  N   N54       1.0  0.47604999999999986  0.89858  0.8934400000000001  1.0000
  N   N55       1.0  0.46637  0.9153999999999999  0.95356  1.0000
  N   N56       1.0  0.4203799999999999  0.8785200000000001  0.9808400000000002  1.0000
  N   N57       1.0  0.6259500000000001  0.019470000000000005  0.95227  1.0000
  N   N58       1.0  0.57858  0.99015  0.93808  1.0000
  N   N59       1.0  0.58707  0.9677299999999999  0.8793300000000001  1.0000
  N   N60       1.0  0.6395400000000002  0.9827300000000001  0.85365  1.0000
  N   N61       1.0  0.4833  0.06529  0.9241500000000001  1.0000
  N   N62       1.0  0.5007100000000001  0.04854  0.8646600000000001  1.0000
  N   N63       1.0  0.4966  0.10172000000000002  0.8289  1.0000
  N   N64       1.0  0.47383  0.15434  0.86233  1.0000
  Cl  Cl3       1.0  0.4343  0.9822  0.23763  1.0000
  Cl  Cl4       1.0  0.58274  0.02425  0.75202  1.0000
  C   C13       1.0  0.41986000000000007  0.99386  0.71618  1.0000
  C   C14       1.0  0.40269  0.83782  0.93451  1.0000
  C   C15       1.0  0.6637800000000001  0.013919999999999932  0.89959  1.0000
  C   C16       1.0  0.46449000000000007  0.13186  0.9216300000000001  1.0000
  Mn  Mn11      1.0  0.22137999999999997  0.12817  0.58557  1.0000
  Mn  Mn12      1.0  0.15137  0.9756299999999999  0.53766  1.0000
  Mn  Mn13      1.0  0.82511  0.9301899999999999  0.38304  1.0000
  Mn  Mn14      1.0  0.89301  0.06604  0.4570800000000001  1.0000
  Mn  Mn15      1.0  0.019229999999999994  0.01403  0.50089  1.0000
  C   C17       1.0  0.17528  0.048620000000000003  0.70713  1.0000
  N   N65       1.0  0.18850000000000003  0.04850000000000001  0.64472  1.0000
  N   N66       1.0  0.16611  0.9869599999999998  0.62562  1.0000
  N   N67       1.0  0.14089000000000002  0.9493199999999999  0.67398  1.0000
  N   N68       1.0  0.14642  0.98626  0.72596  1.0000
  N   N69       1.0  0.07243000000000001  0.86199  0.60224  1.0000
  N   N70       1.0  0.07835  0.91768  0.56584  1.0000
  N   N71       1.0  0.02989999999999998  0.9307599999999999  0.55266  1.0000
  N   N72       1.0  0.99056  0.8847299999999999  0.58107  1.0000
  C   C18       1.0  0.017669999999999984  0.84189  0.61136  1.0000
  C   C19       1.0  0.14369  0.97141  0.3542600000000001  1.0000
  N   N73       1.0  0.13508  0.97242  0.45173  1.0000
  N   N74       1.0  0.17076000000000002  0.95927  0.40076000000000006  1.0000
  N   N75       1.0  0.06499999999999999  0.07938  0.5541600000000001  1.0000
  N   N76       1.0  0.11764  0.06966  0.55042  1.0000
  N   N77       1.0  0.14498  0.12866  0.56665  1.0000
  N   N78       1.0  0.11069999999999999  0.17798  0.5854300000000001  1.0000
  N   N79       1.0  0.08895000000000002  0.99298  0.43794  1.0000
  N   N80       1.0  0.09276  0.9930399999999999  0.37667000000000006  1.0000
  C   C20       1.0  0.05983000000000001  0.147  0.57969  1.0000
  N   N81       1.0  0.8571100000000001  0.022250000000000103  0.34110000000000007  1.0000
  N   N82       1.0  0.88148  0.07578  0.36915000000000003  1.0000
  N   N83       1.0  0.88813  0.13343  0.3348  1.0000
  N   N84       1.0  0.86784  0.11743  0.28287  1.0000
  N   N85       1.0  0.97635  0.17607  0.39984  1.0000
  N   N86       1.0  0.96633  0.12175  0.43787000000000004  1.0000
  N   N87       1.0  0.012799999999999924  0.10095  0.44983  1.0000
  N   N88       1.0  0.05536  0.14223  0.42018  1.0000
  N   N89       1.0  0.93625  0.013130000000000084  0.6203600000000001  1.0000
  N   N90       1.0  0.9478  0.030999999999999917  0.56109  1.0000
  N   N91       1.0  0.9034  0.05346  0.54451  1.0000
  N   N92       1.0  0.86231  0.05362999999999999  0.59234  1.0000
  N   N93       1.0  0.97191  0.9499099999999999  0.44794  1.0000
  N   N94       1.0  0.92726  0.97292  0.43194  1.0000
  N   N95       1.0  0.90085  0.92145  0.40314  1.0000
  N   N96       1.0  0.92739  0.8632699999999999  0.39765  1.0000
  Cl  Cl5       1.0  0.23288  0.04195000000000001  0.50902  1.0000
  Cl  Cl6       1.0  0.8107100000000002  0.99806  0.47252  1.0000
  C   C21       1.0  0.8489199999999999  0.04760000000000009  0.28772  1.0000
  C   C22       1.0  0.031819999999999966  0.18860999999999997  0.3891800000000001  1.0000
  C   C23       1.0  0.88347  0.029519999999999998  0.6394  1.0000
  C   C24       1.0  0.97194  0.88062  0.42537  1.0000
  C   C25       1.0  0.011230000000000009  0.1651  0.63  1.0000
  C   C26       1.0  0.029690000000000008  0.20112  0.68991  1.0000
  C   C27       1.0  0.022609999999999995  0.28168  0.69515  1.0000
  C   C28       1.0  0.9607699999999999  0.29587  0.69968  1.0000
  C   C29       1.0  0.93198  0.30635  0.76942  1.0000
  F   F1        1.0  0.87535  0.29002  0.77395  1.0000
  F   F2        1.0  0.94998  0.25843  0.80645  1.0000
  C   C30       1.0  0.94214  0.38481  0.79523  1.0000
  F   F3        1.0  0.8928499999999999  0.41708999999999996  0.80487  1.0000
  F   F4        1.0  0.97893  0.42565  0.7523  1.0000
  C   C31       1.0  0.9295  0.23776000000000003  0.66269  1.0000
  C   C32       1.0  0.96919  0.2084  0.60644  1.0000
  H   H1        1.0  0.98961  0.11406  0.64666  1.0000
  H   H2        1.0  0.004029999999999997  0.17535  0.73158  1.0000
  H   H3        1.0  0.07267  0.19208  0.69359  1.0000
  H   H4        1.0  0.047799999999999995  0.30797  0.65346  1.0000
  H   H5        1.0  0.03975  0.30537  0.73591  1.0000
  H   H6        1.0  0.95983  0.34602  0.67472  1.0000
  H   H7        1.0  0.89488  0.26074  0.64609  1.0000
  H   H8        1.0  0.9110200000000002  0.19262999999999997  0.69329  1.0000
  H   H9        1.0  0.94523  0.17469  0.57624  1.0000
  H   H10       1.0  0.9911200000000001  0.25351  0.57796  1.0000
  C   C33       1.0  0.81258  0.005589999999999984  0.24938  1.0000
  C   C34       1.0  0.7849699999999998  0.04899999999999993  0.20701000000000006  1.0000
  C   C35       1.0  0.76224  0.0005700000000000002  0.15657  1.0000
  C   C36       1.0  0.74682  0.9212799999999999  0.17543  1.0000
  C   C37       1.0  0.69188  0.9072499999999999  0.22468000000000002  1.0000
  F   F5        1.0  0.6885800000000003  0.83678  0.24255000000000002  1.0000
  F   F6        1.0  0.6923500000000001  0.94948  0.278  1.0000
  C   C38       1.0  0.6378800000000001  0.91674  0.19952  1.0000
  F   F7        1.0  0.59888  0.86  0.21825000000000003  1.0000
  F   F8        1.0  0.64779  0.91656  0.13519  1.0000
  C   C39       1.0  0.79779  0.8884499999999999  0.19341000000000003  1.0000
  C   C40       1.0  0.84158  0.94411  0.21332000000000004  1.0000
  H   H11       1.0  0.77957  0.9810900000000001  0.28519  1.0000
  H   H12       1.0  0.75048  0.07576999999999989  0.23600000000000002  1.0000
  H   H13       1.0  0.81505  0.09169  0.18368  1.0000
  H   H14       1.0  0.7955400000000001  0.0004900000000000004  0.11477000000000001  1.0000
  H   H15       1.0  0.72773  0.02413  0.14092  1.0000
  H   H16       1.0  0.73948  0.8913  0.1323  1.0000
  H   H17       1.0  0.81836  0.85749  0.15284  1.0000
  H   H18       1.0  0.78477  0.84985  0.23145000000000002  1.0000
  H   H19       1.0  0.86615  0.91772  0.24260000000000004  1.0000
  H   H20       1.0  0.8707100000000001  0.96476  0.17155  1.0000
  C   C41       1.0  0.012510000000000009  0.82588  0.4311100000000001  1.0000
  C   C42       1.0  0.98236  0.7505700000000001  0.44491000000000014  1.0000
  C   C43       1.0  0.96159  0.71183  0.3880800000000001  1.0000
  C   C44       1.0  0.99568  0.73517  0.32403000000000004  1.0000
  C   C45       1.0  0.9893  0.6773  0.27187  1.0000
  F   F9        1.0  0.012590000000000004  0.61626  0.28439000000000003  1.0000
  F   F10       1.0  0.9329400000000001  0.6595499999999999  0.2744  1.0000
  C   C46       1.0  0.016299999999999985  0.70218  0.20485  1.0000
  F   F11       1.0  0.07193999999999989  0.68984  0.19356  1.0000
  F   F12       1.0  0.012629999999999997  0.7747299999999999  0.19947  1.0000
  C   C47       1.0  0.05602  0.75641  0.33109  1.0000
  C   C48       1.0  0.05918  0.82377  0.37335  1.0000
  H   H21       1.0  0.03299999999999992  0.84155  0.4709400000000001  1.0000
  H   H22       1.0  0.011830000000000014  0.71701  0.46086  1.0000
  H   H23       1.0  0.9470999999999999  0.754  0.48429000000000005  1.0000
  H   H24       1.0  0.91745  0.72128  0.38947  1.0000
  H   H25       1.0  0.9625  0.65337  0.39335  1.0000
  H   H26       1.0  0.9783000000000001  0.78366  0.31076  1.0000
  H   H27       1.0  0.08212999999999998  0.76841  0.28523  1.0000
  H   H28       1.0  0.07325  0.71158  0.35098  1.0000
  H   H29       1.0  0.09964  0.82769  0.38963  1.0000
  H   H30       1.0  0.05857999999999999  0.8701899999999999  0.34401  1.0000
  C   C49       1.0  0.16849  0.96168  0.28645  1.0000
  C   C50       1.0  0.18961  0.8859800000000001  0.27305  1.0000
  C   C51       1.0  0.18891000000000002  0.8576099999999999  0.2057  1.0000
  C   C52       1.0  0.20210000000000003  0.9177100000000001  0.15798  1.0000
  C   C53       1.0  0.26488  0.9457299999999998  0.14971  1.0000
  F   F13       1.0  0.27971  0.96805  0.20607000000000003  1.0000
  F   F14       1.0  0.29565  0.8888599999999999  0.12745  1.0000
  C   C54       1.0  0.28259  0.00775  0.10466  1.0000
  F   F15       1.0  0.26353  0.06966  0.13364  1.0000
  F   F16       1.0  0.26228  0.9939100000000001  0.04993000000000001  1.0000
  C   C55       1.0  0.15812000000000007  0.97381  0.17356000000000002  1.0000
  C   C56       1.0  0.129  0.97656  0.24237  1.0000
  H   H31       1.0  0.20417000000000002  0.00283  0.27795  1.0000
  H   H32       1.0  0.23235  0.8873  0.28318  1.0000
  H   H33       1.0  0.16487  0.84605  0.30474  1.0000
  H   H34       1.0  0.14706  0.8311499999999999  0.20281  1.0000
  H   H35       1.0  0.21831  0.8156  0.19377000000000003  1.0000
  H   H36       1.0  0.19624  0.89261  0.11231  1.0000
  H   H37       1.0  0.12518999999999997  0.95947  0.14515  1.0000
  H   H38       1.0  0.17475  0.0282  0.15935  1.0000
  H   H39       1.0  0.11341000000000001  0.03015  0.25332  1.0000
  H   H40       1.0  0.09262  0.9360499999999999  0.24922  1.0000
  C   C57       1.0  0.06302  0.24420999999999998  0.3447  1.0000
  C   C58       1.0  0.05458000000000008  0.22735999999999998  0.27635  1.0000
  C   C59       1.0  0.010969999999999924  0.27079  0.2559  1.0000
  C   C60       1.0  0.023260000000000003  0.35331  0.2636200000000001  1.0000
  C   C61       1.0  0.04887  0.39117  0.20136000000000004  1.0000
  F   F17       1.0  0.06621  0.4613499999999999  0.21569000000000005  1.0000
  F   F18       1.0  0.09542000000000002  0.35762000000000005  0.17436  1.0000
  C   C62       1.0  0.00822  0.3918  0.15372  1.0000
  F   F19       1.0  0.008449999999999997  0.32871  0.11849000000000001  1.0000
  F   F20       1.0  0.95471  0.39697  0.18507  1.0000
  C   C63       1.0  0.05971  0.37278  0.31415  1.0000
  C   C64       1.0  0.04697  0.31971  0.36739  1.0000
  H   H41       1.0  0.10798  0.24258  0.34545  1.0000
  H   H42       1.0  0.09465999999999998  0.23982999999999996  0.24449  1.0000
  H   H43       1.0  0.042980000000000025  0.16929  0.26944  1.0000
  H   H44       1.0  0.97003  0.25419  0.28448  1.0000
  H   H45       1.0  0.007530000000000034  0.25519  0.20715  1.0000
  H   H46       1.0  0.98293  0.37542  0.28146  1.0000
  H   H47       1.0  0.05195000000000002  0.42729  0.3336  1.0000
  H   H48       1.0  0.1045  0.37387  0.29362  1.0000
  H   H49       1.0  0.07017  0.33902  0.40501000000000004  1.0000
  H   H50       1.0  0.001969999999999996  0.31853  0.38709000000000005  1.0000
  C   C65       1.0  0.59115  0.84834  0.020220000000000002  1.0000
  C   C66       1.0  0.618  0.792  0.05256000000000001  1.0000
  C   C67       1.0  0.67951  0.79619  0.026240000000000045  1.0000
  C   C68       1.0  0.691  0.78253  0.95485  1.0000
  C   C69       1.0  0.7520600000000001  0.80964  0.92786  1.0000
  F   F21       1.0  0.75645  0.8152799999999999  0.8641200000000001  1.0000
  F   F22       1.0  0.76524  0.8773  0.9518300000000001  1.0000
  C   C70       1.0  0.7968  0.76085  0.93674  1.0000
  F   F23       1.0  0.84691  0.79384  0.9077200000000001  1.0000
  F   F24       1.0  0.78741  0.69627  0.9057  1.0000
  C   C71       1.0  0.65027  0.81805  0.9198500000000001  1.0000
  C   C72       1.0  0.5897700000000001  0.81826  0.95459  1.0000
  H   H51       1.0  0.61929  0.89861  0.01683  1.0000
  H   H52       1.0  0.61351  0.80021  0.10362000000000002  1.0000
  H   H53       1.0  0.599  0.73685  0.044890000000000006  1.0000
  H   H54       1.0  0.6984299999999999  0.7562600000000002  0.04983000000000027  1.0000
  H   H55       1.0  0.6977  0.8500199999999999  0.03886  1.0000
  H   H56       1.0  0.68487  0.72388  0.946  1.0000
  H   H57       1.0  0.6498700000000003  0.7909  0.87372  1.0000
  H   H58       1.0  0.66642  0.87425  0.9107800000000001  1.0000
  H   H59       1.0  0.56593  0.85061  0.92978  1.0000
  H   H60       1.0  0.5688100000000003  0.76317  0.95562  1.0000
  C   C73       1.0  0.7974500000000002  0.32665  0.08242  1.0000
  C   C74       1.0  0.81047  0.26383  0.03645  1.0000
  C   C75       1.0  0.7627400000000001  0.20305999999999996  0.0435  1.0000
  C   C76       1.0  0.70376  0.22703999999999996  0.06982  1.0000
  C   C77       1.0  0.6773  0.26412  0.02019  1.0000
  F   F25       1.0  0.69864  0.33453  0.01326  1.0000
  F   F26       1.0  0.6910099999999999  0.23064  0.9630400000000001  1.0000
  C   C78       1.0  0.61328  0.26426  0.034440000000000005  1.0000
  F   F27       1.0  0.59607  0.293  0.98447  1.0000
  F   F28       1.0  0.59772  0.30807  0.08595  1.0000
  C   C79       1.0  0.70345  0.27147  0.13198  1.0000
  C   C80       1.0  0.76145  0.30076  0.14366  1.0000
  H   H61       1.0  0.7722600000000002  0.3607099999999999  0.060799999999999965  1.0000
  H   H62       1.0  0.81777  0.28368  0.9881  1.0000
  H   H63       1.0  0.84911  0.24163999999999997  0.04373  1.0000
  H   H64       1.0  0.7720100000000001  0.1637  0.07618000000000001  1.0000
  H   H65       1.0  0.76319  0.17357  0.99836  1.0000
  H   H66       1.0  0.6776000000000001  0.17632  0.08179  1.0000
  H   H67       1.0  0.6834100000000001  0.23786  0.1719  1.0000
  H   H68       1.0  0.67831  0.31768  0.13318  1.0000
  H   H69       1.0  0.75638  0.34529  0.17878000000000002  1.0000
  H   H70       1.0  0.78167  0.25872  0.16348  1.0000
  C   C81       1.0  0.39196000000000003  0.052  0.69172  1.0000
  C   C82       1.0  0.3319  0.025830000000000023  0.68465  1.0000
  C   C83       1.0  0.29293  0.03778  0.7462100000000002  1.0000
  C   C84       1.0  0.28891  0.11885999999999998  0.7611700000000001  1.0000
  C   C85       1.0  0.24288999999999997  0.15196  0.7343600000000001  1.0000
  F   F29       1.0  0.23961000000000002  0.22087999999999997  0.75909  1.0000
  F   F30       1.0  0.25835  0.15804  0.6707100000000001  1.0000
  C   C86       1.0  0.18443  0.11192999999999999  0.74988  1.0000
  F   F31       1.0  0.1457  0.15892  0.74466  1.0000
  F   F32       1.0  0.17464999999999997  0.08987  0.81086  1.0000
  C   C87       1.0  0.34537  0.16329  0.74002  1.0000
  C   C88       1.0  0.39471  0.1188  0.7364000000000002  1.0000
  H   H71       1.0  0.41555000000000003  0.06625999999999999  0.64483  1.0000
  H   H72       1.0  0.31934  0.055630000000000075  0.64729  1.0000
  H   H73       1.0  0.32815999999999995  0.9684299999999999  0.6699300000000001  1.0000
  H   H74       1.0  0.30947  0.014009999999999998  0.7842  1.0000
  H   H75       1.0  0.25285  0.006740000000000003  0.7463700000000001  1.0000
  H   H76       1.0  0.27876999999999996  0.1244  0.81267  1.0000
  H   H77       1.0  0.34964000000000006  0.20927  0.77299  1.0000
  H   H78       1.0  0.3481  0.186  0.69333  1.0000
  H   H79       1.0  0.43364  0.15299  0.72081  1.0000
  H   H80       1.0  0.39537  0.1024  0.7846600000000001  1.0000
  C   C89       1.0  0.9583699999999999  0.62565  0.86478  1.0000
  C   C90       1.0  0.0012599999999999946  0.5924  0.81444  1.0000
  C   C91       1.0  0.034069999999999996  0.65041  0.77014  1.0000
  C   C92       1.0  0.99498  0.69236  0.73901  1.0000
  C   C93       1.0  0.026939999999999974  0.7497799999999999  0.69276  1.0000
  F   F33       1.0  0.0569599999999999  0.79977  0.72486  1.0000
  F   F34       1.0  0.0639700000000001  0.71565  0.64839  1.0000
  C   C94       1.0  0.9881200000000002  0.78883  0.65828  1.0000
  F   F35       1.0  0.9532799999999999  0.8285899999999999  0.6999700000000001  1.0000
  F   F36       1.0  0.95641  0.73865  0.62842  1.0000
  C   C95       1.0  0.9531899999999999  0.72543  0.79082  1.0000
  C   C96       1.0  0.9212300000000001  0.66792  0.83235  1.0000
  H   H81       1.0  0.98059  0.6643  0.8937000000000002  1.0000
  H   H82       1.0  0.03044999999999995  0.56511  0.8368800000000001  1.0000
  H   H83       1.0  0.97964  0.55202  0.78667  1.0000
  H   H84       1.0  0.06352000000000002  0.62375  0.73387  1.0000
  H   H85       1.0  0.058919999999999986  0.68814  0.7971700000000002  1.0000
  H   H86       1.0  0.9718799999999999  0.65269  0.7116800000000001  1.0000
  H   H87       1.0  0.92085  0.74969  0.77165  1.0000
  H   H88       1.0  0.9743599999999999  0.7664  0.81882  1.0000
  H   H89       1.0  0.89114  0.69345  0.86805  1.0000
  H   H90       1.0  0.8973999999999998  0.63099  0.8033400000000002  1.0000
  C   C97       1.0  0.85016  0.02047  0.70362  1.0000
  C   C98       1.0  0.80175  0.96235  0.70171  1.0000
  C   C99       1.0  0.77618  0.93194  0.7659  1.0000
  C   C100      1.0  0.7865700000000002  0.98274  0.82067  1.0000
  C   C101      1.0  0.75543  0.05256  0.8248600000000001  1.0000
  F   F37       1.0  0.79345  0.11232000000000002  0.8180400000000001  1.0000
  F   F38       1.0  0.7247800000000001  0.054009999999999996  0.77747  1.0000
  C   C102      1.0  0.71647  0.06285999999999992  0.88798  1.0000
  F   F39       1.0  0.7001  0.13103  0.88842  1.0000
  F   F40       1.0  0.7452  0.05810000000000005  0.9364400000000002  1.0000
  C   C103      1.0  0.8501900000000001  0.99622  0.81896  1.0000
  C   C104      1.0  0.8851700000000001  0.00545  0.75272  1.0000
  H   H91       1.0  0.83294  0.07258  0.71629  1.0000
  H   H92       1.0  0.7691  0.98547  0.6815  1.0000
  H   H93       1.0  0.81596  0.9171099999999999  0.67016  1.0000
  H   H94       1.0  0.7955800000000001  0.88171  0.7704300000000002  1.0000
  H   H95       1.0  0.73107  0.91707  0.76851  1.0000
  H   H96       1.0  0.7697400000000001  0.95263  0.8633600000000001  1.0000
  H   H97       1.0  0.8641500000000002  0.9492799999999999  0.83944  1.0000
  H   H98       1.0  0.8598  0.04253  0.84973  1.0000
  H   H99       1.0  0.91791  0.050230000000000004  0.7540700000000001  1.0000
  H   H100      1.0  0.90638  0.9561  0.7385300000000001  1.0000
  C   C105      1.0  0.34493  0.80021  0.93761  1.0000
  C   C106      1.0  0.33624  0.73071  0.9733800000000001  1.0000
  C   C107      1.0  0.28191  0.68886  0.96128  1.0000
  C   C108      1.0  0.23037000000000002  0.7341799999999998  0.9710600000000001  1.0000
  C   C109      1.0  0.20082  0.73707  0.91274  1.0000
  F   F41       1.0  0.21956  0.7997  0.88145  1.0000
  F   F42       1.0  0.21474000000000001  0.68205  0.87035  1.0000
  C   C110      1.0  0.13596999999999998  0.73484  0.9298700000000001  1.0000
  F   F43       1.0  0.11616000000000003  0.7627  0.8813  1.0000
  F   F44       1.0  0.12071  0.7772  0.98241  1.0000
  C   C111      1.0  0.24466  0.81006  0.99826  1.0000
  C   C112      1.0  0.29887  0.8497799999999999  0.96363  1.0000
  H   H101      1.0  0.34046  0.78532  0.8886900000000001  1.0000
  H   H102      1.0  0.3714299999999998  0.69752  0.95761  1.0000
  H   H103      1.0  0.33429  0.74265  0.02402  1.0000
  H   H104      1.0  0.27296999999999993  0.6425  0.9926100000000001  1.0000
  H   H105      1.0  0.29038  0.66587  0.9134  1.0000
  H   H106      1.0  0.19957  0.70673  0.008119999999999905  1.0000
  H   H107      1.0  0.24932999999999997  0.80414  0.04753000000000008  1.0000
  H   H108      1.0  0.20995999999999995  0.84431  0.9997700000000002  1.0000
  H   H109      1.0  0.28972  0.8805  0.9247600000000001  1.0000
  H   H110      1.0  0.31395999999999996  0.8897  0.99695  1.0000
  C   C113      1.0  0.22426000000000004  0.22686000000000003  0.93434  1.0000
  C   C114      1.0  0.27804000000000006  0.27838999999999997  0.92659  1.0000
  C   C115      1.0  0.31395999999999996  0.27226  0.97725  1.0000
  C   C116      1.0  0.3180700000000001  0.19443999999999997  0.99663  1.0000
  C   C117      1.0  0.3642  0.15525  0.9524  1.0000
  F   F45       1.0  0.35125  0.082  0.95329  1.0000
  F   F46       1.0  0.36531  0.17547  0.8919200000000003  1.0000
  C   C118      1.0  0.42362  0.16987  0.96911  1.0000
  F   F47       1.0  0.42448999999999987  0.14962  0.02859999999999996  1.0000
  F   F48       1.0  0.43966000000000005  0.24238  0.96634  1.0000
  C   C119      1.0  0.26015  0.1505  0.006010000000000001  1.0000
  C   C120      1.0  0.2117  0.19214  0.99768  1.0000
  H   H111      1.0  0.23091000000000012  0.18309  0.89867  1.0000
  H   H112      1.0  0.30323  0.26825999999999994  0.88008  1.0000
  H   H113      1.0  0.26822999999999997  0.33496  0.9268900000000002  1.0000
  H   H114      1.0  0.29528  0.30254  0.0194  1.0000
  H   H115      1.0  0.35572  0.29976  0.9617400000000002  1.0000
  H   H116      1.0  0.33061  0.19901  0.04327  1.0000
  H   H117      1.0  0.25002  0.13193  0.05392  1.0000
  H   H118      1.0  0.25953999999999994  0.10252  0.9746000000000002  1.0000
  H   H119      1.0  0.17386000000000001  0.1542  0.00044  1.0000
  H   H120      1.0  0.20389  0.23313  0.03568  1.0000
