data_image0
_chemical_formula_structural       Gd2O7CO2CO3C4Gd2O7CO2CO3C4Gd2O7CO2CO3C4Gd2O7CO2CO3C7BrC3F2CF2CH3C3BrC3F2CF2CH3C3BrC3F2CF2CH3C3BrC3F2CF2CH3C3BrC3F2CF2CH3C3BrC3F2CF2CH3C3BrC3F2CF2CH3C3BrC3F2CF2CH3C3BrC3F2CF2CH3C3BrC3F2CF2CH3C3BrC3F2CF2CH3C3BrC3F2CF2CH3
_chemical_formula_sum              "Gd8 O48 C120 Br12 F48 H36"
_cell_length_a       12.9233
_cell_length_b       20.403799999999997
_cell_length_c       22.9541
_cell_angle_alpha    100.95459999999999
_cell_angle_beta     84.609
_cell_angle_gamma    85.3848

_space_group_name_H-M_alt    "P 1"
_space_group_IT_number       1

loop_
  _space_group_symop_operation_xyz
  'x, y, z'

loop_
  _atom_site_type_symbol
  _atom_site_label
  _atom_site_symmetry_multiplicity
  _atom_site_fract_x
  _atom_site_fract_y
  _atom_site_fract_z
  _atom_site_occupancy
  Gd  Gd1       1.0  0.82507  0.32651  0.59812  1.0000
  Gd  Gd2       1.0  0.6443299999999998  0.18556000000000003  0.47558000000000006  1.0000
  O   O1        1.0  0.77489  0.12378999999999998  0.50785  1.0000
  O   O2        1.0  0.8241699999999998  0.22018999999999997  0.54218  1.0000
  O   O3        1.0  0.83302  0.25992999999999994  0.50578  1.0000
  O   O4        1.0  0.7627  0.23912999999999998  0.42294  1.0000
  O   O5        1.0  0.84593  0.3904899999999999  0.68287  1.0000
  O   O6        1.0  0.93778  0.29242999999999997  0.65348  1.0000
  O   O7        1.0  0.7002  0.38684999999999997  0.55984  1.0000
  C   C1        1.0  0.91302  0.34573  0.69434  1.0000
  O   O8        1.0  0.64272  0.29058999999999996  0.5337800000000001  1.0000
  O   O9        1.0  0.70273  0.28033  0.65178  1.0000
  C   C2        1.0  0.8281299999999999  0.27157  0.45287  1.0000
  O   O10       1.0  0.63421  0.25033  0.56974  1.0000
  O   O11       1.0  0.6087  0.12095  0.3925600000000001  1.0000
  O   O12       1.0  0.50924  0.21335000000000007  0.4322200000000001  1.0000
  C   C3        1.0  0.8303000000000001  0.15683  0.54329  1.0000
  C   C4        1.0  0.52495  0.15961999999999998  0.39175  1.0000
  C   C5        1.0  0.6434799999999999  0.24193999999999996  0.6235  1.0000
  C   C6        1.0  0.6390699999999998  0.35311  0.52902  1.0000
  Gd  Gd3       1.0  0.36681  0.7911299999999999  0.57589  1.0000
  Gd  Gd4       1.0  0.12641000000000002  0.6639399999999999  0.49508000000000013  1.0000
  O   O13       1.0  0.2786899999999999  0.60147  0.4981100000000001  1.0000
  O   O14       1.0  0.31744  0.6865000000000001  0.55919  1.0000
  O   O15       1.0  0.3975600000000001  0.7598999999999998  0.4755900000000001  1.0000
  O   O16       1.0  0.23391000000000003  0.73984  0.47432000000000013  1.0000
  O   O17       1.0  0.36424  0.80865  0.67492  1.0000
  O   O18       1.0  0.49066  0.74451  0.62177  1.0000
  O   O19       1.0  0.22222000000000003  0.8505999999999999  0.557  1.0000
  C   C7        1.0  0.44921  0.77213  0.6741  1.0000
  O   O20       1.0  0.10327999999999996  0.7824499999999999  0.5160000000000001  1.0000
  O   O21       1.0  0.23720000000000002  0.7264  0.58996  1.0000
  C   C8        1.0  0.32595  0.73395  0.44707  1.0000
  O   O22       1.0  0.08576  0.69217  0.59565  1.0000
  O   O23       1.0  0.11653  0.64164  0.39718  1.0000
  O   O24       1.0  0.97976  0.68653  0.45502  1.0000
  C   C9        1.0  0.35023000000000004  0.6315  0.52251  1.0000
  C   C10       1.0  0.019339999999999993  0.6604799999999998  0.40175  1.0000
  C   C11       1.0  0.14828999999999995  0.7293700000000001  0.6210600000000001  1.0000
  C   C12       1.0  0.13216000000000003  0.8413099999999999  0.5388800000000001  1.0000
  Gd  Gd5       1.0  0.32501999999999986  0.23583000000000004  0.0032200000000002227  1.0000
  Gd  Gd6       1.0  0.18312  0.2750099999999999  0.06923  1.0000
  O   O25       1.0  0.24877  0.3720099999999999  0.09313000000000002  1.0000
  O   O26       1.0  0.3693099999999999  0.34036  0.015400000000000002  1.0000
  O   O27       1.0  0.4220299999999999  0.21620999999999999  0.07394  1.0000
  O   O28       1.0  0.27538  0.23214  0.13496  1.0000
  O   O29       1.0  0.44807  0.17740000000000006  0.9327100000000002  1.0000
  O   O30       1.0  0.44781999999999994  0.28023999999999993  0.94853  1.0000
  O   O31       1.0  0.2703  0.1355  0.99376  1.0000
  C   C13       1.0  0.48355999999999993  0.22576999999999994  0.91445  1.0000
  O   O32       1.0  0.11693999999999999  0.17796  0.04052  1.0000
  O   O33       1.0  0.23123  0.2557499999999999  0.9315200000000001  1.0000
  C   C14       1.0  0.37433999999999995  0.21556  0.12478  1.0000
  O   O34       1.0  0.11541000000000003  0.31968  0.99802  1.0000
  O   O35       1.0  0.17279  0.25764  0.16357  1.0000
  O   O36       1.0  0.042510000000000076  0.3089499999999999  0.13686  1.0000
  C   C15       1.0  0.31914  0.38628  0.056250000000000015  1.0000
  C   C16       1.0  0.07982  0.28533  0.17843  1.0000
  C   C17       1.0  0.15846999999999997  0.3028599999999999  0.94476  1.0000
  C   C18       1.0  0.17602  0.12840999999999997  0.00951  1.0000
  Gd  Gd7       1.0  0.81522  0.72088  0.0022299999999999547  1.0000
  Gd  Gd8       1.0  0.6917999999999999  0.76962  0.07933  1.0000
  O   O37       1.0  0.7625499999999998  0.86642  0.0852  1.0000
  O   O38       1.0  0.8699  0.8217799999999998  0.00435  1.0000
  O   O39       1.0  0.9227999999999997  0.70731  0.07149000000000001  1.0000
  O   O40       1.0  0.79936  0.74487  0.14536000000000002  1.0000
  O   O41       1.0  0.9393299999999998  0.6816699999999999  0.92618  1.0000
  O   O42       1.0  0.79106  0.71675  0.9059000000000003  1.0000
  O   O43       1.0  0.7588399999999997  0.6209999999999998  0.00219  1.0000
  C   C19       1.0  0.8856899999999999  0.6960299999999999  0.88617  1.0000
  O   O44       1.0  0.6305199999999999  0.66991  0.07105  1.0000
  O   O45       1.0  0.69494  0.7348899999999999  0.9382000000000001  1.0000
  C   C20       1.0  0.8936699999999999  0.72174  0.12725  1.0000
  O   O46       1.0  0.58569  0.79147  0.012820000000000054  1.0000
  O   O47       1.0  0.6972399999999999  0.76778  0.17671  1.0000
  O   O48       1.0  0.5615  0.8135699999999999  0.15133000000000002  1.0000
  C   C21       1.0  0.8385  0.87096  0.04698  1.0000
  C   C22       1.0  0.6034899999999999  0.7928  0.19271000000000002  1.0000
  C   C23       1.0  0.6034999999999999  0.7631599999999997  0.9582500000000002  1.0000
  C   C24       1.0  0.67588  0.61768  0.03565  1.0000
  C   C25       1.0  0.893  0.12347  0.58161  1.0000
  C   C26       1.0  0.8818699999999998  0.14682  0.64353  1.0000
  C   C27       1.0  0.9345  0.11153999999999999  0.6799800000000001  1.0000
  Br  Br1       1.0  0.91697  0.14276  0.76458  1.0000
  C   C28       1.0  0.00013999999999999617  0.05343  0.65478  1.0000
  C   C29       1.0  0.015569999999999992  0.029619999999999994  0.59254  1.0000
  C   C30       1.0  0.09866999999999997  0.97135  0.56575  1.0000
  F   F1        1.0  0.15479  0.98618  0.51625  1.0000
  F   F2        1.0  0.16829  0.96683  0.6076000000000001  1.0000
  C   C31       1.0  0.05263  0.90277  0.54688  1.0000
  F   F3        1.0  0.009260000000000027  0.9023399999999999  0.49395000000000006  1.0000
  F   F4        1.0  0.97397  0.89669  0.59029  1.0000
  C   C32       1.0  0.9589099999999999  0.06431000000000002  0.5563000000000001  1.0000
  H   H1        1.0  0.83006  0.19083  0.66413  1.0000
  H   H2        1.0  0.039739999999999984  0.027400000000000018  0.6841200000000001  1.0000
  H   H3        1.0  0.96794  0.04628  0.50836  1.0000
  C   C33       1.0  0.13656999999999997  0.06340999999999995  0.98894  1.0000
  C   C34       1.0  0.20376999999999998  0.012520000000000043  0.9505600000000001  1.0000
  C   C35       1.0  0.16768999999999995  0.95197  0.9271100000000002  1.0000
  Br  Br2       1.0  0.259  0.8860799999999999  0.87207  1.0000
  C   C36       1.0  0.06537999999999998  0.94042  0.94349  1.0000
  C   C37       1.0  0.99663  0.99002  0.98214  1.0000
  C   C38       1.0  0.8900599999999997  0.97219  0.003779999999999895  1.0000
  F   F5        1.0  0.8228999999999999  0.030110000000000078  0.024980000000000228  1.0000
  F   F6        1.0  0.8485499999999997  0.9360100000000001  0.9554100000000002  1.0000
  C   C39       1.0  0.8986599999999999  0.93155  0.05461  1.0000
  F   F7        1.0  0.86432  0.97308  0.10916  1.0000
  F   F8        1.0  0.0016599999999999788  0.9083999999999999  0.0576  1.0000
  C   C40       1.0  0.03226999999999999  0.0524  0.0041  1.0000
  H   H4        1.0  0.2842699999999999  0.019920000000000035  0.9379000000000002  1.0000
  H   H5        1.0  0.039299999999999995  0.8923699999999999  0.9273300000000001  1.0000
  H   H6        1.0  0.97999  0.09167  0.03339  1.0000
  C   C41       1.0  0.46105999999999997  0.60327  0.50698  1.0000
  C   C42       1.0  0.5440300000000001  0.6430999999999999  0.5143  1.0000
  C   C43       1.0  0.64673  0.6135300000000001  0.5087400000000001  1.0000
  Br  Br3       1.0  0.75593  0.66878  0.52822  1.0000
  C   C44       1.0  0.6687899999999998  0.54396  0.49067000000000005  1.0000
  C   C45       1.0  0.5875399999999998  0.5035700000000001  0.47701  1.0000
  C   C46       1.0  0.6086  0.42858  0.45261  1.0000
  F   F9        1.0  0.5651900000000001  0.4153  0.3991100000000001  1.0000
  F   F10       1.0  0.71465  0.41048999999999997  0.4388500000000001  1.0000
  C   C47       1.0  0.5605299999999999  0.38541  0.49579  1.0000
  F   F11       1.0  0.51028  0.33644999999999997  0.46324  1.0000
  F   F12       1.0  0.4856899999999999  0.4236999999999999  0.53863  1.0000
  C   C48       1.0  0.48428  0.5341799999999999  0.4846400000000001  1.0000
  H   H7        1.0  0.53004  0.69685  0.52305  1.0000
  H   H8        1.0  0.7490299999999999  0.52206  0.4864300000000001  1.0000
  H   H9        1.0  0.42138  0.5033299999999999  0.47422000000000003  1.0000
  C   C49       1.0  0.33207  0.45661999999999997  0.05519  1.0000
  C   C50       1.0  0.24264999999999998  0.5026399999999999  0.0633  1.0000
  C   C51       1.0  0.24925999999999993  0.56514  0.0478700000000003  1.0000
  Br  Br4       1.0  0.12517999999999996  0.6176800000000001  0.04038000000000031  1.0000
  C   C52       1.0  0.34564  0.5841699999999999  0.028219999999999912  1.0000
  C   C53       1.0  0.43525999999999987  0.5379  0.018480000000000052  1.0000
  C   C54       1.0  0.53769  0.5526400000000001  0.9887300000000002  1.0000
  F   F13       1.0  0.5660600000000001  0.50284  0.9382600000000002  1.0000
  F   F14       1.0  0.5237199999999999  0.6127899999999998  0.9689700000000001  1.0000
  C   C55       1.0  0.62581  0.5535599999999999  0.031010000000000006  1.0000
  F   F15       1.0  0.70086  0.49969999999999987  0.00957  1.0000
  F   F16       1.0  0.58674  0.5480700000000001  0.08814000000000033  1.0000
  C   C56       1.0  0.42747999999999997  0.47423999999999994  0.032170000000000004  1.0000
  H   H10       1.0  0.16626999999999995  0.48739  0.07519  1.0000
  H   H11       1.0  0.34869  0.63332  0.017209999999999948  1.0000
  H   H12       1.0  0.49522999999999995  0.43745  0.02273  1.0000
  C   C57       1.0  0.89508  0.3193099999999999  0.43006000000000005  1.0000
  C   C58       1.0  0.92751  0.3721900000000001  0.47085  1.0000
  C   C59       1.0  0.9959  0.41520999999999997  0.45162000000000013  1.0000
  Br  Br5       1.0  0.03614  0.4882  0.50753  1.0000
  C   C60       1.0  0.03676999999999999  0.40425  0.39181  1.0000
  C   C61       1.0  0.007490000000000026  0.3513999999999999  0.34968  1.0000
  C   C62       1.0  0.06304  0.34047  0.28636000000000006  1.0000
  F   F17       1.0  0.057039999999999993  0.4015199999999999  0.26796000000000003  1.0000
  F   F18       1.0  0.16748999999999997  0.32062  0.28864  1.0000
  C   C63       1.0  0.02065000000000001  0.2887299999999999  0.23876  1.0000
  F   F19       1.0  0.9157399999999999  0.30695  0.23639000000000004  1.0000
  F   F20       1.0  0.03224999999999988  0.22546  0.25239  1.0000
  C   C64       1.0  0.9337699999999998  0.30988  0.36918000000000006  1.0000
  H   H13       1.0  0.89948  0.38048999999999983  0.51781  1.0000
  H   H14       1.0  0.09293000000000001  0.4367299999999999  0.37821  1.0000
  H   H15       1.0  0.9094499999999999  0.26859  0.3384400000000001  1.0000
  C   C65       1.0  0.95755  0.64764  0.35044  1.0000
  C   C66       1.0  0.85869  0.6244099999999999  0.35767  1.0000
  C   C67       1.0  0.80379  0.60593  0.30838000000000004  1.0000
  Br  Br6       1.0  0.6708699999999999  0.57207  0.31884  1.0000
  C   C68       1.0  0.8465099999999999  0.6113899999999998  0.25145  1.0000
  C   C69       1.0  0.9457099999999999  0.6339799999999999  0.24310000000000004  1.0000
  C   C70       1.0  0.99166  0.6414  0.18171  1.0000
  F   F21       1.0  0.09854999999999992  0.62373  0.17651  1.0000
  F   F22       1.0  0.9518299999999998  0.5962999999999999  0.13823  1.0000
  C   C71       1.0  0.97071  0.7148199999999999  0.17191000000000004  1.0000
  F   F23       1.0  0.06342000000000002  0.7370099999999999  0.15171  1.0000
  F   F24       1.0  0.93375  0.75821  0.22536  1.0000
  C   C72       1.0  0.0012499999999999757  0.65137  0.29294  1.0000
  H   H16       1.0  0.8263  0.61755  0.4010000000000001  1.0000
  H   H17       1.0  0.80232  0.59799  0.21388000000000001  1.0000
  H   H18       1.0  0.07831999999999995  0.66819  0.28709  1.0000
  C   C73       1.0  0.14294000000000004  0.34645  0.90206  1.0000
  C   C74       1.0  0.17884000000000003  0.4103  0.91433  1.0000
  C   C75       1.0  0.1854599999999999  0.4492900000000001  0.8706200000000002  1.0000
  Br  Br7       1.0  0.24119999999999997  0.5340199999999999  0.88563  1.0000
  C   C76       1.0  0.15431  0.42536999999999997  0.8147700000000001  1.0000
  C   C77       1.0  0.11909000000000002  0.36137  0.8016  1.0000
  C   C78       1.0  0.07624999999999998  0.33877999999999997  0.7432800000000003  1.0000
  F   F25       1.0  0.11850999999999988  0.37168  0.70038  1.0000
  F   F26       1.0  0.10307999999999998  0.27047999999999994  0.7231100000000003  1.0000
  C   C79       1.0  0.9568299999999998  0.35418  0.75266  1.0000
  F   F27       1.0  0.92891  0.41939  0.7839400000000001  1.0000
  F   F28       1.0  0.91311  0.31078  0.78527  1.0000
  C   C80       1.0  0.11489000000000003  0.32151  0.84536  1.0000
  H   H19       1.0  0.20719999999999997  0.4281299999999999  0.9567200000000002  1.0000
  H   H20       1.0  0.15662999999999996  0.45718  0.7819900000000001  1.0000
  H   H21       1.0  0.08976999999999967  0.2715099999999999  0.8355300000000001  1.0000
  C   C81       1.0  0.446  0.14212  0.35115  1.0000
  C   C82       1.0  0.34453  0.13643999999999998  0.37593000000000004  1.0000
  C   C83       1.0  0.26437  0.12635  0.3396  1.0000
  Br  Br8       1.0  0.12595999999999996  0.12042  0.37455000000000005  1.0000
  C   C84       1.0  0.28491000000000005  0.12226999999999998  0.27811  1.0000
  C   C85       1.0  0.38673  0.12709999999999996  0.25222000000000006  1.0000
  C   C86       1.0  0.40866999999999987  0.12604  0.1859  1.0000
  F   F29       1.0  0.4937699999999999  0.07948999999999999  0.16288000000000002  1.0000
  F   F30       1.0  0.3245599999999999  0.10379999999999999  0.15691000000000002  1.0000
  C   C87       1.0  0.43249999999999994  0.19642  0.17376  1.0000
  F   F31       1.0  0.53891  0.1962  0.15837  1.0000
  F   F32       1.0  0.40405  0.24628999999999998  0.22426000000000004  1.0000
  C   C88       1.0  0.46744  0.1366  0.28933  1.0000
  H   H22       1.0  0.32747  0.14064  0.4237300000000001  1.0000
  H   H23       1.0  0.22069999999999995  0.11651  0.2511  1.0000
  H   H24       1.0  0.5453200000000001  0.14272999999999997  0.27049  1.0000
  C   C89       1.0  0.51562  0.7560199999999998  0.9209100000000001  1.0000
  C   C90       1.0  0.4143800000000001  0.7604999999999998  0.95042  1.0000
  C   C91       1.0  0.33042  0.74378  0.91892  1.0000
  Br  Br9       1.0  0.19483000000000003  0.7497199999999999  0.96164  1.0000
  C   C92       1.0  0.3451099999999999  0.72442  0.8568200000000001  1.0000
  C   C93       1.0  0.4450499999999999  0.72119  0.8252200000000002  1.0000
  C   C94       1.0  0.45895999999999987  0.7047999999999999  0.7569300000000001  1.0000
  F   F33       1.0  0.53122  0.64899  0.73787  1.0000
  F   F34       1.0  0.3653699999999998  0.68777  0.73573  1.0000
  C   C95       1.0  0.49712999999999996  0.76457  0.7302  1.0000
  F   F35       1.0  0.60496  0.7553699999999999  0.7172100000000002  1.0000
  F   F36       1.0  0.4719799999999999  0.8244499999999998  0.7711500000000001  1.0000
  C   C96       1.0  0.53089  0.73575  0.85802  1.0000
  H   H25       1.0  0.40050999999999987  0.7750100000000001  0.9986  1.0000
  H   H26       1.0  0.27717000000000014  0.71443  0.83364  1.0000
  H   H27       1.0  0.60862  0.73208  0.8345800000000001  1.0000
  C   C97       1.0  0.3499999999999999  0.7015199999999999  0.38393  1.0000
  C   C98       1.0  0.33964  0.63337  0.36399000000000004  1.0000
  C   C99       1.0  0.36287  0.6040199999999999  0.30366  1.0000
  Br  Br10      1.0  0.3432899999999999  0.51177  0.27684  1.0000
  C   C100      1.0  0.3975  0.64247  0.26285  1.0000
  C   C101      1.0  0.40873999999999994  0.71115  0.28217000000000003  1.0000
  C   C102      1.0  0.4400299999999999  0.75471  0.23811000000000002  1.0000
  F   F37       1.0  0.44968  0.71646  0.18052  1.0000
  F   F38       1.0  0.35986  0.80534  0.24179000000000006  1.0000
  C   C103      1.0  0.54364  0.7867099999999999  0.2504100000000001  1.0000
  F   F39       1.0  0.6063799999999998  0.7469199999999998  0.27857  1.0000
  F   F40       1.0  0.52181  0.8495599999999999  0.28695  1.0000
  C   C104      1.0  0.38589  0.7399099999999998  0.34309  1.0000
  H   H28       1.0  0.31270000000000003  0.6027099999999999  0.3945100000000001  1.0000
  H   H29       1.0  0.4132999999999999  0.6186099999999999  0.21615000000000004  1.0000
  H   H30       1.0  0.39364999999999994  0.7926899999999999  0.35862  1.0000
  C   C105      1.0  0.5918099999999998  0.19175  0.65148  1.0000
  C   C106      1.0  0.5458  0.14044999999999996  0.61651  1.0000
  C   C107      1.0  0.49475  0.09424  0.64329  1.0000
  Br  Br11      1.0  0.43217999999999995  0.02423  0.5955600000000001  1.0000
  C   C108      1.0  0.48647  0.10014999999999999  0.7052100000000001  1.0000
  C   C109      1.0  0.5290699999999998  0.15234000000000003  0.7419000000000001  1.0000
  C   C110      1.0  0.50442  0.15891000000000002  0.8093400000000001  1.0000
  F   F41       1.0  0.39627  0.16240999999999997  0.82005  1.0000
  F   F42       1.0  0.5455  0.09993  0.82382  1.0000
  C   C111      1.0  0.5418999999999998  0.21894000000000008  0.8528800000000002  1.0000
  F   F43       1.0  0.52031  0.27847000000000005  0.8338200000000001  1.0000
  F   F44       1.0  0.6480699999999997  0.20826  0.8562200000000001  1.0000
  C   C112      1.0  0.58552  0.19655999999999998  0.71412  1.0000
  H   H31       1.0  0.54966  0.13609999999999997  0.5685400000000002  1.0000
  H   H32       1.0  0.44394999999999996  0.06466  0.72505  1.0000
  H   H33       1.0  0.6225499999999998  0.23560999999999999  0.7406600000000001  1.0000
  C   C113      1.0  0.11564000000000002  0.77492  0.67916  1.0000
  C   C114      1.0  0.14444000000000004  0.84052  0.69051  1.0000
  C   C115      1.0  0.10790000000000001  0.8845399999999999  0.7437800000000001  1.0000
  Br  Br12      1.0  0.15414999999999998  0.97198  0.7608900000000002  1.0000
  C   C116      1.0  0.042469999999999966  0.8633999999999997  0.7864800000000002  1.0000
  C   C117      1.0  0.01709  0.7968199999999999  0.7782  1.0000
  C   C118      1.0  0.96299  0.77567  0.83204  1.0000
  F   F45       1.0  0.030169999999999992  0.7850599999999999  0.8757000000000001  1.0000
  F   F46       1.0  0.87326  0.8193799999999999  0.8516500000000002  1.0000
  C   C119      1.0  0.9338999999999998  0.70272  0.82585  1.0000
  F   F47       1.0  0.022420000000000006  0.65755  0.80951  1.0000
  F   F48       1.0  0.86342  0.68923  0.78439  1.0000
  C   C120      1.0  0.05064999999999999  0.7532699999999999  0.72312  1.0000
  H   H34       1.0  0.19539000000000004  0.8584299999999999  0.65881  1.0000
  H   H35       1.0  0.01455000000000003  0.8986599999999999  0.82743  1.0000
  H   H36       1.0  0.02902999999999999  0.70254  0.7146000000000001  1.0000
