data_image0
_chemical_formula_structural       Mn5CN8C2N8CN16Cl2C4Mn5CN8C2N8CN16Cl2C4Mn5CN8C2N8CN16Cl2C7BrC13H9C3BrC13H9C3BrC13H9C3BrC13H9C3BrC13H9C3BrC13H9C3BrC13H9C3BrC13H9C3BrC13H9C3BrC13H9C3BrC13H9C3BrC13H9
_chemical_formula_sum              "Mn15 C216 N96 Cl6 Br12 H108"
_cell_length_a       23.3091
_cell_length_b       17.9184
_cell_length_c       21.4331
_cell_angle_alpha    90.80080000000001
_cell_angle_beta     74.5376
_cell_angle_gamma    93.351

_symmetry_space_group_name_H-M    'P 1'
_symmetry_Int_Tables_number       1

loop_
  _symmetry_equiv_pos_as_xyz
  'x,y,z'

loop_
  _atom_site_type_symbol
  _atom_site_label
  _atom_site_symmetry_multiplicity
  _atom_site_fract_x
  _atom_site_fract_y
  _atom_site_fract_z
  _atom_site_occupancy
  Mn  Mn1       1.0  0.24932000000000007  0.3892700000000001  0.9322999999999999  1.0000
  Mn  Mn2       1.0  0.15740999999999997  0.48393  0.8651800000000001  1.0000
  Mn  Mn3       1.0  0.75896  0.53386  0.9869200000000001  1.0000
  Mn  Mn4       1.0  0.8575600000000001  0.50149  0.0769  1.0000
  Mn  Mn5       1.0  0.011559999999999992  0.50989  0.9785200000000002  1.0000
  C   C1        1.0  0.25558999999999993  0.30179000000000006  0.80675  1.0000
  N   N1        1.0  0.23220000000000002  0.3540900000000001  0.8503200000000001  1.0000
  N   N2        1.0  0.19156999999999993  0.3854800000000001  0.8283300000000001  1.0000
  N   N3        1.0  0.18881999999999996  0.3542  0.77301  1.0000
  N   N4        1.0  0.22790000000000002  0.30141  0.75855  1.0000
  N   N5        1.0  0.07115  0.42792  0.7897500000000001  1.0000
  N   N6        1.0  0.08009999999999999  0.45574000000000003  0.84479  1.0000
  N   N7        1.0  0.029179999999999935  0.46048000000000006  0.8891500000000001  1.0000
  N   N8        1.0  0.98539  0.43607  0.86482  1.0000
  C   C2        1.0  0.011110000000000016  0.41532  0.8034  1.0000
  C   C3        1.0  0.12906  0.69147  0.94018  1.0000
  N   N9        1.0  0.12659999999999996  0.58252  0.9033300000000001  1.0000
  N   N10       1.0  0.16155999999999998  0.64413  0.89765  1.0000
  N   N11       1.0  0.07991  0.4531200000000001  0.00197  1.0000
  N   N12       1.0  0.12696000000000002  0.43749  0.9536399999999999  1.0000
  N   N13       1.0  0.15936  0.38928  0.9718300000000001  1.0000
  N   N14       1.0  0.13273  0.3663900000000001  0.03066  1.0000
  N   N15       1.0  0.07413000000000003  0.5929400000000001  0.94474  1.0000
  N   N16       1.0  0.07429999999999998  0.66062  0.9692900000000001  1.0000
  C   C4        1.0  0.08511  0.40867  0.05301  1.0000
  N   N17       1.0  0.75354  0.5833300000000001  0.07307  1.0000
  N   N18       1.0  0.7960100000000001  0.5783800000000001  0.10360000000000001  1.0000
  N   N19       1.0  0.77329  0.59049  0.1659  1.0000
  N   N20       1.0  0.71664  0.60574  0.17673  1.0000
  N   N21       1.0  0.91825  0.60216  0.15664  1.0000
  N   N22       1.0  0.92527  0.56181  0.10312  1.0000
  N   N23       1.0  0.9826699999999999  0.56253  0.07066  1.0000
  N   N24       1.0  0.013749999999999932  0.606  0.10285000000000001  1.0000
  N   N25       1.0  0.96431  0.35222  0.9817600000000001  1.0000
  N   N26       1.0  0.95729  0.41837  0.01003  1.0000
  N   N27       1.0  0.90734  0.4161300000000001  0.0556  1.0000
  N   N28       1.0  0.8799900000000002  0.34915  0.058370000000000005  1.0000
  N   N29       1.0  0.9427  0.56372  0.9504900000000001  1.0000
  N   N30       1.0  0.8870599999999998  0.54694  0.9863900000000001  1.0000
  N   N31       1.0  0.84742  0.56623  0.95681  1.0000
  N   N32       1.0  0.87406  0.5999200000000002  0.9018700000000001  1.0000
  Cl  Cl1       1.0  0.24373000000000003  0.50654  0.89399  1.0000
  Cl  Cl2       1.0  0.78604  0.4379  0.03862999999999994  1.0000
  C   C5        1.0  0.70377  0.6006900000000001  0.11893  1.0000
  C   C6        1.0  0.97327  0.63133  0.15662  1.0000
  C   C7        1.0  0.9148600000000001  0.30967000000000006  0.0112  1.0000
  C   C8        1.0  0.93333  0.60097  0.89657  1.0000
  Mn  Mn6       1.0  0.5009  0.92473  0.24769  1.0000
  Mn  Mn7       1.0  0.51158  0.06303  0.13489  1.0000
  Mn  Mn8       1.0  0.47251999999999983  0.97579  0.71415  1.0000
  Mn  Mn9       1.0  0.49309  0.87847  0.83872  1.0000
  Mn  Mn10      1.0  0.50592  0.9852100000000001  0.97942  1.0000
  C   C9        1.0  0.63802  0.9693500000000002  0.20103  1.0000
  N   N33       1.0  0.58008  0.98093  0.20559  1.0000
  N   N34       1.0  0.58062  0.04377  0.174  1.0000
  N   N35       1.0  0.63558  0.07386000000000001  0.15514  1.0000
  N   N36       1.0  0.67248  0.028210000000000002  0.17029  1.0000
  N   N37       1.0  0.60817  0.13722  0.05712  1.0000
  N   N38       1.0  0.56912  0.09235  0.04784  1.0000
  N   N39       1.0  0.57479  0.06397  0.9899  1.0000
  N   N40       1.0  0.5945799999999999  0.10956000000000003  0.03489999999999993  1.0000
  C   C10       1.0  0.65619  0.14477  0.01281  1.0000
  C   C11       1.0  0.35938  0.08944  0.08083  1.0000
  N   N41       1.0  0.4430700000000001  0.07363  0.09634  1.0000
  N   N42       1.0  0.39047  0.09949  0.1255  1.0000
  N   N43       1.0  0.51797  0.92485  0.05572  1.0000
  N   N44       1.0  0.50862  0.95561  0.11318  1.0000
  N   N45       1.0  0.49322999999999995  0.9046600000000001  0.15877  1.0000
  N   N46       1.0  0.4915  0.8382000000000001  0.13348  1.0000
  N   N47       1.0  0.44346  0.04793000000000026  0.03819  1.0000
  N   N48       1.0  0.39178  0.05790000000000006  0.026500000000000003  1.0000
  C   C12       1.0  0.5097900000000001  0.8492800000000003  0.0688  1.0000
  N   N49       1.0  0.40798000000000006  0.9012100000000001  0.76298  1.0000
  N   N50       1.0  0.41518  0.8828800000000002  0.81943  1.0000
  N   N51       1.0  0.37204  0.9090100000000001  0.86611  1.0000
  N   N52       1.0  0.33136  0.9342900000000001  0.8418900000000001  1.0000
  N   N53       1.0  0.39678  0.8116100000000003  0.94273  1.0000
  N   N54       1.0  0.44530999999999993  0.85739  0.9302000000000001  1.0000
  N   N55       1.0  0.44048000000000004  0.90791  0.97584  1.0000
  N   N56       1.0  0.38855  0.8977300000000001  0.01965  1.0000
  N   N57       1.0  0.6215100000000002  0.9312200000000002  0.92216  1.0000
  N   N58       1.0  0.5676599999999999  0.9219900000000001  0.91862  1.0000
  N   N59       1.0  0.56822  0.8862900000000002  0.8642400000000001  1.0000
  N   N60       1.0  0.62396  0.87345  0.82975  1.0000
  N   N61       1.0  0.49122  0.03658  0.8966  1.0000
  N   N62       1.0  0.48937000000000014  0.9904200000000001  0.84743  1.0000
  N   N63       1.0  0.47539  0.024820000000000002  0.80029  1.0000
  N   N64       1.0  0.46504  0.09404  0.81659  1.0000
  Cl  Cl3       1.0  0.45262  0.028259999999999955  0.23406000000000002  1.0000
  Cl  Cl4       1.0  0.54025  0.89995  0.73315  1.0000
  C   C13       1.0  0.35125  0.9221  0.77799  1.0000
  C   C14       1.0  0.36163000000000006  0.83785  0.9981000000000001  1.0000
  C   C15       1.0  0.6583200000000002  0.90314  0.86723  1.0000
  C   C16       1.0  0.47408  0.10353  0.8757400000000001  1.0000
  Mn  Mn11      1.0  0.21217  0.11918  0.57273  1.0000
  Mn  Mn12      1.0  0.13818  0.98143  0.51133  1.0000
  Mn  Mn13      1.0  0.77069  0.9813900000000001  0.4087700000000001  1.0000
  Mn  Mn14      1.0  0.8633800000000001  0.11139  0.45519  1.0000
  Mn  Mn15      1.0  0.99788  0.03565000000000001  0.48158  1.0000
  C   C17       1.0  0.20882999999999996  0.99586  0.66158  1.0000
  N   N65       1.0  0.17925  0.024990000000000005  0.62274  1.0000
  N   N66       1.0  0.16443999999999998  0.96794  0.58982  1.0000
  N   N67       1.0  0.1986100000000001  0.91276  0.5923  1.0000
  N   N68       1.0  0.22844000000000006  0.9298300000000002  0.63533  1.0000
  N   N69       1.0  0.052039999999999975  0.86214  0.5823600000000001  1.0000
  N   N70       1.0  0.05847000000000001  0.9238600000000001  0.54684  1.0000
  N   N71       1.0  0.007080000000000012  0.9403100000000001  0.53581  1.0000
  N   N72       1.0  0.9657499999999999  0.88793  0.56422  1.0000
  C   C18       1.0  0.9938400000000001  0.84006  0.59463  1.0000
  C   C19       1.0  0.14419999999999997  0.98596  0.32895  1.0000
  N   N73       1.0  0.12296000000000001  0.99352  0.42909  1.0000
  N   N74       1.0  0.16620999999999997  0.97832  0.37903  1.0000
  N   N75       1.0  0.04852  0.10196  0.53537  1.0000
  N   N76       1.0  0.10000999999999999  0.07772  0.54079  1.0000
  N   N77       1.0  0.12918  0.12850000000000006  0.56688  1.0000
  N   N78       1.0  0.09782999999999996  0.18655  0.5848100000000002  1.0000
  N   N79       1.0  0.07483999999999999  0.01008  0.41289  1.0000
  N   N80       1.0  0.08676999999999999  0.006950000000000001  0.3485  1.0000
  C   C20       1.0  0.04699  0.17152  0.56741  1.0000
  N   N81       1.0  0.80188  0.07688000000000006  0.35822  1.0000
  N   N82       1.0  0.84018  0.12477000000000002  0.37367000000000006  1.0000
  N   N83       1.0  0.85217  0.18215000000000003  0.33325  1.0000
  N   N84       1.0  0.82497  0.16851  0.2869  1.0000
  N   N85       1.0  0.95802  0.20723  0.37287  1.0000
  N   N86       1.0  0.94553  0.15091  0.4141  1.0000
  N   N87       1.0  0.9943400000000001  0.12713  0.42550000000000004  1.0000
  N   N88       1.0  0.0409  0.16885000000000003  0.39183  1.0000
  N   N89       1.0  0.9049299999999999  0.04668000000000006  0.61527  1.0000
  N   N90       1.0  0.9211399999999998  0.060939999999999994  0.5517  1.0000
  N   N91       1.0  0.88079  0.10111  0.53796  1.0000
  N   N92       1.0  0.83901  0.1165  0.58964  1.0000
  N   N93       1.0  0.94258  0.9784700000000001  0.42762000000000006  1.0000
  N   N94       1.0  0.8897699999999997  0.006359999999999921  0.43174000000000007  1.0000
  N   N95       1.0  0.8545399999999999  0.9585600000000001  0.41062  1.0000
  N   N96       1.0  0.88343  0.8994300000000001  0.38661  1.0000
  Cl  Cl5       1.0  0.22505  0.05125  0.47907  1.0000
  Cl  Cl6       1.0  0.77  0.05743000000000032  0.49596000000000007  1.0000
  C   C21       1.0  0.7933600000000001  0.10268999999999996  0.30332  1.0000
  C   C22       1.0  0.01743000000000007  0.21724  0.35821  1.0000
  C   C23       1.0  0.85339  0.08298  0.63764  1.0000
  C   C24       1.0  0.9396  0.9122900000000002  0.39294000000000007  1.0000
  C   C25       1.0  0.0031300000000000806  0.23232000000000003  0.58437  1.0000
  C   C26       1.0  0.96623  0.24833000000000002  0.54578  1.0000
  C   C27       1.0  0.93789  0.3152  0.55177  1.0000
  Br  Br1       1.0  0.8905499999999998  0.33613  0.49451  1.0000
  C   C28       1.0  0.9452600000000001  0.3679  0.5979100000000002  1.0000
  C   C29       1.0  0.9808100000000001  0.3549900000000001  0.64077  1.0000
  C   C30       1.0  0.9872299999999999  0.4129  0.69261  1.0000
  C   C31       1.0  0.96081  0.48033  0.68677  1.0000
  C   C32       1.0  0.9006399999999999  0.48564000000000007  0.72232  1.0000
  C   C33       1.0  0.8640699999999998  0.5363  0.70575  1.0000
  C   C34       1.0  0.8038200000000001  0.53698  0.74019  1.0000
  C   C35       1.0  0.77936  0.486  0.79  1.0000
  C   C36       1.0  0.81496  0.4337200000000001  0.80587  1.0000
  C   C37       1.0  0.87542  0.43373  0.77237  1.0000
  C   C38       1.0  0.9129  0.38696  0.79139  1.0000
  C   C39       1.0  0.97406  0.3896000000000001  0.75854  1.0000
  C   C40       1.0  0.008709999999999994  0.28592  0.63353  1.0000
  H   H1        1.0  0.9614800000000002  0.2111  0.50904  1.0000
  H   H2        1.0  0.9222799999999999  0.41878  0.5998  1.0000
  H   H3        1.0  0.9782500000000001  0.51421  0.64375  1.0000
  H   H4        1.0  0.88215  0.5729800000000003  0.66507  1.0000
  H   H5        1.0  0.77505  0.57523  0.72774  1.0000
  H   H6        1.0  0.7326499999999999  0.48659  0.8157800000000001  1.0000
  H   H7        1.0  0.79539  0.39297  0.8436100000000001  1.0000
  H   H8        1.0  0.89752  0.36591  0.8401  1.0000
  H   H9        1.0  0.03668  0.27483  0.66504  1.0000
  C   C41       1.0  0.7860900000000001  0.048049999999999926  0.2561  1.0000
  C   C42       1.0  0.84033  0.017859999999999987  0.2238  1.0000
  C   C43       1.0  0.84481  0.94143  0.22784  1.0000
  Br  Br2       1.0  0.9165200000000001  0.89501  0.18888  1.0000
  C   C44       1.0  0.7948500000000001  0.89719  0.25845  1.0000
  C   C45       1.0  0.73727  0.92439  0.26688  1.0000
  C   C46       1.0  0.68902  0.8729800000000001  0.25229  1.0000
  C   C47       1.0  0.7031500000000004  0.79761  0.24953  1.0000
  C   C48       1.0  0.7360399999999999  0.7747900000000001  0.18839  1.0000
  C   C49       1.0  0.7918800000000001  0.74411  0.1801600000000001  1.0000
  C   C50       1.0  0.8293799999999999  0.73516  0.1179300000000001  1.0000
  C   C51       1.0  0.8079800000000003  0.7466800000000002  0.06420000000000003  1.0000
  C   C52       1.0  0.7538  0.78028  0.07232  1.0000
  C   C53       1.0  0.7204999999999999  0.8010200000000002  0.13395000000000004  1.0000
  C   C54       1.0  0.67862  0.85632  0.14264  1.0000
  C   C55       1.0  0.66285  0.8950800000000001  0.20256000000000002  1.0000
  C   C56       1.0  0.73322  0.002040000000000042  0.27132  1.0000
  H   H10       1.0  0.8810699999999999  0.05366000000000005  0.20833  1.0000
  H   H11       1.0  0.80147  0.8397  0.26814  1.0000
  H   H12       1.0  0.71267  0.77383  0.2914  1.0000
  H   H13       1.0  0.8072099999999999  0.72875  0.2216100000000001  1.0000
  H   H14       1.0  0.87366  0.7156  0.11153999999999997  1.0000
  H   H15       1.0  0.8350300000000002  0.73302  0.01611000000000007  1.0000
  H   H16       1.0  0.74165  0.79554  0.030220000000000004  1.0000
  H   H17       1.0  0.6659199999999998  0.87595  0.10067  1.0000
  H   H18       1.0  0.69012  0.025640000000000107  0.2911  1.0000
  C   C57       1.0  0.9853500000000001  0.8882900000000002  0.33334  1.0000
  C   C58       1.0  0.00925  0.94265  0.28608  1.0000
  C   C59       1.0  0.040379999999999985  0.92384  0.22334000000000004  1.0000
  Br  Br3       1.0  0.06986999999999999  0.0044399999999999995  0.16426  1.0000
  C   C60       1.0  0.044330000000000015  0.8485000000000001  0.20365  1.0000
  C   C61       1.0  0.01552999999999999  0.79117  0.24691000000000002  1.0000
  C   C62       1.0  0.029919999999999985  0.7105500000000001  0.23082000000000003  1.0000
  C   C63       1.0  0.06935000000000001  0.6906  0.26636  1.0000
  C   C64       1.0  0.05501999999999999  0.62974  0.30872  1.0000
  C   C65       1.0  0.08764  0.61942  0.35386  1.0000
  C   C66       1.0  0.06717000000000002  0.56647  0.40306  1.0000
  C   C67       1.0  0.016840000000000004  0.5194900000000001  0.4045  1.0000
  C   C68       1.0  0.9858  0.5267  0.35765  1.0000
  C   C69       1.0  0.0033800000000000076  0.5837900000000003  0.31116  1.0000
  C   C70       1.0  0.97147  0.59391  0.26563  1.0000
  C   C71       1.0  0.9875  0.65256  0.22017  1.0000
  C   C72       1.0  0.98736  0.81227  0.31246  1.0000
  H   H19       1.0  0.0018700000000000001  0.001100000000000101  0.29714  1.0000
  H   H20       1.0  0.06831999999999998  0.83453  0.15461  1.0000
  H   H21       1.0  0.10371000000000001  0.73156  0.27227  1.0000
  H   H22       1.0  0.12800000000000003  0.65338  0.35201  1.0000
  H   H23       1.0  0.09081  0.56155  0.43979000000000007  1.0000
  H   H24       1.0  0.0025500000000000106  0.47661000000000003  0.44127  1.0000
  H   H25       1.0  0.9470899999999999  0.48950000000000005  0.35906  1.0000
  H   H26       1.0  0.93668  0.55231  0.2625  1.0000
  H   H27       1.0  0.96704  0.76951  0.34763  1.0000
  C   C73       1.0  0.18033  0.96131  0.26563  1.0000
  C   C74       1.0  0.21663000000000002  0.90127  0.2668  1.0000
  C   C75       1.0  0.26701  0.8902900000000002  0.21626  1.0000
  Br  Br4       1.0  0.32145  0.8188  0.22646  1.0000
  C   C76       1.0  0.28017  0.9364900000000002  0.16192  1.0000
  C   C77       1.0  0.24438000000000004  0.99578  0.15942  1.0000
  C   C78       1.0  0.25461  0.042580000000000284  0.10141  1.0000
  C   C79       1.0  0.21135  0.03515000000000002  0.06757  1.0000
  C   C80       1.0  0.20235  0.0938000000000001  0.03024  1.0000
  C   C81       1.0  0.15788000000000002  0.08657000000000004  0.9975  1.0000
  C   C82       1.0  0.14652999999999997  0.14680000000000004  0.96322  1.0000
  C   C83       1.0  0.18039000000000008  0.21392999999999995  0.96042  1.0000
  C   C84       1.0  0.22533  0.22202  0.99269  1.0000
  C   C85       1.0  0.23734000000000002  0.16144000000000003  0.02692  1.0000
  C   C86       1.0  0.2855  0.16554000000000005  0.05486  1.0000
  C   C87       1.0  0.29661  0.10414  0.08906  1.0000
  C   C88       1.0  0.19471000000000002  0.008529999999999928  0.21186  1.0000
  H   H28       1.0  0.2093  0.86819  0.31066  1.0000
  H   H29       1.0  0.31873  0.9270100000000001  0.12298000000000002  1.0000
  H   H30       1.0  0.18276  0.9847400000000001  0.07347  1.0000
  H   H31       1.0  0.13223999999999997  0.03449000000000013  0.9983  1.0000
  H   H32       1.0  0.11188000000000002  0.14145000000000008  0.93819  1.0000
  H   H33       1.0  0.17171000000000006  0.2591300000000003  0.93242  1.0000
  H   H34       1.0  0.2508  0.27497  0.99076  1.0000
  H   H35       1.0  0.31696  0.21388  0.04588  1.0000
  H   H36       1.0  0.16947  0.05749  0.21236  1.0000
  C   C89       1.0  0.048560000000000006  0.28574  0.32574  1.0000
  C   C90       1.0  0.08181000000000001  0.32959000000000005  0.35904  1.0000
  C   C91       1.0  0.11108999999999998  0.39581  0.33237  1.0000
  Br  Br5       1.0  0.16801  0.44322  0.37194  1.0000
  C   C92       1.0  0.10471  0.42136000000000007  0.27328  1.0000
  C   C93       1.0  0.07486  0.37605  0.23549  1.0000
  C   C94       1.0  0.09884  0.38194  0.16313  1.0000
  C   C95       1.0  0.16022999999999998  0.36844  0.14754  1.0000
  C   C96       1.0  0.20163  0.42615000000000003  0.11869  1.0000
  C   C97       1.0  0.26308  0.41792  0.1059  1.0000
  C   C98       1.0  0.30327  0.47602  0.07605  1.0000
  C   C99       1.0  0.28232  0.54171  0.05806  1.0000
  C   C100      1.0  0.22122  0.55063  0.07136  1.0000
  C   C101      1.0  0.18044  0.49439  0.10358000000000002  1.0000
  C   C102      1.0  0.11862000000000002  0.5016700000000002  0.11455  1.0000
  C   C103      1.0  0.0819  0.43556  0.12177  1.0000
  C   C104      1.0  0.04517  0.30838000000000004  0.26361  1.0000
  H   H37       1.0  0.08526999999999998  0.31175  0.40596000000000004  1.0000
  H   H38       1.0  0.13102999999999998  0.47085  0.25224  1.0000
  H   H39       1.0  0.17524000000000003  0.32163  0.1695  1.0000
  H   H40       1.0  0.27974  0.36653  0.11838  1.0000
  H   H41       1.0  0.35073  0.46959000000000006  0.06603000000000003  1.0000
  H   H42       1.0  0.31346  0.58571  0.033519999999999994  1.0000
  H   H43       1.0  0.20576000000000003  0.60065  0.05525000000000002  1.0000
  H   H44       1.0  0.10550999999999998  0.55042  0.09453  1.0000
  H   H45       1.0  0.023839999999999997  0.27065  0.23545  1.0000
  C   C105      1.0  0.54986  0.7912700000000003  0.03496  1.0000
  C   C106      1.0  0.54306  0.7549700000000001  0.9791500000000001  1.0000
  C   C107      1.0  0.56706  0.68539  0.96169  1.0000
  Br  Br6       1.0  0.5517300000000002  0.6358400000000001  0.8876799999999999  1.0000
  C   C108      1.0  0.59394  0.64827  0.00313  1.0000
  C   C109      1.0  0.60083  0.68308  0.06008  1.0000
  C   C110      1.0  0.60177  0.63801  0.11792  1.0000
  C   C111      1.0  0.55176  0.64426  0.17176  1.0000
  C   C112      1.0  0.53514  0.58879  0.21857000000000001  1.0000
  C   C113      1.0  0.48715  0.5982600000000001  0.27343  1.0000
  C   C114      1.0  0.46852000000000005  0.54072  0.31868  1.0000
  C   C115      1.0  0.4971  0.47341000000000005  0.30878  1.0000
  C   C116      1.0  0.5458  0.46431000000000006  0.25475  1.0000
  C   C117      1.0  0.56556  0.52227  0.20925  1.0000
  C   C118      1.0  0.61732  0.51753  0.15752  1.0000
  C   C119      1.0  0.64116  0.5802700000000002  0.1177  1.0000
  C   C120      1.0  0.58289  0.7563700000000001  0.07195  1.0000
  H   H46       1.0  0.5156600000000001  0.77681  0.95176  1.0000
  H   H47       1.0  0.60267  0.59007  0.99498  1.0000
  H   H48       1.0  0.52243  0.69006  0.17526  1.0000
  H   H49       1.0  0.4642  0.65016  0.28124000000000005  1.0000
  H   H50       1.0  0.4319  0.54841  0.36137  1.0000
  H   H51       1.0  0.48205  0.42888  0.34399  1.0000
  H   H52       1.0  0.56754  0.41209  0.2486  1.0000
  H   H53       1.0  0.64402  0.4696000000000001  0.15531  1.0000
  H   H54       1.0  0.58684  0.78176  0.11671000000000001  1.0000
  C   C121      1.0  0.88754  0.25555  0.97342  1.0000
  C   C122      1.0  0.9202500000000001  0.24123  0.9098600000000001  1.0000
  C   C123      1.0  0.8901  0.23138  0.86214  1.0000
  Br  Br7       1.0  0.9313  0.21609  0.77489  1.0000
  C   C124      1.0  0.8282399999999999  0.23413000000000003  0.8789700000000001  1.0000
  C   C125      1.0  0.79782  0.2126  0.942  1.0000
  C   C126      1.0  0.77636  0.13299000000000002  0.94373  1.0000
  C   C127      1.0  0.82467  0.07928000000000002  0.8802000000000001  1.0000
  C   C128      1.0  0.8094399999999999  0.9819700000000001  0.8696  1.0000
  C   C129      1.0  0.83463  0.9100000000000001  0.81206  1.0000
  C   C130      1.0  0.79846  0.8193300000000002  0.81857  1.0000
  C   C131      1.0  0.7353800000000001  0.7846900000000002  0.88055  1.0000
  C   C132      1.0  0.6958200000000002  0.8342000000000002  0.9495600000000001  1.0000
  C   C133      1.0  0.7132799999999997  0.93101  0.9610300000000002  1.0000
  C   C134      1.0  0.6811  0.0003400000000000001  0.013859999999999983  1.0000
  C   C135      1.0  0.7079800000000002  0.09645  0.0042400000000000215  1.0000
  C   C136      1.0  0.82514  0.23685000000000003  0.9907700000000002  1.0000
  H   H55       1.0  0.96827  0.24827000000000005  0.8960800000000001  1.0000
  H   H56       1.0  0.80504  0.23026000000000002  0.84159  1.0000
  H   H57       1.0  0.82298  0.023  0.8659500000000001  1.0000
  H   H58       1.0  0.87295  0.9209800000000001  0.77292  1.0000
  H   H59       1.0  0.81373  0.78356  0.77945  1.0000
  H   H60       1.0  0.7185600000000003  0.72852  0.87409  1.0000
  H   H61       1.0  0.6595200000000002  0.80573  0.98198  1.0000
  H   H62       1.0  0.63841  0.98387  0.04793  1.0000
  H   H63       1.0  0.79809  0.24262  0.04047  1.0000
  C   C137      1.0  0.30685  0.8830800000000002  0.7511  1.0000
  C   C138      1.0  0.31841  0.82  0.71135  1.0000
  C   C139      1.0  0.27102  0.7791100000000001  0.6958  1.0000
  Br  Br8       1.0  0.28835999999999995  0.69533  0.63907  1.0000
  C   C140      1.0  0.21259000000000006  0.8035700000000002  0.71757  1.0000
  C   C141      1.0  0.20221999999999998  0.86853  0.75604  1.0000
  C   C142      1.0  0.15518  0.91987  0.755  1.0000
  C   C143      1.0  0.09621999999999993  0.89591  0.7591  1.0000
  C   C144      1.0  0.057039999999999993  0.9488800000000001  0.74991  1.0000
  C   C145      1.0  0.004930000000000117  0.9261700000000002  0.7329  1.0000
  C   C146      1.0  0.9750100000000002  0.9787300000000001  0.70796  1.0000
  C   C147      1.0  0.99201  0.054710000000000036  0.70816  1.0000
  C   C148      1.0  0.03885999999999992  0.07895  0.73358  1.0000
  C   C149      1.0  0.07449000000000001  0.026299999999999994  0.74951  1.0000
  C   C150      1.0  0.13297  0.04805  0.74977  1.0000
  C   C151      1.0  0.17449999999999993  0.99328  0.7313200000000001  1.0000
  C   C152      1.0  0.24858999999999998  0.90252  0.7767100000000001  1.0000
  H   H64       1.0  0.36352  0.80216  0.6935  1.0000
  H   H65       1.0  0.17798  0.77773  0.6982  1.0000
  H   H66       1.0  0.08316  0.83674  0.76296  1.0000
  H   H67       1.0  0.99147  0.86737  0.73188  1.0000
  H   H68       1.0  0.9397100000000003  0.95987  0.68667  1.0000
  H   H69       1.0  0.9705899999999998  0.09497  0.68647  1.0000
  H   H70       1.0  0.051630000000000044  0.13803  0.73322  1.0000
  H   H71       1.0  0.14819  0.10595  0.73895  1.0000
  H   H72       1.0  0.23992999999999998  0.9514600000000001  0.8076  1.0000
  C   C153      1.0  0.97427  0.63763  0.83445  1.0000
  C   C154      1.0  0.03323000000000009  0.6205  0.80782  1.0000
  C   C155      1.0  0.06465000000000008  0.6443100000000002  0.7452  1.0000
  Br  Br9       1.0  0.1430499999999999  0.61163  0.71016  1.0000
  C   C156      1.0  0.037799999999999834  0.6855800000000001  0.7061100000000001  1.0000
  C   C157      1.0  0.97859  0.70596  0.72912  1.0000
  C   C158      1.0  0.94428  0.7355800000000002  0.68196  1.0000
  C   C159      1.0  0.8828899999999998  0.71371  0.69756  1.0000
  C   C160      1.0  0.85022  0.71028  0.6513  1.0000
  C   C161      1.0  0.7877499999999998  0.69962  0.66959  1.0000
  C   C162      1.0  0.75669  0.68661  0.62269  1.0000
  C   C163      1.0  0.7875400000000001  0.68612  0.55717  1.0000
  C   C164      1.0  0.8496  0.6989  0.53837  1.0000
  C   C165      1.0  0.88113  0.71165  0.58546  1.0000
  C   C166      1.0  0.94219  0.7313200000000002  0.56804  1.0000
  C   C167      1.0  0.96958  0.7609800000000002  0.61507  1.0000
  C   C168      1.0  0.94908  0.6846100000000002  0.79549  1.0000
  H   H73       1.0  0.05461999999999999  0.58626  0.83385  1.0000
  H   H74       1.0  0.062419999999999906  0.6983700000000003  0.65666  1.0000
  H   H75       1.0  0.8603999999999999  0.69041  0.74427  1.0000
  H   H76       1.0  0.7629600000000001  0.70053  0.72017  1.0000
  H   H77       1.0  0.7086600000000001  0.67674  0.63728  1.0000
  H   H78       1.0  0.7630599999999998  0.67737  0.52099  1.0000
  H   H79       1.0  0.87253  0.7003400000000001  0.48723  1.0000
  H   H80       1.0  0.9638  0.74142  0.51713  1.0000
  H   H81       1.0  0.90488  0.70262  0.81752  1.0000
  C   C169      1.0  0.81211  0.08875  0.70288  1.0000
  C   C170      1.0  0.78931  0.16006  0.71866  1.0000
  C   C171      1.0  0.73309  0.16693  0.76169  1.0000
  Br  Br10      1.0  0.70314  0.26271  0.7884200000000001  1.0000
  C   C172      1.0  0.70061  0.10359  0.79146  1.0000
  C   C173      1.0  0.72814  0.03517  0.7882100000000001  1.0000
  C   C174      1.0  0.7142700000000001  0.99081  0.8502200000000001  1.0000
  C   C175      1.0  0.7235900000000001  0.03711  0.9056400000000001  1.0000
  C   C176      1.0  0.78614  0.00865  0.9758900000000001  1.0000
  C   C177      1.0  0.80523  0.050010000000000006  0.028070000000000043  1.0000
  C   C178      1.0  0.84087  0.023490000000000004  0.06393  1.0000
  C   C179      1.0  0.86308  0.95365  0.053500000000000006  1.0000
  C   C180      1.0  0.8517800000000001  0.90757  0.005589999999999984  1.0000
  C   C181      1.0  0.81399  0.9285900000000001  0.96947  1.0000
  C   C182      1.0  0.7965700000000001  0.8731900000000001  0.92006  1.0000
  C   C183      1.0  0.7298599999999997  0.91112  0.85505  1.0000
  C   C184      1.0  0.78094  0.02597  0.7378900000000002  1.0000
  H   H82       1.0  0.81386  0.20964  0.69373  1.0000
  H   H83       1.0  0.65843  0.11175  0.82702  1.0000
  H   H84       1.0  0.69969  0.08712  0.90322  1.0000
  H   H85       1.0  0.79385  0.10562000000000003  0.044480000000000075  1.0000
  H   H86       1.0  0.85349  0.05986  0.09939000000000002  1.0000
  H   H87       1.0  0.8923700000000001  0.9358900000000001  0.08066  1.0000
  H   H88       1.0  0.8744099999999999  0.85598  0.99487  1.0000
  H   H89       1.0  0.81477  0.8185800000000001  0.92317  1.0000
  H   H90       1.0  0.79714  0.97121  0.72613  1.0000
  C   C185      1.0  0.29876  0.8114  0.02580000000000005  1.0000
  C   C186      1.0  0.28455  0.76741  0.08142  1.0000
  C   C187      1.0  0.22635  0.73823  0.10774000000000002  1.0000
  Br  Br11      1.0  0.21008  0.67802  0.18392  1.0000
  C   C188      1.0  0.18148  0.7510000000000002  0.07738  1.0000
  C   C189      1.0  0.19450000000000003  0.7953900000000003  0.02139000000000002  1.0000
  C   C190      1.0  0.14661999999999997  0.8122600000000001  0.99043  1.0000
  C   C191      1.0  0.10938  0.87077  0.0138100000000001  1.0000
  C   C192      1.0  0.06728  0.8906600000000002  0.98159  1.0000
  C   C193      1.0  0.02952  0.94889  0.0037100000000001025  1.0000
  C   C194      1.0  0.99107  0.96998  0.9677  1.0000
  C   C195      1.0  0.98285  0.9258800000000001  0.9161100000000001  1.0000
  C   C196      1.0  0.017349999999999994  0.8649200000000002  0.89672  1.0000
  C   C197      1.0  0.06363  0.8525100000000002  0.9246800000000001  1.0000
  C   C198      1.0  0.10436  0.7999  0.89841  1.0000
  C   C199      1.0  0.13866  0.77201  0.93601  1.0000
  C   C200      1.0  0.2533  0.82629  0.99606  1.0000
  H   H91       1.0  0.31943000000000005  0.75431  0.10335000000000001  1.0000
  H   H92       1.0  0.13715999999999998  0.72506  0.09662  1.0000
  H   H93       1.0  0.11266  0.89959  0.0571299999999999  1.0000
  H   H94       1.0  0.030789999999999998  0.9794  0.04730999999999996  1.0000
  H   H95       1.0  0.9659299999999998  0.01912000000000003  0.98141  1.0000
  H   H96       1.0  0.94928  0.93822  0.8917700000000001  1.0000
  H   H97       1.0  0.008730000000000005  0.82818  0.85943  1.0000
  H   H98       1.0  0.1014  0.7706  0.8544600000000001  1.0000
  H   H99       1.0  0.26314  0.86144  0.95343  1.0000
  C   C201      1.0  0.31196  0.26287  0.80149  1.0000
  C   C202      1.0  0.33816  0.23009000000000002  0.74149  1.0000
  C   C203      1.0  0.3966100000000001  0.20870000000000005  0.72653  1.0000
  Br  Br12      1.0  0.43332  0.17174000000000006  0.64212  1.0000
  C   C204      1.0  0.42901  0.21643000000000004  0.77224  1.0000
  C   C205      1.0  0.40120999999999996  0.23344  0.8370400000000001  1.0000
  C   C206      1.0  0.43973  0.24104  0.8837300000000001  1.0000
  C   C207      1.0  0.45231  0.31597  0.8982  1.0000
  C   C208      1.0  0.5008899999999998  0.33709  0.9219500000000002  1.0000
  C   C209      1.0  0.5199  0.41282  0.92247  1.0000
  C   C210      1.0  0.5723400000000001  0.43353  0.93932  1.0000
  C   C211      1.0  0.6048  0.37964  0.9586600000000001  1.0000
  C   C212      1.0  0.5860999999999996  0.30409  0.9585700000000001  1.0000
  C   C213      1.0  0.5347099999999999  0.28196  0.93879  1.0000
  C   C214      1.0  0.51997  0.20594000000000004  0.93018  1.0000
  C   C215      1.0  0.47400000000000003  0.18274  0.90167  1.0000
  C   C216      1.0  0.34348999999999985  0.26323  0.8501400000000001  1.0000
  H   H100      1.0  0.3148  0.22579000000000002  0.70407  1.0000
  H   H101      1.0  0.47636000000000006  0.20781  0.75689  1.0000
  H   H102      1.0  0.42879000000000006  0.3596  0.88275  1.0000
  H   H103      1.0  0.49607999999999997  0.45544  0.90631  1.0000
  H   H104      1.0  0.58867  0.4911  0.9354600000000001  1.0000
  H   H105      1.0  0.64545  0.39626  0.97171  1.0000
  H   H106      1.0  0.61331  0.26303  0.9710500000000001  1.0000
  H   H107      1.0  0.5503000000000001  0.1658  0.93641  1.0000
  H   H108      1.0  0.32535000000000003  0.2897200000000001  0.89624  1.0000
