data_image0
_chemical_formula_structural       Mn5CN8C2N8CN16Cl2C4Mn5CN8C2N8CN16Cl2C4Mn5CN8C2N8CN16Cl2C7NC5ClC3ClCH7C3NC5ClC3ClCH7C3NC5ClC3ClCH7C3NC5ClC3ClCH7C3NC5ClC3ClCH7C3NC5ClC3ClCH7C3NC5ClC3ClCH7C3NC5ClC3ClCH7C3NC5ClC3ClCH7C3NC5ClC3ClCH7C3NC5ClC3ClCH7C3NC5ClC3ClCH7
_chemical_formula_sum              "Mn15 C168 N108 Cl30 H84"
_cell_length_a       27.9088
_cell_length_b       20.4663
_cell_length_c       23.962499999999995
_cell_angle_alpha    88.77129999999998
_cell_angle_beta     81.4782
_cell_angle_gamma    95.35880000000002

_symmetry_space_group_name_H-M    'P 1'
_symmetry_Int_Tables_number       1

loop_
  _symmetry_equiv_pos_as_xyz
  'x,y,z'

loop_
  _atom_site_type_symbol
  _atom_site_label
  _atom_site_symmetry_multiplicity
  _atom_site_fract_x
  _atom_site_fract_y
  _atom_site_fract_z
  _atom_site_occupancy
  Mn  Mn1       1.0  0.19344999999999998  0.46142999999999995  0.031019999999999992  1.0000
  Mn  Mn2       1.0  0.12089999999999995  0.4948199999999999  0.9316  1.0000
  Mn  Mn3       1.0  0.8215300000000001  0.64799  0.97785  1.0000
  Mn  Mn4       1.0  0.8775799999999999  0.55408  0.06324  1.0000
  Mn  Mn5       1.0  0.99781  0.51326  0.99857  1.0000
  C   C1        1.0  0.2143899999999999  0.36040999999999995  0.94234  1.0000
  N   N1        1.0  0.18334999999999993  0.40088999999999997  0.9672199999999999  1.0000
  N   N2        1.0  0.15244  0.40974  0.9315  1.0000
  N   N3        1.0  0.16232000000000002  0.37367  0.8869699999999999  1.0000
  N   N4        1.0  0.20077999999999988  0.34203  0.89267  1.0000
  N   N5        1.0  0.06395  0.41234  0.86305  1.0000
  N   N6        1.0  0.06178  0.45495  0.90348  1.0000
  N   N7        1.0  0.01626000000000003  0.46062  0.9262899999999997  1.0000
  N   N8        1.0  0.9873000000000001  0.417  0.9033699999999998  1.0000
  C   C2        1.0  0.017459999999999996  0.3897599999999999  0.86246  1.0000
  C   C3        1.0  0.10600999999999995  0.67069  0.97144  1.0000
  N   N9        1.0  0.09169999999999999  0.57926  0.9345899999999999  1.0000
  N   N10       1.0  0.12293999999999994  0.63204  0.93018  1.0000
  N   N11       1.0  0.04543  0.46057  0.03532  1.0000
  N   N12       1.0  0.09177  0.4709  0.012889999999999997  1.0000
  N   N13       1.0  0.1202  0.45949  0.05046999999999999  1.0000
  N   N14       1.0  0.09349999999999997  0.43973  0.09886999999999997  1.0000
  N   N15       1.0  0.05442000000000002  0.58627  0.9738199999999999  1.0000
  N   N16       1.0  0.06289999999999998  0.6422499999999999  0.9995499999999999  1.0000
  C   C4        1.0  0.04657  0.43988999999999995  0.09018999999999999  1.0000
  N   N17       1.0  0.83458  0.67709  0.05345999999999999  1.0000
  N   N18       1.0  0.8581099999999998  0.64378  0.08612  1.0000
  N   N19       1.0  0.85255  0.66768  0.13739  1.0000
  N   N20       1.0  0.82513  0.71763  0.13818999999999998  1.0000
  N   N21       1.0  0.93859  0.59765  0.14604  1.0000
  N   N22       1.0  0.9376299999999997  0.56879  0.09776999999999997  1.0000
  N   N23       1.0  0.98213  0.56032  0.07340999999999999  1.0000
  N   N24       1.0  0.013730000000000022  0.58247  0.10676999999999998  1.0000
  N   N25       1.0  0.93469  0.38089  0.01759  1.0000
  N   N26       1.0  0.9386800000000001  0.44560999999999995  0.023849999999999996  1.0000
  N   N27       1.0  0.89488  0.46474  0.039869999999999996  1.0000
  N   N28       1.0  0.86129  0.41489  0.04341999999999999  1.0000
  N   N29       1.0  0.9515  0.56981  0.9597599999999998  1.0000
  N   N30       1.0  0.91326  0.59249  0.99032  1.0000
  N   N31       1.0  0.8928699999999999  0.6334800000000002  0.9602799999999998  1.0000
  N   N32       1.0  0.9173800000000001  0.641  0.90929  1.0000
  Cl  Cl1       1.0  0.18793000000000004  0.5402799999999999  0.9660199999999999  1.0000
  Cl  Cl2       1.0  0.8108400000000001  0.54488  0.018819999999999837  1.0000
  C   C5        1.0  0.8138899999999998  0.72214  0.08540999999999997  1.0000
  C   C6        1.0  0.9856999999999999  0.60542  0.15213999999999997  1.0000
  C   C7        1.0  0.88581  0.3632699999999999  0.0289  1.0000
  C   C8        1.0  0.95341  0.60101  0.90771  1.0000
  Mn  Mn6       1.0  0.51992  0.9659499999999999  0.2138  1.0000
  Mn  Mn7       1.0  0.48399  0.07500999999999998  0.11970999999999998  1.0000
  Mn  Mn8       1.0  0.40196000000000004  0.0005900000000000052  0.7695599999999998  1.0000
  Mn  Mn9       1.0  0.46384  0.91154  0.8539099999999998  1.0000
  Mn  Mn10      1.0  0.48557999999999996  0.0033899999999999994  0.98039  1.0000
  C   C9        1.0  0.59945  0.08211  0.20542999999999997  1.0000
  N   N33       1.0  0.5575  0.05421000000000009  0.19188  1.0000
  N   N34       1.0  0.54247  0.09766000000000001  0.15882  1.0000
  N   N35       1.0  0.572  0.15249  0.15462  1.0000
  N   N36       1.0  0.6085799999999999  0.14383999999999997  0.18264999999999995  1.0000
  N   N37       1.0  0.55245  0.16637  0.04825999999999998  1.0000
  N   N38       1.0  0.51573  0.1218  0.04528999999999998  1.0000
  N   N39       1.0  0.52063  0.09537000000000001  0.9944699999999999  1.0000
  N   N40       1.0  0.5635  0.1198  0.96611  1.0000
  C   C10       1.0  0.58264  0.16482  0.9996499999999999  1.0000
  C   C11       1.0  0.35373999999999994  0.019689999999999996  0.07926  1.0000
  N   N41       1.0  0.4262099999999999  0.05070999999999999  0.08554999999999997  1.0000
  N   N42       1.0  0.3818  0.05194  0.11258999999999998  1.0000
  N   N43       1.0  0.5224599999999999  0.9706799999999998  0.04282999999999999  1.0000
  N   N44       1.0  0.51022  0.9891699999999999  0.09509999999999999  1.0000
  N   N45       1.0  0.5257  0.9494  0.13083  1.0000
  N   N46       1.0  0.55222  0.90702  0.10333999999999997  1.0000
  N   N47       1.0  0.42635  0.018809999999999993  0.03862  1.0000
  N   N48       1.0  0.38079999999999997  0.9975499999999999  0.03338  1.0000
  C   C12       1.0  0.55164  0.9211599999999999  0.04795999999999999  1.0000
  N   N49       1.0  0.36948  0.9217499999999998  0.8184199999999999  1.0000
  N   N50       1.0  0.39577999999999997  0.8798  0.8393399999999998  1.0000
  N   N51       1.0  0.36699  0.83232  0.8687099999999998  1.0000
  N   N52       1.0  0.3212499999999999  0.8452599999999999  0.8708399999999997  1.0000
  N   N53       1.0  0.4247899999999999  0.81816  0.94613  1.0000
  N   N54       1.0  0.44976999999999984  0.8755599999999999  0.93246  1.0000
  N   N55       1.0  0.45236  0.91034  0.97758  1.0000
  N   N56       1.0  0.42781999999999987  0.8767099999999999  0.022549999999999994  1.0000
  N   N57       1.0  0.57912  0.02414  0.89323  1.0000
  N   N58       1.0  0.5381899999999998  0.9864799999999999  0.91096  1.0000
  N   N59       1.0  0.5300900000000001  0.94623  0.8695099999999999  1.0000
  N   N60       1.0  0.56723  0.95157  0.82817  1.0000
  N   N61       1.0  0.44886  0.03582  0.91989  1.0000
  N   N62       1.0  0.4412  0.0005000000000000112  0.8757999999999998  1.0000
  N   N63       1.0  0.4225299999999999  0.03620999999999999  0.83979  1.0000
  N   N64       1.0  0.4167099999999999  0.09507999999999998  0.8587099999999998  1.0000
  Cl  Cl3       1.0  0.45255  0.017649999999999944  0.2014  1.0000
  Cl  Cl4       1.0  0.47436999999999996  0.95383  0.76395  1.0000
  C   C13       1.0  0.32298  0.90298  0.84189  1.0000
  C   C14       1.0  0.41112999999999994  0.8194099999999999  0.0020699999999997942  1.0000
  C   C15       1.0  0.59782  0.9995399999999999  0.84388  1.0000
  C   C16       1.0  0.43283  0.09496999999999998  0.9092299999999999  1.0000
  Mn  Mn11      1.0  0.18956999999999996  0.07104  0.56572  1.0000
  Mn  Mn12      1.0  0.11099  0.9407399999999999  0.5372099999999999  1.0000
  Mn  Mn13      1.0  0.8249899999999999  0.92218  0.39292  1.0000
  Mn  Mn14      1.0  0.89215  0.04819  0.44739999999999996  1.0000
  Mn  Mn15      1.0  0.0003100000000000009  0.9957399999999998  0.4983599999999999  1.0000
  C   C17       1.0  0.15268  0.006100000000000011  0.6813699999999998  1.0000
  N   N65       1.0  0.15791000000000002  0.003130000000000003  0.6253099999999999  1.0000
  N   N66       1.0  0.12718  0.95357  0.61528  1.0000
  N   N67       1.0  0.10341  0.9264699999999999  0.6633199999999999  1.0000
  N   N68       1.0  0.11914  0.95813  0.70589  1.0000
  N   N69       1.0  0.03670000000000001  0.8460399999999999  0.5976299999999999  1.0000
  N   N70       1.0  0.043559999999999995  0.90085  0.56689  1.0000
  N   N71       1.0  0.0026000000000000077  0.91501  0.5500599999999999  1.0000
  N   N72       1.0  0.9666499999999999  0.8696799999999999  0.57109  1.0000
  C   C18       1.0  0.98917  0.82723  0.6005399999999999  1.0000
  C   C19       1.0  0.11851  0.9684099999999999  0.37712  1.0000
  N   N73       1.0  0.09406  0.93324  0.46068  1.0000
  N   N74       1.0  0.12976999999999997  0.93019  0.41836999999999996  1.0000
  N   N75       1.0  0.04633000000000001  0.04651  0.5474899999999999  1.0000
  N   N76       1.0  0.09212  0.033469999999999986  0.53786  1.0000
  N   N77       1.0  0.12083000000000002  0.08232999999999999  0.5530699999999998  1.0000
  N   N78       1.0  0.09433999999999994  0.1256  0.57908  1.0000
  N   N79       1.0  0.06137000000000001  0.9701499999999998  0.4459499999999999  1.0000
  N   N80       1.0  0.07723999999999999  0.9960600000000001  0.3948199999999999  1.0000
  C   C20       1.0  0.047369999999999995  0.10155  0.57943  1.0000
  N   N81       1.0  0.86286  0.9967699999999999  0.34366  1.0000
  N   N82       1.0  0.8877799999999998  0.04573000000000001  0.3644799999999999  1.0000
  N   N83       1.0  0.9164899999999998  0.08036  0.32336  1.0000
  N   N84       1.0  0.91009  0.055  0.2744  1.0000
  N   N85       1.0  0.97054  0.14310999999999996  0.3921  1.0000
  N   N86       1.0  0.95964  0.09510999999999999  0.43075  1.0000
  N   N87       1.0  0.9996599999999998  0.07661  0.4469399999999999  1.0000
  N   N88       1.0  0.038119999999999994  0.11091999999999999  0.41724  1.0000
  N   N89       1.0  0.9296899999999998  0.02977000000000007  0.60326  1.0000
  N   N90       1.0  0.93724  0.02344999999999997  0.5479799999999999  1.0000
  N   N91       1.0  0.8993199999999998  0.04372  0.52751  1.0000
  N   N92       1.0  0.8665100000000001  0.06272  0.5675199999999999  1.0000
  N   N93       1.0  0.9569499999999997  0.94219  0.44867  1.0000
  N   N94       1.0  0.9133199999999998  0.9582  0.44317999999999996  1.0000
  N   N95       1.0  0.8882599999999998  0.9101399999999998  0.4214299999999999  1.0000
  N   N96       1.0  0.91603  0.86289  0.40754  1.0000
  Cl  Cl5       1.0  0.18747999999999998  0.98758  0.50515  1.0000
  Cl  Cl6       1.0  0.81575  0.99542  0.46289  1.0000
  C   C21       1.0  0.87733  0.0021800000000000725  0.28765  1.0000
  C   C22       1.0  0.019279999999999964  0.15213  0.38296  1.0000
  C   C23       1.0  0.88583  0.05374999999999999  0.6145199999999998  1.0000
  C   C24       1.0  0.95997  0.88388  0.42185  1.0000
  C   C25       1.0  0.018219999999999903  0.10264000000000001  0.6369299999999999  1.0000
  C   C26       1.0  0.0010300000000000944  0.04292  0.66635  1.0000
  C   C27       1.0  0.9764899999999997  0.04193  0.7215499999999998  1.0000
  N   N97       1.0  0.95348  0.98147  0.7480599999999998  1.0000
  C   C28       1.0  0.97443  0.10021999999999999  0.75062  1.0000
  C   C29       1.0  0.9993899999999998  0.15942  0.7265899999999998  1.0000
  C   C30       1.0  0.0028999999999999256  0.21910000000000002  0.7622799999999997  1.0000
  C   C31       1.0  0.0038300000000000356  0.28254  0.7376699999999998  1.0000
  C   C32       1.0  0.006880000000000004  0.33878  0.76999  1.0000
  Cl  Cl7       1.0  0.01695000000000001  0.4161  0.7345399999999997  1.0000
  C   C33       1.0  0.004820000000000031  0.33273  0.8289699999999998  1.0000
  C   C34       1.0  0.0037900000000000225  0.27018  0.8538599999999998  1.0000
  C   C35       1.0  0.005260000000000038  0.21425000000000005  0.8212099999999999  1.0000
  Cl  Cl8       1.0  0.017179999999999977  0.14188000000000003  0.85588  1.0000
  C   C36       1.0  0.019530000000000023  0.16058  0.6684099999999998  1.0000
  H   H1        1.0  0.004040000000000039  0.99688  0.6452199999999999  1.0000
  H   H2        1.0  0.9348299999999999  0.97995  0.7892899999999999  1.0000
  H   H3        1.0  0.9550099999999999  0.9376899999999999  0.7265599999999999  1.0000
  H   H4        1.0  0.9530899999999998  0.09907999999999999  0.7922099999999997  1.0000
  H   H5        1.0  0.0020200000000000114  0.28887999999999997  0.6930999999999999  1.0000
  H   H6        1.0  0.0061800000000000865  0.26538  0.8984799999999997  1.0000
  H   H7        1.0  0.038169999999999996  0.20543999999999998  0.64787  1.0000
  C   C37       1.0  0.85211  0.96889  0.24567999999999998  1.0000
  C   C38       1.0  0.87717  0.96391  0.19109  1.0000
  C   C39       1.0  0.8518299999999998  0.96132  0.14502999999999996  1.0000
  N   N98       1.0  0.87811  0.9646299999999999  0.08896  1.0000
  C   C40       1.0  0.8012199999999999  0.9632899999999999  0.15419999999999998  1.0000
  C   C41       1.0  0.7757  0.9649699999999999  0.20914  1.0000
  C   C42       1.0  0.7261900000000001  0.9867599999999999  0.21770999999999993  1.0000
  C   C43       1.0  0.71925  0.04585  0.24524999999999994  1.0000
  C   C44       1.0  0.6757199999999998  0.07447  0.24703  1.0000
  Cl  Cl9       1.0  0.6700799999999999  0.14907  0.2814  1.0000
  C   C45       1.0  0.6384  0.044620000000000104  0.22015  1.0000
  C   C46       1.0  0.6439499999999998  0.9834799999999999  0.19583999999999993  1.0000
  C   C47       1.0  0.6876  0.9548099999999999  0.19396  1.0000
  Cl  Cl10      1.0  0.6932399999999999  0.8807599999999999  0.15902  1.0000
  C   C48       1.0  0.80131  0.96373  0.255  1.0000
  H   H8        1.0  0.91662  0.96856  0.18401  1.0000
  H   H9        1.0  0.86018  0.9691599999999999  0.054099999999999995  1.0000
  H   H10       1.0  0.91582  0.9629199999999999  0.08200999999999999  1.0000
  H   H11       1.0  0.78231  0.9691699999999999  0.11875  1.0000
  H   H12       1.0  0.7488499999999999  0.07206  0.26259999999999994  1.0000
  H   H13       1.0  0.61591  0.9603999999999999  0.17405999999999994  1.0000
  H   H14       1.0  0.78231  0.9697799999999999  0.29716  1.0000
  C   C49       1.0  0.0002699999999999954  0.8742  0.37674  1.0000
  C   C50       1.0  0.013980000000000107  0.9260499999999999  0.33653999999999995  1.0000
  C   C51       1.0  0.04072000000000009  0.9162899999999999  0.28417  1.0000
  N   N99       1.0  0.055390000000000036  0.97043  0.24475999999999995  1.0000
  C   C52       1.0  0.04946999999999991  0.85281  0.26863999999999993  1.0000
  C   C53       1.0  0.03203999999999984  0.7985099999999999  0.30542  1.0000
  C   C54       1.0  0.027279999999999967  0.73259  0.28012  1.0000
  C   C55       1.0  0.9815899999999997  0.6960499999999998  0.28862  1.0000
  C   C56       1.0  0.9692499999999997  0.64924  0.25031  1.0000
  Cl  Cl11      1.0  0.91098  0.60582  0.26595  1.0000
  C   C57       1.0  0.0026600000000001076  0.6388300000000001  0.20143999999999995  1.0000
  C   C58       1.0  0.05091000000000001  0.66646  0.19866999999999996  1.0000
  C   C59       1.0  0.06349000000000005  0.71286  0.23781999999999995  1.0000
  Cl  Cl12      1.0  0.12431999999999999  0.7474  0.23164  1.0000
  C   C60       1.0  0.008699999999999928  0.8100399999999999  0.36044  1.0000
  H   H15       1.0  0.0019700000000000264  0.9742999999999999  0.3447799999999999  1.0000
  H   H16       1.0  0.0754999999999999  0.96338  0.20542999999999997  1.0000
  H   H17       1.0  0.047849999999999955  0.0181  0.25526  1.0000
  H   H18       1.0  0.06508000000000003  0.84572  0.22533  1.0000
  H   H19       1.0  0.9537199999999999  0.70723  0.32256  1.0000
  H   H20       1.0  0.07820000000000005  0.6542199999999999  0.16479999999999997  1.0000
  H   H21       1.0  0.99159  0.7692500000000001  0.38804  1.0000
  C   C61       1.0  0.15735999999999997  0.001339999999999676  0.33615999999999996  1.0000
  C   C62       1.0  0.18675  0.05247000000000002  0.35567  1.0000
  C   C63       1.0  0.22942999999999997  0.07902  0.32231  1.0000
  N   N100      1.0  0.25984  0.13005  0.343  1.0000
  C   C64       1.0  0.24167999999999995  0.05637  0.26817  1.0000
  C   C65       1.0  0.21137  0.006920000000000002  0.24709999999999996  1.0000
  C   C66       1.0  0.22467999999999994  0.98983  0.18786999999999998  1.0000
  C   C67       1.0  0.2296599999999999  0.04261999999999999  0.14884  1.0000
  C   C68       1.0  0.27007  0.05082999999999999  0.10698999999999997  1.0000
  Cl  Cl13      1.0  0.2852  0.13011  0.07691999999999999  1.0000
  C   C69       1.0  0.30186  0.0012000000000000003  0.09866  1.0000
  C   C70       1.0  0.28914  0.94095  0.12877999999999998  1.0000
  C   C71       1.0  0.25124  0.93554  0.17463  1.0000
  Cl  Cl14      1.0  0.24423  0.86572  0.22034999999999996  1.0000
  C   C72       1.0  0.1693  0.97857  0.28156  1.0000
  H   H22       1.0  0.17691999999999997  0.07089999999999996  0.39747  1.0000
  H   H23       1.0  0.29126  0.15123000000000003  0.31749999999999995  1.0000
  H   H24       1.0  0.25044  0.14806999999999992  0.3832  1.0000
  H   H25       1.0  0.27431  0.07864  0.24169999999999997  1.0000
  H   H26       1.0  0.20893  0.08429  0.15877999999999998  1.0000
  H   H27       1.0  0.31321  0.9022  0.12274999999999997  1.0000
  H   H28       1.0  0.14633999999999994  0.93971  0.26616  1.0000
  C   C73       1.0  0.04628999999999999  0.18611999999999995  0.3305  1.0000
  C   C74       1.0  0.09624999999999997  0.18093  0.31509  1.0000
  C   C75       1.0  0.12064  0.20668999999999998  0.26272  1.0000
  N   N101      1.0  0.17177  0.20263  0.24771999999999994  1.0000
  C   C76       1.0  0.09502000000000001  0.23735999999999996  0.22519999999999996  1.0000
  C   C77       1.0  0.04502999999999997  0.24351  0.23935  1.0000
  C   C78       1.0  0.020880000000000003  0.2843  0.20119999999999996  1.0000
  C   C79       1.0  0.00532  0.34382999999999997  0.22071  1.0000
  C   C80       1.0  0.0015899999999999862  0.39553  0.18267999999999995  1.0000
  Cl  Cl15      1.0  0.99287  0.47197  0.21141  1.0000
  C   C81       1.0  0.01249999999999995  0.3882699999999999  0.12372  1.0000
  C   C82       1.0  0.01687  0.32396  0.10506999999999998  1.0000
  C   C83       1.0  0.0228  0.27272  0.14301  1.0000
  Cl  Cl16      1.0  0.03734  0.19673  0.11560999999999999  1.0000
  C   C84       1.0  0.020979999999999995  0.21836000000000003  0.29248999999999997  1.0000
  H   H29       1.0  0.11614999999999998  0.15601  0.34330999999999995  1.0000
  H   H30       1.0  0.18998  0.21997  0.20816  1.0000
  H   H31       1.0  0.19206999999999996  0.18423  0.27661  1.0000
  H   H32       1.0  0.11462  0.25877  0.18560999999999994  1.0000
  H   H33       1.0  0.0019900000000000013  0.35311  0.26539  1.0000
  H   H34       1.0  0.024410000000000005  0.3161  0.06018999999999999  1.0000
  H   H35       1.0  0.9824500000000002  0.22318999999999997  0.30372999999999994  1.0000
  C   C85       1.0  0.59704  0.91351  0.008639999999999981  1.0000
  C   C86       1.0  0.62001  0.9685199999999998  0.97675  1.0000
  C   C87       1.0  0.6665899999999999  0.96904  0.9459899999999999  1.0000
  N   N102      1.0  0.6911099999999998  0.0283199999999999  0.91859  1.0000
  C   C88       1.0  0.6915999999999998  0.9138599999999999  0.94872  1.0000
  C   C89       1.0  0.67484  0.86537  0.9911199999999998  1.0000
  C   C90       1.0  0.7107599999999997  0.8285299999999999  0.0156099999999999  1.0000
  C   C91       1.0  0.69902  0.7621099999999998  0.032359999999999944  1.0000
  C   C92       1.0  0.73134  0.72763  0.05813000000000001  1.0000
  Cl  Cl17      1.0  0.71458  0.64433  0.07782  1.0000
  C   C93       1.0  0.7762199999999998  0.75951  0.06756  1.0000
  C   C94       1.0  0.7880000000000001  0.82555  0.05155999999999999  1.0000
  C   C95       1.0  0.7557  0.8605299999999999  0.02652999999999972  1.0000
  Cl  Cl18      1.0  0.77259  0.94529  0.013069999999999997  1.0000
  C   C96       1.0  0.62601  0.86254  0.01794999999999969  1.0000
  H   H36       1.0  0.60332  0.013649999999999942  0.98047  1.0000
  H   H37       1.0  0.7272  0.029719999999999972  0.89883  1.0000
  H   H38       1.0  0.67403  0.07165  0.9192099999999999  1.0000
  H   H39       1.0  0.72776  0.91459  0.9247599999999999  1.0000
  H   H40       1.0  0.66475  0.73688  0.025150000000000006  1.0000
  H   H41       1.0  0.8230099999999998  0.84957  0.05751  1.0000
  H   H42       1.0  0.6126099999999999  0.82552  0.05092  1.0000
  C   C97       1.0  0.86059  0.29715  0.040709999999999996  1.0000
  C   C98       1.0  0.8663099999999999  0.26603  0.09151999999999999  1.0000
  C   C99       1.0  0.82862  0.22311999999999999  0.12071999999999997  1.0000
  N   N103      1.0  0.83285  0.19675  0.17539  1.0000
  C   C100      1.0  0.7853499999999998  0.20997  0.09827  1.0000
  C   C101      1.0  0.77925  0.23758999999999997  0.04544  1.0000
  C   C102      1.0  0.7321199999999998  0.22002  0.022879999999999998  1.0000
  C   C103      1.0  0.7103799999999998  0.15565999999999997  0.03414  1.0000
  C   C104      1.0  0.66217  0.13817  0.027929999999999993  1.0000
  Cl  Cl19      1.0  0.63487  0.06714999999999999  0.06641  1.0000
  C   C105      1.0  0.63592  0.18104  0.9999499999999999  1.0000
  C   C106      1.0  0.65847  0.24446  0.98421  1.0000
  C   C107      1.0  0.70532  0.26513000000000003  0.99729  1.0000
  Cl  Cl20      1.0  0.72552  0.34921  0.9869  1.0000
  C   C108      1.0  0.8179  0.28066  0.0166  1.0000
  H   H43       1.0  0.8976499999999998  0.28099  0.11177  1.0000
  H   H44       1.0  0.80437  0.16633  0.19864  1.0000
  H   H45       1.0  0.86432  0.20825999999999997  0.19339999999999993  1.0000
  H   H46       1.0  0.75595  0.17888  0.12313  1.0000
  H   H47       1.0  0.7296  0.11957  0.05319  1.0000
  H   H48       1.0  0.63809  0.2795  0.96569  1.0000
  H   H49       1.0  0.8140599999999998  0.30441  0.97697  1.0000
  C   C109      1.0  0.28536999999999985  0.9489399999999999  0.85674  1.0000
  C   C110      1.0  0.25278000000000006  0.9379399999999999  0.9074999999999998  1.0000
  C   C111      1.0  0.21935  0.9827099999999999  0.9249799999999999  1.0000
  N   N104      1.0  0.18723000000000004  0.97176  0.9774199999999998  1.0000
  C   C112      1.0  0.21700999999999995  0.0379799999999999  0.89078  1.0000
  C   C113      1.0  0.24745  0.049390000000000045  0.8382399999999998  1.0000
  C   C114      1.0  0.23457000000000003  0.09607  0.7944  1.0000
  C   C115      1.0  0.25857  0.09084000000000005  0.7389399999999998  1.0000
  C   C116      1.0  0.23201999999999998  0.0636399999999997  0.6985599999999998  1.0000
  Cl  Cl21      1.0  0.26443999999999995  0.03454000000000001  0.6368599999999999  1.0000
  C   C117      1.0  0.18093  0.052620000000000014  0.71207  1.0000
  C   C118      1.0  0.1576  0.08173999999999998  0.7595999999999999  1.0000
  C   C119      1.0  0.18538  0.10942999999999999  0.7985  1.0000
  Cl  Cl22      1.0  0.15844000000000003  0.16060000000000002  0.8498799999999997  1.0000
  C   C120      1.0  0.28375  0.005680000000000003  0.82365  1.0000
  H   H50       1.0  0.25444  0.89587  0.9349599999999999  1.0000
  H   H51       1.0  0.16168000000000002  0.004610000000000012  0.9906099999999998  1.0000
  H   H52       1.0  0.18859  0.9306399999999999  0.00348  1.0000
  H   H53       1.0  0.18960000000000002  0.06980000000000007  0.90516  1.0000
  H   H54       1.0  0.29789  0.09352000000000005  0.73042  1.0000
  H   H55       1.0  0.11834999999999997  0.08176999999999998  0.76684  1.0000
  H   H56       1.0  0.30941  0.012710000000000006  0.7851399999999998  1.0000
  C   C121      1.0  0.96497  0.57279  0.8517  1.0000
  C   C122      1.0  0.9398299999999998  0.51199  0.84338  1.0000
  C   C123      1.0  0.9274899999999998  0.49582999999999994  0.7904899999999999  1.0000
  N   N105      1.0  0.9011999999999998  0.43377999999999994  0.78385  1.0000
  C   C124      1.0  0.93733  0.54255  0.74561  1.0000
  C   C125      1.0  0.9598700000000001  0.6050699999999999  0.7533199999999999  1.0000
  C   C126      1.0  0.96021  0.65898  0.71026  1.0000
  C   C127      1.0  0.98515  0.6543099999999998  0.65536  1.0000
  C   C128      1.0  0.98922  0.70685  0.6158499999999999  1.0000
  Cl  Cl23      1.0  0.02424  0.70011  0.54901  1.0000
  C   C129      1.0  0.9681599999999999  0.7653299999999997  0.63074  1.0000
  C   C130      1.0  0.94007  0.76816  0.6839099999999999  1.0000
  C   C131      1.0  0.93558  0.71541  0.7233299999999999  1.0000
  Cl  Cl24      1.0  0.89904  0.72232  0.7889499999999999  1.0000
  C   C132      1.0  0.97637  0.61822  0.8051899999999999  1.0000
  H   H57       1.0  0.92392  0.48047999999999996  0.8794699999999999  1.0000
  H   H58       1.0  0.89067  0.42138  0.74514  1.0000
  H   H59       1.0  0.8930399999999997  0.39909999999999995  0.8173499999999998  1.0000
  H   H60       1.0  0.92444  0.5318199999999998  0.70603  1.0000
  H   H61       1.0  0.0034300000000000086  0.61105  0.6438999999999999  1.0000
  H   H62       1.0  0.92453  0.81321  0.6963799999999999  1.0000
  H   H63       1.0  0.9912499999999999  0.66774  0.81203  1.0000
  C   C133      1.0  0.86478  0.07893  0.66843  1.0000
  C   C134      1.0  0.88691  0.13602000000000003  0.6885299999999999  1.0000
  C   C135      1.0  0.86442  0.16485  0.7366899999999998  1.0000
  N   N106      1.0  0.8857700000000001  0.22490999999999997  0.7554699999999999  1.0000
  C   C136      1.0  0.8189999999999997  0.13755999999999993  0.7637  1.0000
  C   C137      1.0  0.7939299999999998  0.08490999999999999  0.7402  1.0000
  C   C138      1.0  0.74246  0.06351  0.76324  1.0000
  C   C139      1.0  0.7279  0.99623  0.77312  1.0000
  C   C140      1.0  0.68009  0.9743699999999998  0.79664  1.0000
  Cl  Cl25      1.0  0.6654199999999998  0.8894299999999999  0.8104999999999999  1.0000
  C   C141      1.0  0.64635  0.020340000000000025  0.8124599999999997  1.0000
  C   C142      1.0  0.6604799999999997  0.08735  0.80178  1.0000
  C   C143      1.0  0.70762  0.10917  0.7759699999999998  1.0000
  Cl  Cl26      1.0  0.72024  0.19374000000000002  0.75805  1.0000
  C   C144      1.0  0.81772  0.054550000000000015  0.6932799999999998  1.0000
  H   H64       1.0  0.9206  0.15946  0.66548  1.0000
  H   H65       1.0  0.87129  0.24472999999999998  0.79339  1.0000
  H   H66       1.0  0.9130099999999998  0.25305  0.7285199999999998  1.0000
  H   H67       1.0  0.8019800000000001  0.16024000000000002  0.8009799999999999  1.0000
  H   H68       1.0  0.7542199999999998  0.96067  0.76405  1.0000
  H   H69       1.0  0.63468  0.1229  0.81355  1.0000
  H   H70       1.0  0.79895  0.013970000000000036  0.67434  1.0000
  C   C145      1.0  0.37275  0.77158  0.03168999999999977  1.0000
  C   C146      1.0  0.38534  0.71047  0.048669999999999984  1.0000
  C   C147      1.0  0.34952  0.65778  0.062449999999999894  1.0000
  N   N107      1.0  0.36303  0.59432  0.07604000000000011  1.0000
  C   C148      1.0  0.3007799999999999  0.66635  0.059290000000000065  1.0000
  C   C149      1.0  0.28687  0.72782  0.043930000000000025  1.0000
  C   C150      1.0  0.23570000000000002  0.73273  0.033600000000000074  1.0000
  C   C151      1.0  0.22770999999999997  0.75826  0.9812799999999999  1.0000
  C   C152      1.0  0.18188999999999994  0.7483299999999999  0.9637099999999997  1.0000
  Cl  Cl27      1.0  0.17618000000000003  0.77645  0.8953399999999999  1.0000
  C   C153      1.0  0.14294000000000004  0.71106  0.9980899999999998  1.0000
  C   C154      1.0  0.14951  0.69236  0.052910000000000006  1.0000
  C   C155      1.0  0.19513000000000003  0.70322  0.07098000000000004  1.0000
  Cl  Cl28      1.0  0.20078  0.67451  0.13925999999999994  1.0000
  C   C156      1.0  0.3234499999999999  0.7805599999999999  0.030229999999999976  1.0000
  H   H71       1.0  0.4233099999999999  0.70289  0.048280000000000094  1.0000
  H   H72       1.0  0.3369  0.55391  0.08399999999999985  1.0000
  H   H73       1.0  0.39953000000000005  0.5868999999999999  0.07617999999999969  1.0000
  H   H74       1.0  0.27405999999999997  0.62396  0.06642999999999998  1.0000
  H   H75       1.0  0.25818  0.78077  0.95185  1.0000
  H   H76       1.0  0.12079000000000001  0.66227  0.07926999999999995  1.0000
  H   H77       1.0  0.31404000000000004  0.8274700000000001  0.015449999999999742  1.0000
  C   C157      1.0  0.26595  0.36698999999999987  0.9494699999999998  1.0000
  C   C158      1.0  0.2946  0.4239899999999999  0.9276199999999999  1.0000
  C   C159      1.0  0.34522  0.42721999999999993  0.9216899999999998  1.0000
  N   N108      1.0  0.37387000000000004  0.48514999999999997  0.8969899999999997  1.0000
  C   C160      1.0  0.36746999999999996  0.37218  0.9367199999999999  1.0000
  C   C161      1.0  0.33941  0.31531  0.9621799999999999  1.0000
  C   C162      1.0  0.36294  0.25339  0.9704999999999998  1.0000
  C   C163      1.0  0.33705999999999997  0.19310999999999995  0.962  1.0000
  C   C164      1.0  0.3596999999999999  0.13566999999999996  0.95706  1.0000
  Cl  Cl29      1.0  0.32405  0.06317000000000002  0.9456199999999999  1.0000
  C   C165      1.0  0.41056  0.13817  0.9516199999999998  1.0000
  C   C166      1.0  0.4365  0.19595  0.9656299999999999  1.0000
  C   C167      1.0  0.4123099999999999  0.25227  0.97888  1.0000
  Cl  Cl30      1.0  0.44533  0.31894  0.00574  1.0000
  C   C168      1.0  0.28795000000000004  0.31442  0.9694499999999998  1.0000
  H   H78       1.0  0.2775399999999999  0.4647  0.91213  1.0000
  H   H79       1.0  0.41184  0.4888199999999999  0.89134  1.0000
  H   H80       1.0  0.3570699999999999  0.52552  0.88474  1.0000
  H   H81       1.0  0.40643000000000007  0.37308  0.9252299999999998  1.0000
  H   H82       1.0  0.29943  0.18961999999999998  0.9557099999999997  1.0000
  H   H83       1.0  0.47571999999999975  0.19894999999999996  0.9626999999999999  1.0000
  H   H84       1.0  0.26444  0.27205999999999997  0.9879199999999999  1.0000
