data_image0
_chemical_formula_structural       Mn5CN8C2N8CN16Cl2C4Mn5CN8C2N8CN16Cl2C4Mn5CN8C2N8CN16Cl2C10IC2ICIH7C6IC2ICIH7C6IC2ICIH7C6IC2ICIH7C6IC2ICIH7C6IC2ICIH7C6IC2ICIH7C6IC2ICIH7C6IC2ICIH7C6IC2ICIH7C6IC2ICIH7C6IC2ICIH7
_chemical_formula_sum              "Mn15 C132 N96 Cl6 I36 H84"
_cell_length_a       24.731
_cell_length_b       19.0681
_cell_length_c       20.521399999999996
_cell_angle_alpha    89.523
_cell_angle_beta     77.6699
_cell_angle_gamma    89.36839999999998

_symmetry_space_group_name_H-M    'P 1'
_symmetry_Int_Tables_number       1

loop_
  _symmetry_equiv_pos_as_xyz
  'x,y,z'

loop_
  _atom_site_type_symbol
  _atom_site_label
  _atom_site_symmetry_multiplicity
  _atom_site_fract_x
  _atom_site_fract_y
  _atom_site_fract_z
  _atom_site_occupancy
  Mn  Mn1       1.0  0.22785  0.37868  0.029280000000000004  1.0000
  Mn  Mn2       1.0  0.14902999999999997  0.4583999999999999  0.92982  1.0000
  Mn  Mn3       1.0  0.7835299999999998  0.53234  0.96507  1.0000
  Mn  Mn4       1.0  0.85665  0.50379  0.08889  1.0000
  Mn  Mn5       1.0  0.0032699999999999995  0.4808  0.0127  1.0000
  C   C1        1.0  0.25  0.28743  0.90212  1.0000
  N   N1        1.0  0.22100999999999998  0.33738  0.9411300000000001  1.0000
  N   N2        1.0  0.18869  0.36636  0.9047500000000002  1.0000
  N   N3        1.0  0.19696000000000002  0.33631  0.84561  1.0000
  N   N4        1.0  0.23454999999999993  0.28571  0.8428600000000002  1.0000
  N   N5        1.0  0.08888000000000003  0.40076  0.83235  1.0000
  N   N6        1.0  0.08442999999999999  0.4282099999999999  0.8922  1.0000
  N   N7        1.0  0.03188999999999998  0.43318  0.92308  1.0000
  N   N8        1.0  0.00017000000000000657  0.40962  0.8838  1.0000
  C   C2        1.0  0.036169999999999994  0.38915  0.82783  1.0000
  C   C3        1.0  0.10189999999999996  0.65644  0.9820200000000001  1.0000
  N   N9        1.0  0.11161999999999998  0.55009  0.95502  1.0000
  N   N10       1.0  0.13904999999999998  0.60925  0.9507400000000001  1.0000
  N   N11       1.0  0.06147  0.4232099999999999  0.05172  1.0000
  N   N12       1.0  0.11425999999999999  0.42066  0.02059  1.0000
  N   N13       1.0  0.14398  0.38502  0.05584  1.0000
  N   N14       1.0  0.11169999999999998  0.35817  0.1095  1.0000
  N   N15       1.0  0.05982999999999998  0.55948  0.9868700000000001  1.0000
  N   N16       1.0  0.052239999999999974  0.62592  0.005749999999999922  1.0000
  C   C4        1.0  0.0602  0.38105  0.10648000000000002  1.0000
  N   N17       1.0  0.78365  0.60183  0.0388  1.0000
  N   N18       1.0  0.8105699999999999  0.59269  0.08759  1.0000
  N   N19       1.0  0.78585  0.63019  0.13976  1.0000
  N   N20       1.0  0.7432399999999999  0.66543  0.12467  1.0000
  N   N21       1.0  0.91414  0.58559  0.17911000000000002  1.0000
  N   N22       1.0  0.91958  0.5494  0.12312  1.0000
  N   N23       1.0  0.9722799999999999  0.53207  0.10068999999999999  1.0000
  N   N24       1.0  0.0024399999999999964  0.55822  0.1404  1.0000
  N   N25       1.0  0.9493399999999999  0.33715  0.020880000000000003  1.0000
  N   N26       1.0  0.94586  0.40313  0.04132  1.0000
  N   N27       1.0  0.89814  0.41348999999999997  0.08357  1.0000
  N   N28       1.0  0.86984  0.35489  0.09366  1.0000
  N   N29       1.0  0.9471  0.535  0.9712800000000001  1.0000
  N   N30       1.0  0.8940099999999999  0.52453  0.99434  1.0000
  N   N31       1.0  0.8663299999999998  0.53467  0.94709  1.0000
  N   N32       1.0  0.8999199999999999  0.55516  0.89172  1.0000
  Cl  Cl1       1.0  0.22144  0.48473  0.9773700000000001  1.0000
  Cl  Cl2       1.0  0.78987  0.4522  0.04522000000000004  1.0000
  C   C5        1.0  0.7426299999999999  0.64721  0.06137000000000001  1.0000
  C   C6        1.0  0.9663  0.5914499999999999  0.18961  1.0000
  C   C7        1.0  0.9016799999999999  0.30792  0.05465  1.0000
  C   C8        1.0  0.9503499999999999  0.55749  0.90733  1.0000
  Mn  Mn6       1.0  0.52196  0.86574  0.30368000000000006  1.0000
  Mn  Mn7       1.0  0.50911  0.01986  0.21906  1.0000
  Mn  Mn8       1.0  0.49118  0.08177  0.77298  1.0000
  Mn  Mn9       1.0  0.49713999999999997  0.9394599999999999  0.8748100000000001  1.0000
  Mn  Mn10      1.0  0.49751999999999996  0.98783  0.04624  1.0000
  C   C9        1.0  0.6379199999999998  0.92896  0.28097  1.0000
  N   N33       1.0  0.58349  0.93636  0.2832700000000001  1.0000
  N   N34       1.0  0.57784  0.99738  0.2544  1.0000
  N   N35       1.0  0.62637  0.02817  0.23677  1.0000
  N   N36       1.0  0.66487  0.98649  0.25262000000000007  1.0000
  N   N37       1.0  0.59371  0.112  0.14046  1.0000
  N   N38       1.0  0.55289  0.06914  0.13794  1.0000
  N   N39       1.0  0.54935  0.05895999999999999  0.07539  1.0000
  N   N40       1.0  0.58913  0.09451  0.035230000000000095  1.0000
  C   C10       1.0  0.61617  0.12832  0.07659  1.0000
  C   C11       1.0  0.35785  0.05813  0.18131000000000003  1.0000
  N   N41       1.0  0.44068999999999997  0.03683  0.18389  1.0000
  N   N42       1.0  0.39379  0.05881  0.22191000000000002  1.0000
  N   N43       1.0  0.51776  0.91456  0.11049  1.0000
  N   N44       1.0  0.51865  0.9274300000000001  0.17315  1.0000
  N   N45       1.0  0.52231  0.8684  0.20577000000000004  1.0000
  N   N46       1.0  0.52488  0.81433  0.16576  1.0000
  N   N47       1.0  0.4344700000000001  0.02288000000000001  0.12269000000000001  1.0000
  N   N48       1.0  0.38229  0.03452999999999995  0.11981  1.0000
  C   C12       1.0  0.52266  0.84344  0.10606000000000002  1.0000
  N   N49       1.0  0.43201  0.00787  0.79048  1.0000
  N   N50       1.0  0.43309  0.95384  0.83077  1.0000
  N   N51       1.0  0.40235  0.9027299999999999  0.8158299999999999  1.0000
  N   N52       1.0  0.38048999999999994  0.92325  0.7652400000000001  1.0000
  N   N53       1.0  0.4064799999999999  0.85567  0.9527800000000001  1.0000
  N   N54       1.0  0.44711  0.89896  0.95597  1.0000
  N   N55       1.0  0.44553  0.9167799999999999  0.01831000000000005  1.0000
  N   N56       1.0  0.40355  0.88491  0.05834  1.0000
  N   N57       1.0  0.61717  0.9620799999999999  0.97803  1.0000
  N   N58       1.0  0.5645499999999999  0.9536399999999999  0.9747100000000001  1.0000
  N   N59       1.0  0.5626499999999999  0.9289799999999999  0.91552  1.0000
  N   N60       1.0  0.6131099999999999  0.9206000000000001  0.8789900000000002  1.0000
  N   N61       1.0  0.47612  0.05702999999999999  0.9755300000000001  1.0000
  N   N62       1.0  0.48673999999999995  0.03753  0.91204  1.0000
  N   N63       1.0  0.48245  0.09102999999999999  0.8726500000000001  1.0000
  N   N64       1.0  0.46469  0.14677000000000004  0.90829  1.0000
  Cl  Cl3       1.0  0.46261  0.95925  0.30913  1.0000
  Cl  Cl4       1.0  0.54751  0.9893299999999999  0.78168  1.0000
  C   C13       1.0  0.39956  0.98862  0.74956  1.0000
  C   C14       1.0  0.37971  0.84702  0.016569999999999974  1.0000
  C   C15       1.0  0.64728  0.94169  0.9179100000000001  1.0000
  C   C16       1.0  0.4590300000000001  0.12581  0.97259  1.0000
  Mn  Mn11      1.0  0.20812  0.04381000000000001  0.55317  1.0000
  Mn  Mn12      1.0  0.12213000000000002  0.9144  0.51805  1.0000
  Mn  Mn13      1.0  0.7691300000000001  0.9354099999999999  0.44925  1.0000
  Mn  Mn14      1.0  0.85717  0.06091  0.48446  1.0000
  Mn  Mn15      1.0  0.98895  0.98493  0.50118  1.0000
  C   C17       1.0  0.17950999999999998  0.95906  0.68288  1.0000
  N   N65       1.0  0.17801  0.9671399999999999  0.61859  1.0000
  N   N66       1.0  0.14860999999999994  0.9146200000000001  0.60439  1.0000
  N   N67       1.0  0.13391  0.87338  0.65718  1.0000
  N   N68       1.0  0.15308  0.89974  0.70744  1.0000
  N   N69       1.0  0.04148999999999997  0.8299099999999999  0.6143400000000001  1.0000
  N   N70       1.0  0.047990000000000005  0.87554  0.5645  1.0000
  N   N71       1.0  0.99964  0.9029699999999999  0.56036  1.0000
  N   N72       1.0  0.9600899999999999  0.87643  0.60757  1.0000
  C   C18       1.0  0.9866199999999999  0.83022  0.6402900000000001  1.0000
  C   C19       1.0  0.09970999999999998  0.9445700000000001  0.33027  1.0000
  N   N73       1.0  0.09638999999999999  0.92046  0.43156000000000005  1.0000
  N   N74       1.0  0.13056  0.9202  0.37255  1.0000
  N   N75       1.0  0.047270000000000006  0.04068  0.53501  1.0000
  N   N76       1.0  0.09606  0.013919999999999998  0.53729  1.0000
  N   N77       1.0  0.12870000000000006  0.06329  0.55098  1.0000
  N   N78       1.0  0.10211  0.12391  0.56086  1.0000
  N   N79       1.0  0.04768000000000001  0.94597  0.42596000000000006  1.0000
  N   N80       1.0  0.04821999999999999  0.9611599999999999  0.36305  1.0000
  C   C20       1.0  0.05102  0.10954999999999998  0.55113  1.0000
  N   N81       1.0  0.80175  0.010559999999999901  0.38243000000000005  1.0000
  N   N82       1.0  0.8310599999999999  0.06284  0.39757  1.0000
  N   N83       1.0  0.8549  0.09673999999999999  0.34264  1.0000
  N   N84       1.0  0.84269  0.06544  0.29022  1.0000
  N   N85       1.0  0.9404299999999999  0.15025  0.39497  1.0000
  N   N86       1.0  0.93176  0.09739  0.43813  1.0000
  N   N87       1.0  0.97911  0.06723  0.44199  1.0000
  N   N88       1.0  0.020380000000000006  0.09924  0.40173  1.0000
  N   N89       1.0  0.93583  0.02540000000000009  0.63907  1.0000
  N   N90       1.0  0.9303799999999999  0.02378999999999998  0.57656  1.0000
  N   N91       1.0  0.88347  0.0544  0.57082  1.0000
  N   N92       1.0  0.85666  0.07766  0.6295000000000001  1.0000
  N   N93       1.0  0.93008  0.931  0.46725  1.0000
  N   N94       1.0  0.88163  0.9598399999999999  0.46592  1.0000
  N   N95       1.0  0.84753  0.9117299999999999  0.45359  1.0000
  N   N96       1.0  0.87267  0.85012  0.44334  1.0000
  Cl  Cl5       1.0  0.20512  0.96321  0.47196  1.0000
  Cl  Cl6       1.0  0.77344  0.015209999999999944  0.53073  1.0000
  C   C21       1.0  0.81074  0.010620000000000074  0.31545  1.0000
  C   C22       1.0  0.99589  0.15029  0.37243000000000004  1.0000
  C   C23       1.0  0.8898999999999999  0.05893  0.67136  1.0000
  C   C24       1.0  0.92462  0.8624499999999999  0.45119000000000004  1.0000
  C   C25       1.0  0.00633999999999999  0.16488999999999998  0.55783  1.0000
  C   C26       1.0  0.9855200000000001  0.18697  0.63099  1.0000
  C   C27       1.0  0.019639999999999994  0.2459  0.6551  1.0000
  C   C28       1.0  0.0012300000000000034  0.31529999999999997  0.6299  1.0000
  C   C29       1.0  0.00960999999999999  0.37932  0.65126  1.0000
  C   C30       1.0  0.03125999999999998  0.39711  0.71033  1.0000
  I   I1        1.0  0.06934  0.49756000000000006  0.7034  1.0000
  C   C31       1.0  0.020060000000000015  0.36034999999999995  0.76796  1.0000
  C   C32       1.0  0.9938099999999999  0.29019  0.77421  1.0000
  I   I2        1.0  0.94498  0.26029  0.8678999999999999  1.0000
  C   C33       1.0  0.012249999999999992  0.23906  0.73031  1.0000
  I   I3        1.0  0.03886  0.14226  0.76767  1.0000
  H   H1        1.0  0.97062  0.14493  0.53986  1.0000
  H   H2        1.0  0.022229999999999975  0.2106  0.5258700000000001  1.0000
  H   H3        1.0  0.9840999999999998  0.13925999999999997  0.6621900000000001  1.0000
  H   H4        1.0  0.94148  0.20433999999999997  0.63807  1.0000
  H   H5        1.0  0.06430999999999999  0.23804999999999998  0.6327600000000001  1.0000
  H   H6        1.0  0.98487  0.31395  0.58498  1.0000
  H   H7        1.0  0.9995699999999998  0.42324  0.62203  1.0000
  C   C34       1.0  0.80215  0.9486099999999998  0.2745  1.0000
  C   C35       1.0  0.7847  0.88404  0.31906  1.0000
  C   C36       1.0  0.78164  0.8151299999999999  0.28131  1.0000
  C   C37       1.0  0.74974  0.7596999999999999  0.32639  1.0000
  C   C38       1.0  0.69525  0.7641  0.35304  1.0000
  C   C39       1.0  0.65963  0.8247  0.34343  1.0000
  I   I4        1.0  0.6004  0.85544  0.42946  1.0000
  C   C40       1.0  0.66633  0.8612399999999999  0.28565  1.0000
  C   C41       1.0  0.70446  0.838  0.22351  1.0000
  I   I5        1.0  0.66878  0.8273799999999999  0.13985  1.0000
  C   C42       1.0  0.7583299999999998  0.82356  0.21988000000000002  1.0000
  I   I6        1.0  0.81661  0.81594  0.1272  1.0000
  H   H8        1.0  0.84166  0.93676  0.23881  1.0000
  H   H9        1.0  0.77049  0.96267  0.24564  1.0000
  H   H10       1.0  0.74489  0.89662  0.35347000000000006  1.0000
  H   H11       1.0  0.81565  0.87489  0.34998000000000007  1.0000
  H   H12       1.0  0.8248199999999999  0.79517  0.26523  1.0000
  H   H13       1.0  0.77246  0.7142899999999999  0.33857  1.0000
  H   H14       1.0  0.67722  0.72383  0.3882  1.0000
  C   C43       1.0  0.9684099999999998  0.80573  0.44136  1.0000
  C   C44       1.0  0.9788399999999999  0.77525  0.36969  1.0000
  C   C45       1.0  0.02103999999999999  0.71384  0.36045000000000005  1.0000
  C   C46       1.0  0.99878  0.64862  0.39716  1.0000
  C   C47       1.0  0.9654  0.60351  0.37683000000000005  1.0000
  C   C48       1.0  0.9472799999999999  0.60556  0.31284  1.0000
  I   I7        1.0  0.86671  0.56082  0.32608  1.0000
  C   C49       1.0  0.98169  0.61855  0.25262000000000007  1.0000
  C   C50       1.0  0.03860000000000001  0.65043  0.24754  1.0000
  I   I8        1.0  0.10691  0.61556  0.17027  1.0000
  C   C51       1.0  0.0508  0.70073  0.28895  1.0000
  I   I9        1.0  0.12314999999999998  0.7643  0.26074  1.0000
  H   H15       1.0  0.95382  0.7633199999999999  0.47814000000000006  1.0000
  H   H16       1.0  0.0075099999999999984  0.82576  0.4516  1.0000
  H   H17       1.0  0.99518  0.81792  0.33385  1.0000
  H   H18       1.0  0.93936  0.7571  0.35822000000000004  1.0000
  H   H19       1.0  0.05420000000000002  0.73025  0.38604000000000005  1.0000
  H   H20       1.0  0.007759999999999991  0.63979  0.44608  1.0000
  H   H21       1.0  0.94894  0.56178  0.41129000000000004  1.0000
  C   C52       1.0  0.12465999999999999  0.9786299999999999  0.26557  1.0000
  C   C53       1.0  0.14997  0.04894  0.27994  1.0000
  C   C54       1.0  0.16835999999999998  0.09425  0.21702000000000002  1.0000
  C   C55       1.0  0.18472  0.16548  0.23487000000000002  1.0000
  C   C56       1.0  0.23474  0.18625  0.24082  1.0000
  C   C57       1.0  0.28845999999999994  0.14787  0.22642000000000004  1.0000
  I   I10       1.0  0.35317  0.21553  0.24145  1.0000
  C   C58       1.0  0.29951  0.08226  0.20085000000000003  1.0000
  C   C59       1.0  0.25878  0.03531  0.1801  1.0000
  I   I11       1.0  0.2765200000000001  0.92583  0.17706  1.0000
  C   C60       1.0  0.21132  0.05806999999999999  0.16569  1.0000
  I   I12       1.0  0.18341  0.02023  0.08185  1.0000
  H   H22       1.0  0.15650999999999998  0.9431699999999998  0.23671  1.0000
  H   H23       1.0  0.09196000000000003  0.988  0.23672  1.0000
  H   H24       1.0  0.18560999999999997  0.0389600000000001  0.30406  1.0000
  H   H25       1.0  0.11853  0.07924  0.31596  1.0000
  H   H26       1.0  0.13129999999999997  0.10288  0.19527  1.0000
  H   H27       1.0  0.15113  0.203  0.24909000000000003  1.0000
  H   H28       1.0  0.2363  0.23984  0.25741  1.0000
  C   C61       1.0  0.027530000000000058  0.19474  0.31675  1.0000
  C   C62       1.0  0.9961  0.25874  0.29741  1.0000
  C   C63       1.0  0.95275  0.24219  0.25523  1.0000
  C   C64       1.0  0.9110899999999998  0.30062  0.25777  1.0000
  C   C65       1.0  0.92469  0.36410999999999993  0.23266000000000003  1.0000
  C   C66       1.0  0.98137  0.38255999999999996  0.19953000000000004  1.0000
  I   I13       1.0  0.023579999999999927  0.4470799999999999  0.25577  1.0000
  C   C67       1.0  0.010809999999999986  0.34717999999999993  0.14717000000000002  1.0000
  C   C68       1.0  0.003579999999999916  0.26984  0.13584  1.0000
  I   I14       1.0  0.046099999999999995  0.22907  0.0409  1.0000
  C   C69       1.0  0.9785599999999998  0.2234  0.1836  1.0000
  I   I15       1.0  0.97541  0.11353  0.16432  1.0000
  H   H29       1.0  0.06437000000000002  0.21446999999999997  0.33361  1.0000
  H   H30       1.0  0.04299000000000008  0.16133  0.27253  1.0000
  H   H31       1.0  0.02821000000000007  0.29323  0.26822  1.0000
  H   H32       1.0  0.9762999999999998  0.28761  0.34335000000000004  1.0000
  H   H33       1.0  0.92866  0.19648  0.27871  1.0000
  H   H34       1.0  0.8685799999999999  0.29143  0.28306  1.0000
  H   H35       1.0  0.8934799999999999  0.40519999999999995  0.23987000000000003  1.0000
  C   C70       1.0  0.52878  0.79951  0.044620000000000104  1.0000
  C   C71       1.0  0.58497  0.76099  0.032200000000000006  1.0000
  C   C72       1.0  0.58786  0.69705  0.9856000000000001  1.0000
  C   C73       1.0  0.6279600000000001  0.70686  0.9207099999999999  1.0000
  C   C74       1.0  0.68244  0.71069  0.91476  1.0000
  C   C75       1.0  0.71224  0.70422  0.96974  1.0000
  I   I16       1.0  0.7881299999999999  0.76035  0.94906  1.0000
  C   C76       1.0  0.6982499999999999  0.6623299999999999  0.02461000000000002  1.0000
  C   C77       1.0  0.64757  0.61672  0.04009000000000001  1.0000
  I   I17       1.0  0.65095  0.52718  0.10325  1.0000
  C   C78       1.0  0.59973  0.62985  0.01951  1.0000
  I   I18       1.0  0.53093  0.56019  0.04103  1.0000
  H   H36       1.0  0.5263  0.8307399999999999  2.999999999997449e-05  1.0000
  H   H37       1.0  0.49432  0.76129  0.053220000000000045  1.0000
  H   H38       1.0  0.5926600000000001  0.74234  0.08087000000000001  1.0000
  H   H39       1.0  0.6179399999999999  0.79951  0.012110000000000287  1.0000
  H   H40       1.0  0.54694  0.69119  0.97212  1.0000
  H   H41       1.0  0.61143  0.7145699999999999  0.8763000000000001  1.0000
  H   H42       1.0  0.70684  0.72342  0.86579  1.0000
  C   C79       1.0  0.88051  0.23682  0.04281  1.0000
  C   C80       1.0  0.82559  0.24478  0.01824  1.0000
  C   C81       1.0  0.80061  0.17395  0.00399  1.0000
  C   C82       1.0  0.7859  0.13221  0.06778  1.0000
  C   C83       1.0  0.7425299999999999  0.14711  0.11625  1.0000
  C   C84       1.0  0.69483  0.18786  0.10531000000000001  1.0000
  I   I19       1.0  0.6502400000000002  0.23948999999999998  0.19208  1.0000
  C   C85       1.0  0.67011  0.16629  0.056740000000000006  1.0000
  C   C86       1.0  0.6994899999999998  0.17389  0.98525  1.0000
  I   I20       1.0  0.6466499999999998  0.18682  0.9152700000000001  1.0000
  C   C87       1.0  0.75522  0.18387  0.96393  1.0000
  I   I21       1.0  0.78797  0.21814999999999998  0.8637  1.0000
  H   H43       1.0  0.87331  0.20736999999999997  0.09075  1.0000
  H   H44       1.0  0.91187  0.20750999999999997  0.00615  1.0000
  H   H45       1.0  0.8335  0.27801  0.97262  1.0000
  H   H46       1.0  0.7945999999999999  0.27343999999999996  0.056240000000000005  1.0000
  H   H47       1.0  0.83408  0.14346  0.9710200000000001  1.0000
  H   H48       1.0  0.81773  0.09838  0.08031  1.0000
  H   H49       1.0  0.74052  0.12435999999999998  0.16522  1.0000
  C   C88       1.0  0.39738999999999997  0.027809999999999887  0.68664  1.0000
  C   C89       1.0  0.38341999999999987  0.9818399999999999  0.63109  1.0000
  C   C90       1.0  0.32065  0.97229  0.63485  1.0000
  C   C91       1.0  0.30069  0.91193  0.68417  1.0000
  C   C92       1.0  0.26728  0.91598  0.74507  1.0000
  C   C93       1.0  0.23302999999999996  0.9777799999999999  0.76608  1.0000
  I   I22       1.0  0.25691  0.04208999999999996  0.83818  1.0000
  C   C94       1.0  0.20933  0.005940000000000001  0.71975  1.0000
  C   C95       1.0  0.24141  0.060489999999999995  0.67939  1.0000
  I   I23       1.0  0.20225999999999997  0.16058  0.68311  1.0000
  C   C96       1.0  0.29033  0.044329999999999994  0.63821  1.0000
  I   I24       1.0  0.32708000000000004  0.12035999999999998  0.56527  1.0000
  H   H50       1.0  0.36889  0.07339999999999969  0.69874  1.0000
  H   H51       1.0  0.43931  0.049679999999999946  0.66747  1.0000
  H   H52       1.0  0.4048  0.9300899999999999  0.63032  1.0000
  H   H53       1.0  0.40235  0.006119999999999903  0.58231  1.0000
  H   H54       1.0  0.3173600000000001  0.95099  0.58559  1.0000
  H   H55       1.0  0.32031  0.8614399999999999  0.67079  1.0000
  H   H56       1.0  0.26248  0.87076  0.77791  1.0000
  C   C97       1.0  0.99641  0.60252  0.86863  1.0000
  C   C98       1.0  0.9816199999999998  0.64209  0.8080200000000001  1.0000
  C   C99       1.0  0.93248  0.69531  0.8252400000000001  1.0000
  C   C100      1.0  0.94506  0.76013  0.85917  1.0000
  C   C101      1.0  0.958  0.82246  0.83154  1.0000
  C   C102      1.0  0.97337  0.83989  0.76005  1.0000
  I   I25       1.0  0.01301  0.9394299999999999  0.74562  1.0000
  C   C103      1.0  0.96252  0.8032  0.70798  1.0000
  C   C104      1.0  0.92066  0.7462  0.71386  1.0000
  I   I26       1.0  0.88616  0.72968  0.62746  1.0000
  C   C105      1.0  0.90311  0.70535  0.7683  1.0000
  I   I27       1.0  0.83481  0.63547  0.77415  1.0000
  H   H57       1.0  0.03342999999999996  0.56879  0.8510400000000001  1.0000
  H   H58       1.0  0.0073499999999999625  0.64222  0.90267  1.0000
  H   H59       1.0  0.97193  0.60194  0.7733500000000001  1.0000
  H   H60       1.0  0.018909999999999986  0.67021  0.7808  1.0000
  H   H61       1.0  0.90031  0.6726599999999999  0.86485  1.0000
  H   H62       1.0  0.94107  0.7563599999999999  0.9128100000000001  1.0000
  H   H63       1.0  0.96333  0.86366  0.8655800000000001  1.0000
  C   C106      1.0  0.87886  0.07567  0.7442  1.0000
  C   C107      1.0  0.82414  0.043949999999999934  0.78085  1.0000
  C   C108      1.0  0.8273699999999999  0.9635200000000002  0.7919  1.0000
  C   C109      1.0  0.8412199999999999  0.9471099999999999  0.85756  1.0000
  C   C110      1.0  0.8061600000000002  0.94748  0.91679  1.0000
  C   C111      1.0  0.74486  0.9563199999999998  0.9332800000000001  1.0000
  I   I28       1.0  0.71899  0.97854  0.0363800000000003  1.0000
  C   C112      1.0  0.7088199999999999  0.94986  0.8918000000000001  1.0000
  C   C113      1.0  0.7263999999999999  0.94874  0.81731  1.0000
  I   I29       1.0  0.68226  0.01652000000000009  0.76317  1.0000
  C   C114      1.0  0.7759399999999999  0.92733  0.78296  1.0000
  I   I30       1.0  0.7816899999999999  0.88699  0.68524  1.0000
  H   H64       1.0  0.8767899999999998  0.13359999999999997  0.74952  1.0000
  H   H65       1.0  0.91336  0.05614999999999992  0.76652  1.0000
  H   H66       1.0  0.79304  0.0577399999999999  0.75119  1.0000
  H   H67       1.0  0.81035  0.07020000000000004  0.82966  1.0000
  H   H68       1.0  0.8621099999999999  0.9415799999999999  0.75369  1.0000
  H   H69       1.0  0.88484  0.9417899999999999  0.8575800000000001  1.0000
  H   H70       1.0  0.82553  0.93994  0.95899  1.0000
  C   C115      1.0  0.32809  0.80354  0.0366  1.0000
  C   C116      1.0  0.2787  0.8394799999999999  0.014450000000000001  1.0000
  C   C117      1.0  0.22531  0.79277  0.02329  1.0000
  C   C118      1.0  0.17741  0.83372  0.06593  1.0000
  C   C119      1.0  0.12277  0.82469  0.07331  1.0000
  C   C120      1.0  0.09492999999999999  0.76715  0.04674  1.0000
  I   I31       1.0  0.01146  0.7525699999999999  0.09855  1.0000
  C   C121      1.0  0.11888999999999995  0.7290599999999999  0.9934800000000001  1.0000
  C   C122      1.0  0.16596  0.7557999999999999  0.94251  1.0000
  I   I32       1.0  0.15244  0.75299  0.84305  1.0000
  C   C123      1.0  0.21570999999999996  0.77227  0.9547500000000001  1.0000
  I   I33       1.0  0.28703000000000006  0.74719  0.87765  1.0000
  H   H71       1.0  0.31805  0.79561  0.09146  1.0000
  H   H72       1.0  0.3362  0.75123  0.01292  1.0000
  H   H73       1.0  0.29172000000000003  0.8587299999999999  0.96235  1.0000
  H   H74       1.0  0.2705  0.88962  0.041760000000000005  1.0000
  H   H75       1.0  0.231  0.74388  0.051100000000000007  1.0000
  H   H76       1.0  0.1881  0.87061  0.10065  1.0000
  H   H77       1.0  0.09637  0.85795  0.10961000000000001  1.0000
  C   C124      1.0  0.29084  0.23654  0.9209700000000001  1.0000
  C   C125      1.0  0.34315  0.27014  0.93771  1.0000
  C   C126      1.0  0.3393  0.2893  0.01225  1.0000
  C   C127      1.0  0.30207  0.24284  0.06062  1.0000
  C   C128      1.0  0.3123  0.17475  0.06600000000000002  1.0000
  C   C129      1.0  0.3617  0.1381  0.027930000000000003  1.0000
  I   I34       1.0  0.34153  0.04541  0.98104  1.0000
  C   C130      1.0  0.41437  0.16161999999999999  0.02089  1.0000
  C   C131      1.0  0.42664  0.23459  0.03918  1.0000
  I   I35       1.0  0.50258  0.24556  0.07072  1.0000
  C   C132      1.0  0.39513  0.29212  0.0318  1.0000
  I   I36       1.0  0.41885999999999995  0.39479  0.05399  1.0000
  H   H78       1.0  0.3051900000000001  0.20151  0.87754  1.0000
  H   H79       1.0  0.26843999999999996  0.20172  0.96082  1.0000
  H   H80       1.0  0.35465  0.31761  0.90616  1.0000
  H   H81       1.0  0.37783999999999995  0.23255  0.9218000000000001  1.0000
  H   H82       1.0  0.3203499999999999  0.34258  0.01876  1.0000
  H   H83       1.0  0.26248  0.26369  0.08664  1.0000
  H   H84       1.0  0.27859  0.1436  0.09184  1.0000
