data_image0
_chemical_formula_structural       Mn5CN8C2N8CN16Cl2C4Mn5CN8C2N8CN16Cl2C4Mn5CN8C2N8CN16Cl2C8FCFC3FCFC2FCFCFCFH4C4FCFC3FCFC2FCFCFCFH4C4FCFC3FCFC2FCFCFCFH4C4FCFC3FCFC2FCFCFCFH4C4FCFC3FCFC2FCFCFCFH4C4FCFC3FCFC2FCFCFCFH4C4FCFC3FCFC2FCFCFCFH4C4FCFC3FCFC2FCFCFCFH4C4FCFC3FCFC2FCFCFCFH4C4FCFC3FCFC2FCFCFCFH4C4FCFC3FCFC2FCFCFCFH4C4FCFC3FCFC2FCFCFCFH4
_chemical_formula_sum              "Mn15 C192 N96 Cl6 F96 H48"
_cell_length_a       33.3587
_cell_length_b       20.5254
_cell_length_c       29.812500000000004
_cell_angle_alpha    90.98819999999999
_cell_angle_beta     77.75749999999998
_cell_angle_gamma    94.9268

_symmetry_space_group_name_H-M    'P 1'
_symmetry_Int_Tables_number       1

loop_
  _symmetry_equiv_pos_as_xyz
  'x,y,z'

loop_
  _atom_site_type_symbol
  _atom_site_label
  _atom_site_symmetry_multiplicity
  _atom_site_fract_x
  _atom_site_fract_y
  _atom_site_fract_z
  _atom_site_occupancy
  Mn  Mn1       1.0  0.17201  0.39642  0.019119999999999995  1.0000
  Mn  Mn2       1.0  0.12444000000000002  0.4682299999999999  0.9436099999999997  1.0000
  Mn  Mn3       1.0  0.8715699999999998  0.6164  0.9603499999999999  1.0000
  Mn  Mn4       1.0  0.9138599999999999  0.5441199999999999  0.04029  1.0000
  Mn  Mn5       1.0  0.020160000000000018  0.50728  0.9956499999999999  1.0000
  C   C1        1.0  0.17896000000000004  0.29895999999999995  0.9394399999999998  1.0000
  N   N1        1.0  0.16264000000000006  0.35117  0.9612999999999998  1.0000
  N   N2        1.0  0.14315  0.3772  0.9329299999999998  1.0000
  N   N3        1.0  0.14689000000000005  0.34262999999999993  0.8946399999999998  1.0000
  N   N4        1.0  0.16920000000000004  0.29292  0.8977299999999998  1.0000
  N   N5        1.0  0.0769  0.4131099999999999  0.87781  1.0000
  N   N6        1.0  0.07551999999999996  0.44409999999999994  0.91707  1.0000
  N   N7        1.0  0.03775999999999998  0.45791  0.93536  1.0000
  N   N8        1.0  0.012770000000000031  0.43583999999999995  0.9082499999999998  1.0000
  C   C2        1.0  0.03770000000000004  0.40807  0.8725199999999997  1.0000
  C   C3        1.0  0.11433  0.65607  0.97772  1.0000
  N   N9        1.0  0.10687  0.55869  0.9554599999999998  1.0000
  N   N10       1.0  0.1344  0.60898  0.9531199999999997  1.0000
  N   N11       1.0  0.05457  0.44961  0.0264  1.0000
  N   N12       1.0  0.09308  0.44039  0.006429999999999999  1.0000
  N   N13       1.0  0.11120999999999999  0.41002  0.03419999999999999  1.0000
  N   N14       1.0  0.08505999999999997  0.3956299999999999  0.07302999999999997  1.0000
  N   N15       1.0  0.07093000000000003  0.5736  0.9798099999999997  1.0000
  N   N16       1.0  0.07466000000000002  0.6342099999999999  0.9957999999999998  1.0000
  C   C4        1.0  0.04967  0.4195  0.06804999999999997  1.0000
  N   N17       1.0  0.87352  0.65864  0.0218  1.0000
  N   N18       1.0  0.8933099999999998  0.6345099999999999  0.05085  1.0000
  N   N19       1.0  0.88432  0.66463  0.09082999999999997  1.0000
  N   N20       1.0  0.85804  0.70881  0.08842  1.0000
  N   N21       1.0  0.95769  0.60415  0.10868  1.0000
  N   N22       1.0  0.9612199999999999  0.56826  0.07124  1.0000
  N   N23       1.0  0.00012999999999996112  0.55624  0.05572  1.0000
  N   N24       1.0  0.023190000000000047  0.58465  0.08291999999999997  1.0000
  N   N25       1.0  0.9710999999999999  0.37909999999999994  0.9963599999999999  1.0000
  N   N26       1.0  0.97074  0.4402899999999999  0.01114  1.0000
  N   N27       1.0  0.93235  0.45403  0.027159999999999993  1.0000
  N   N28       1.0  0.90661  0.40282  0.022879999999999994  1.0000
  N   N29       1.0  0.9870000000000003  0.56486  0.9633699999999997  1.0000
  N   N30       1.0  0.94818  0.57503  0.9803499999999999  1.0000
  N   N31       1.0  0.9325800000000001  0.60526  0.95031  1.0000
  N   N32       1.0  0.9607399999999999  0.61738  0.9123699999999998  1.0000
  Cl  Cl1       1.0  0.17910000000000006  0.49072  0.9775099999999999  1.0000
  Cl  Cl2       1.0  0.8622300000000002  0.52204  0.0018199999999997105  1.0000
  C   C5        1.0  0.8506099999999998  0.7037899999999999  0.04555999999999999  1.0000
  C   C6        1.0  0.99623  0.6144299999999999  0.11582  1.0000
  C   C7        1.0  0.9311  0.3562  0.00442  1.0000
  C   C8        1.0  0.99474  0.59247  0.92082  1.0000
  Mn  Mn6       1.0  0.56849  0.94483  0.16779  1.0000
  Mn  Mn7       1.0  0.5270999999999999  0.05929  0.11176999999999997  1.0000
  Mn  Mn8       1.0  0.44372999999999996  0.05131999999999999  0.8378699999999998  1.0000
  Mn  Mn9       1.0  0.4780899999999999  0.9349199999999999  0.8985799999999998  1.0000
  Mn  Mn10      1.0  0.50407  0.9986599999999999  0.00422  1.0000
  C   C9        1.0  0.63928  0.05301  0.14400999999999994  1.0000
  N   N33       1.0  0.60041  0.029859999999999998  0.14438  1.0000
  N   N34       1.0  0.58518  0.07375999999999999  0.12260999999999997  1.0000
  N   N35       1.0  0.6135  0.12255  0.10889999999999997  1.0000
  N   N36       1.0  0.64788  0.11105  0.12197999999999998  1.0000
  N   N37       1.0  0.57294  0.1557  0.04496  1.0000
  N   N38       1.0  0.54349  0.10757  0.051259999999999986  1.0000
  N   N39       1.0  0.54042  0.08113  0.011399999999999997  1.0000
  N   N40       1.0  0.5694900000000002  0.1091  0.9783899999999998  1.0000
  C   C10       1.0  0.58926  0.15655999999999998  0.9996999999999999  1.0000
  C   C11       1.0  0.4066  0.0112  0.11303999999999997  1.0000
  N   N41       1.0  0.4702  0.03903  0.10126  1.0000
  N   N42       1.0  0.43681  0.03401  0.13432  1.0000
  N   N43       1.0  0.53497  0.9495599999999998  0.04342  1.0000
  N   N44       1.0  0.54193  0.9732599999999998  0.08268999999999999  1.0000
  N   N45       1.0  0.5581899999999999  0.9298499999999998  0.10379999999999999  1.0000
  N   N46       1.0  0.56379  0.87666  0.07853  1.0000
  N   N47       1.0  0.46153  0.01946000000000003  0.06173999999999999  1.0000
  N   N48       1.0  0.42147  0.00154999999999994  0.06778999999999998  1.0000
  C   C12       1.0  0.54978  0.8894699999999999  0.040359999999999986  1.0000
  N   N49       1.0  0.4076  0.9717099999999999  0.86509  1.0000
  N   N50       1.0  0.42067  0.9257199999999999  0.8871899999999998  1.0000
  N   N51       1.0  0.38972999999999997  0.88252  0.9045799999999998  1.0000
  N   N52       1.0  0.35558000000000006  0.90044  0.8939899999999997  1.0000
  N   N53       1.0  0.4369  0.8353999999999999  0.9668199999999998  1.0000
  N   N54       1.0  0.45915  0.8920999999999999  0.9597299999999997  1.0000
  N   N55       1.0  0.46765  0.91556  0.9983299999999998  1.0000
  N   N56       1.0  0.45081999999999994  0.8748599999999999  0.03245999999999999  1.0000
  N   N57       1.0  0.5862500000000002  0.98553  0.9395599999999998  1.0000
  N   N58       1.0  0.54569  0.97547  0.9463999999999998  1.0000
  N   N59       1.0  0.53519  0.94837  0.9095399999999998  1.0000
  N   N60       1.0  0.56821  0.9395799999999999  0.87763  1.0000
  N   N61       1.0  0.47419  0.04903999999999999  0.9641999999999997  1.0000
  N   N62       1.0  0.4668  0.023789999999999995  0.9252999999999998  1.0000
  N   N63       1.0  0.45470000000000005  0.06834000000000001  0.9010599999999998  1.0000
  N   N64       1.0  0.4532500000000001  0.12441  0.9228899999999998  1.0000
  Cl  Cl3       1.0  0.51186  0.00317999999999996  0.17909999999999995  1.0000
  Cl  Cl4       1.0  0.4968299999999999  0.98634  0.8294999999999998  1.0000
  C   C13       1.0  0.36719999999999986  0.9564199999999998  0.86976  1.0000
  C   C14       1.0  0.43157000000000006  0.8256399999999999  0.012270000000000003  1.0000
  C   C15       1.0  0.5997100000000001  0.96224  0.8967099999999998  1.0000
  C   C16       1.0  0.4654400000000001  0.11288  0.9624099999999998  1.0000
  Mn  Mn11      1.0  0.13798  0.13115  0.57065  1.0000
  Mn  Mn12      1.0  0.10148  0.99377  0.51874  1.0000
  Mn  Mn13      1.0  0.85837  0.86481  0.4398199999999999  1.0000
  Mn  Mn14      1.0  0.8949899999999998  0.00913  0.48420999999999986  1.0000
  Mn  Mn15      1.0  0.99729  0.0025699999999999994  0.50164  1.0000
  C   C17       1.0  0.13523000000000002  0.02121  0.6417899999999997  1.0000
  N   N65       1.0  0.12997000000000003  0.04247000000000001  0.60107  1.0000
  N   N66       1.0  0.11583000000000002  0.9902  0.5810999999999997  1.0000
  N   N67       1.0  0.11262000000000003  0.93835  0.6076299999999999  1.0000
  N   N68       1.0  0.12467  0.95621  0.64589  1.0000
  N   N69       1.0  0.05782  0.87197  0.56153  1.0000
  N   N70       1.0  0.05493000000000002  0.92414  0.5375999999999999  1.0000
  N   N71       1.0  0.016230000000000036  0.9301699999999999  0.5363699999999998  1.0000
  N   N72       1.0  0.9922000000000001  0.8823  0.56047  1.0000
  C   C18       1.0  0.018770000000000023  0.8462999999999999  0.5757299999999997  1.0000
  C   C19       1.0  0.08839999999999999  0.004790000000000071  0.38613  1.0000
  N   N73       1.0  0.08655999999999998  0.9998399999999997  0.4570599999999999  1.0000
  N   N74       1.0  0.11275000000000002  0.0018499999999999073  0.4168599999999999  1.0000
  N   N75       1.0  0.02733  0.07163  0.53683  1.0000
  N   N76       1.0  0.06497000000000006  0.06529  0.5425499999999998  1.0000
  N   N77       1.0  0.07876  0.11715999999999997  0.5632799999999998  1.0000
  N   N78       1.0  0.05041999999999999  0.15935  0.57275  1.0000
  N   N79       1.0  0.04863000000000003  0.00145  0.4512099999999999  1.0000
  N   N80       1.0  0.04844000000000002  0.00474  0.40699999999999986  1.0000
  C   C20       1.0  0.018129999999999986  0.1305  0.55678  1.0000
  N   N81       1.0  0.86885  0.94925  0.40435  1.0000
  N   N82       1.0  0.88206  0.00479  0.42100999999999994  1.0000
  N   N83       1.0  0.8887600000000001  0.0509  0.38919  1.0000
  N   N84       1.0  0.8802  0.025429999999999998  0.3507099999999999  1.0000
  N   N85       1.0  0.9383899999999996  0.12775  0.43691999999999986  1.0000
  N   N86       1.0  0.94097  0.07787999999999999  0.46314  1.0000
  N   N87       1.0  0.97925  0.0738  0.46650999999999987  1.0000
  N   N88       1.0  0.0035200000000000045  0.12084999999999999  0.4421  1.0000
  N   N89       1.0  0.94876  0.9935  0.59116  1.0000
  N   N90       1.0  0.9441899999999999  0.0035000000000000578  0.5522199999999999  1.0000
  N   N91       1.0  0.90703  0.01086  0.54828  1.0000
  N   N92       1.0  0.9353899999999999  0.99719  0.5747999999999998  1.0000
  N   N93       1.0  0.9690900000000002  0.9331599999999998  0.46712  1.0000
  N   N94       1.0  0.9303600000000001  0.9349699999999999  0.46525  1.0000
  N   N95       1.0  0.91703  0.8807  0.4468799999999999  1.0000
  N   N96       1.0  0.94717  0.8422599999999999  0.4340999999999999  1.0000
  Cl  Cl5       1.0  0.15269999999999997  0.07547  0.5025  1.0000
  Cl  Cl6       1.0  0.84322  0.9291199999999998  0.5037799999999998  1.0000
  C   C21       1.0  0.8681199999999998  0.9619299999999998  0.36076  1.0000
  C   C22       1.0  0.9774099999999999  0.15417999999999998  0.42408999999999997  1.0000
  C   C23       1.0  0.9173899999999998  0.9903399999999999  0.6244699999999997  1.0000
  C   C24       1.0  0.9798099999999998  0.87509  0.44711999999999996  1.0000
  C   C25       1.0  0.9797  0.16456  0.5583199999999998  1.0000
  C   C26       1.0  0.9526  0.16654  0.6066899999999997  1.0000
  C   C27       1.0  0.97069  0.20829999999999999  0.6409599999999998  1.0000
  C   C28       1.0  0.9872600000000001  0.17831  0.6742799999999998  1.0000
  F   F1        1.0  0.99204  0.1132  0.67241  1.0000
  C   C29       1.0  0.99837  0.21492  0.71027  1.0000
  F   F2        1.0  0.01418000000000001  0.18494999999999998  0.7420699999999999  1.0000
  C   C30       1.0  0.9924300000000003  0.28171  0.7140999999999997  1.0000
  C   C31       1.0  0.0030599999999999876  0.31900999999999996  0.75315  1.0000
  C   C32       1.0  0.04436  0.33736  0.75323  1.0000
  F   F3        1.0  0.07415999999999995  0.3255  0.71602  1.0000
  C   C33       1.0  0.055380000000000006  0.36725  0.79171  1.0000
  F   F4        1.0  0.09588  0.38441  0.7900599999999998  1.0000
  C   C34       1.0  0.025080000000000036  0.37921  0.8311599999999998  1.0000
  C   C35       1.0  0.9833699999999999  0.36255  0.83036  1.0000
  F   F5        1.0  0.95325  0.37322  0.8674999999999998  1.0000
  C   C36       1.0  0.97248  0.33255999999999997  0.7915299999999997  1.0000
  F   F6        1.0  0.93226  0.31479  0.79185  1.0000
  C   C37       1.0  0.9772399999999999  0.31248  0.68032  1.0000
  F   F7        1.0  0.9726  0.37759  0.6829899999999998  1.0000
  C   C38       1.0  0.9665599999999996  0.27609  0.6437799999999998  1.0000
  F   F8        1.0  0.95101  0.30663  0.6120299999999999  1.0000
  H   H1        1.0  0.9881499999999999  0.21507999999999997  0.54464  1.0000
  H   H2        1.0  0.9608200000000005  0.13874  0.53633  1.0000
  H   H3        1.0  0.92247  0.18390999999999996  0.6043  1.0000
  H   H4        1.0  0.94588  0.11608  0.61977  1.0000
  C   C39       1.0  0.85785  0.91134  0.32778  1.0000
  C   C40       1.0  0.81333  0.88097  0.34366  1.0000
  C   C41       1.0  0.78578  0.90606  0.31514  1.0000
  C   C42       1.0  0.77675  0.97181  0.3188  1.0000
  F   F9        1.0  0.78977  0.01133  0.3506399999999999  1.0000
  C   C43       1.0  0.75403  0.9969199999999999  0.2898799999999999  1.0000
  F   F10       1.0  0.74558  0.060509999999999994  0.2937899999999999  1.0000
  C   C44       1.0  0.7398599999999999  0.95637  0.25729  1.0000
  C   C45       1.0  0.71488  0.98178  0.22779999999999995  1.0000
  C   C46       1.0  0.73258  0.0007200000000000539  0.18247999999999995  1.0000
  F   F11       1.0  0.7734699999999999  0.9968999999999999  0.16562999999999994  1.0000
  C   C47       1.0  0.70799  0.02356999999999987  0.15449999999999997  1.0000
  F   F12       1.0  0.72539  0.041649999999999965  0.11065999999999997  1.0000
  C   C48       1.0  0.66549  0.026119999999999918  0.17156  1.0000
  C   C49       1.0  0.64802  0.00637  0.21680999999999995  1.0000
  F   F13       1.0  0.60726  0.01006  0.23443  1.0000
  C   C50       1.0  0.67268  0.98485  0.24481  1.0000
  F   F14       1.0  0.65541  0.96666  0.28864  1.0000
  C   C51       1.0  0.74734  0.8902299999999999  0.25471  1.0000
  F   F15       1.0  0.73192  0.8500999999999999  0.22468999999999995  1.0000
  C   C52       1.0  0.77021  0.865  0.2834399999999999  1.0000
  F   F16       1.0  0.77704  0.8006  0.2802899999999999  1.0000
  H   H5        1.0  0.8631699999999998  0.93311  0.29287999999999986  1.0000
  H   H6        1.0  0.87953  0.8727699999999998  0.3262  1.0000
  H   H7        1.0  0.81358  0.82706  0.3406399999999999  1.0000
  H   H8        1.0  0.80052  0.89077  0.38055  1.0000
  C   C53       1.0  0.022290000000000018  0.8511899999999998  0.43664999999999987  1.0000
  C   C54       1.0  0.021870000000000018  0.77604  0.4315499999999999  1.0000
  C   C55       1.0  0.019940000000000038  0.75335  0.3833899999999999  1.0000
  C   C56       1.0  0.9846300000000001  0.71839  0.37371999999999994  1.0000
  F   F17       1.0  0.95098  0.70389  0.40761999999999987  1.0000
  C   C57       1.0  0.9834500000000005  0.69896  0.3287199999999999  1.0000
  F   F18       1.0  0.9488200000000001  0.66535  0.32065  1.0000
  C   C58       1.0  0.017559999999999996  0.71418  0.29243  1.0000
  C   C59       1.0  0.015349999999999983  0.69644  0.24426999999999993  1.0000
  C   C60       1.0  0.98141  0.71155  0.22653999999999994  1.0000
  F   F19       1.0  0.95264  0.74869  0.25105  1.0000
  C   C61       1.0  0.9762699999999999  0.68748  0.18380999999999995  1.0000
  F   F20       1.0  0.94189  0.70056  0.16926  1.0000
  C   C62       1.0  0.005800000000000026  0.6497099999999999  0.15685  1.0000
  C   C63       1.0  0.042180000000000016  0.64169  0.17217999999999994  1.0000
  F   F21       1.0  0.0732  0.61101  0.14585  1.0000
  C   C64       1.0  0.046310000000000004  0.66285  0.21601999999999993  1.0000
  F   F22       1.0  0.07963  0.64716  0.23165  1.0000
  C   C65       1.0  0.05324000000000001  0.7474299999999999  0.3025599999999999  1.0000
  F   F23       1.0  0.08651  0.76426  0.26871  1.0000
  C   C66       1.0  0.05445  0.76619  0.34757  1.0000
  F   F24       1.0  0.08939999999999995  0.7977099999999999  0.35632  1.0000
  H   H9        1.0  0.04039999999999999  0.87569  0.40502  1.0000
  H   H10       1.0  0.038320000000000014  0.86551  0.46440999999999993  1.0000
  H   H11       1.0  0.05067000000000003  0.75996  0.4393799999999999  1.0000
  H   H12       1.0  0.9963099999999999  0.75181  0.4575799999999999  1.0000
  C   C67       1.0  0.10365000000000002  0.00713000000000008  0.3350999999999999  1.0000
  C   C68       1.0  0.12330999999999999  0.94385  0.31734  1.0000
  C   C69       1.0  0.16307  0.95717  0.28221  1.0000
  C   C70       1.0  0.16772  0.9312299999999999  0.23756999999999995  1.0000
  F   F25       1.0  0.13594  0.89536  0.22465  1.0000
  C   C71       1.0  0.20581  0.93933  0.20649999999999996  1.0000
  F   F26       1.0  0.21019  0.90868  0.16522  1.0000
  C   C72       1.0  0.23963  0.97513  0.2192  1.0000
  C   C73       1.0  0.28163  0.97837  0.18911  1.0000
  C   C74       1.0  0.2896  0.0015599999999999998  0.14357  1.0000
  F   F27       1.0  0.25846  0.01923  0.12479999999999998  1.0000
  C   C75       1.0  0.33023  0.00989  0.11781999999999997  1.0000
  F   F28       1.0  0.33732  0.03471  0.07467999999999997  1.0000
  C   C76       1.0  0.36338  0.99608  0.13743  1.0000
  C   C77       1.0  0.35515  0.9704  0.18208999999999995  1.0000
  F   F29       1.0  0.38628  0.95398  0.20141  1.0000
  C   C78       1.0  0.3148  0.9606699999999999  0.20725999999999994  1.0000
  F   F30       1.0  0.3080800000000001  0.9338599999999999  0.24978999999999996  1.0000
  C   C79       1.0  0.23416000000000003  0.00368  0.26313999999999993  1.0000
  F   F31       1.0  0.2655100000000001  0.04086  0.27595999999999987  1.0000
  C   C80       1.0  0.19684000000000001  0.99301  0.2947099999999999  1.0000
  F   F32       1.0  0.19394  0.01694  0.33789999999999987  1.0000
  H   H13       1.0  0.12554  0.05111999999999999  0.32635999999999993  1.0000
  H   H14       1.0  0.07751000000000001  0.013379999999999947  0.3181899999999999  1.0000
  H   H15       1.0  0.13017  0.91529  0.34579  1.0000
  H   H16       1.0  0.10036  0.9124699999999998  0.3028399999999999  1.0000
  C   C81       1.0  0.99037  0.20386999999999997  0.38643  1.0000
  C   C82       1.0  0.98505  0.17222  0.34062  1.0000
  C   C83       1.0  0.9825599999999999  0.22206  0.30475  1.0000
  C   C84       1.0  0.94553  0.22713  0.2898999999999999  1.0000
  F   F33       1.0  0.9107999999999999  0.18986999999999998  0.30947999999999987  1.0000
  C   C85       1.0  0.9441799999999999  0.26965  0.25405  1.0000
  F   F34       1.0  0.90824  0.27294  0.24012999999999995  1.0000
  C   C86       1.0  0.9797800000000001  0.30779  0.23238  1.0000
  C   C87       1.0  0.9807099999999999  0.34723  0.19070999999999994  1.0000
  C   C88       1.0  0.99687  0.41270999999999997  0.18861  1.0000
  F   F35       1.0  0.002240000000000025  0.44461  0.22747999999999993  1.0000
  C   C89       1.0  0.013589999999999988  0.44229  0.14618999999999996  1.0000
  F   F36       1.0  0.03835999999999996  0.49782  0.14575999999999995  1.0000
  C   C90       1.0  0.012750000000000039  0.4086  0.10497  1.0000
  C   C91       1.0  0.991  0.34647  0.10732  1.0000
  F   F37       1.0  0.99217  0.31024  0.06866  1.0000
  C   C92       1.0  0.9751  0.31594  0.14987999999999996  1.0000
  F   F38       1.0  0.95996  0.25237  0.15065  1.0000
  C   C93       1.0  0.016510000000000014  0.30366  0.24802999999999994  1.0000
  F   F39       1.0  0.05182  0.33822  0.22696999999999995  1.0000
  C   C94       1.0  0.017849999999999998  0.26139  0.28385  1.0000
  F   F40       1.0  0.05412  0.25687  0.29688  1.0000
  H   H17       1.0  0.9711699999999999  0.24597  0.3946099999999999  1.0000
  H   H18       1.0  0.023100000000000006  0.22185999999999997  0.3841299999999999  1.0000
  H   H19       1.0  0.011120000000000027  0.14183  0.3275599999999999  1.0000
  H   H20       1.0  0.9569199999999999  0.13771  0.34627999999999987  1.0000
  C   C95       1.0  0.55175  0.8430199999999999  0.00022999999999999995  1.0000
  C   C96       1.0  0.56675  0.7763899999999999  0.00908  1.0000
  C   C97       1.0  0.6113899999999999  0.78049  0.013379999999999996  1.0000
  C   C98       1.0  0.64318  0.7965799999999998  0.9750499999999998  1.0000
  F   F41       1.0  0.6342899999999999  0.81094  0.9342599999999998  1.0000
  C   C99       1.0  0.6843899999999998  0.7947899999999999  0.97781  1.0000
  F   F42       1.0  0.7144300000000001  0.8091599999999999  0.9400199999999997  1.0000
  C   C100      1.0  0.69456  0.7767  0.018909999999999993  1.0000
  C   C101      1.0  0.73745  0.7657  0.020269999999999993  1.0000
  C   C102      1.0  0.75849  0.80176  0.049839999999999995  1.0000
  F   F43       1.0  0.7412699999999998  0.8525399999999999  0.07411  1.0000
  C   C103      1.0  0.7967399999999999  0.7842099999999999  0.05576  1.0000
  F   F44       1.0  0.81579  0.81909  0.08551  1.0000
  C   C104      1.0  0.81422  0.7295099999999999  0.032719999999999985  1.0000
  C   C105      1.0  0.79337  0.69514  0.0019199999999999216  1.0000
  F   F45       1.0  0.8067900000000001  0.63955  0.9813999999999998  1.0000
  C   C106      1.0  0.7558000000000001  0.7137399999999999  0.9952899999999998  1.0000
  F   F46       1.0  0.7356700000000002  0.67738  0.9670999999999997  1.0000
  C   C107      1.0  0.66303  0.7619799999999999  0.05756  1.0000
  F   F47       1.0  0.67215  0.74306  0.09739999999999999  1.0000
  C   C108      1.0  0.62181  0.76355  0.0548  1.0000
  F   F48       1.0  0.59209  0.7465399999999999  0.09233999999999998  1.0000
  H   H21       1.0  0.52082  0.83313  0.9926899999999999  1.0000
  H   H22       1.0  0.5718  0.8657999999999999  0.96924  1.0000
  H   H23       1.0  0.54606  0.75449  0.04029999999999999  1.0000
  H   H24       1.0  0.5631500000000002  0.7421  0.9805599999999998  1.0000
  C   C109      1.0  0.91573  0.29393  0.9842799999999999  1.0000
  C   C110      1.0  0.88229  0.25336  0.018769999999999995  1.0000
  C   C111      1.0  0.84038  0.25125  0.00642  1.0000
  C   C112      1.0  0.80744  0.2806  0.034529999999999984  1.0000
  F   F49       1.0  0.81331  0.31592  0.07184999999999997  1.0000
  C   C113      1.0  0.76781  0.27182  0.025279999999999993  1.0000
  F   F50       1.0  0.73628  0.29811999999999994  0.054319999999999986  1.0000
  C   C114      1.0  0.76043  0.23357999999999998  0.98771  1.0000
  C   C115      1.0  0.71752  0.21486  0.9824299999999999  1.0000
  C   C116      1.0  0.68973  0.26236  0.98086  1.0000
  F   F51       1.0  0.70274  0.32692999999999994  0.9797599999999999  1.0000
  C   C117      1.0  0.6479300000000001  0.24367999999999998  0.9823199999999999  1.0000
  F   F52       1.0  0.6213  0.2905  0.98373  1.0000
  C   C118      1.0  0.6335  0.17721  0.9844199999999999  1.0000
  C   C119      1.0  0.66165  0.12990999999999997  0.9840799999999998  1.0000
  F   F53       1.0  0.64822  0.06558  0.9890399999999999  1.0000
  C   C120      1.0  0.70309  0.14838  0.9831999999999999  1.0000
  F   F54       1.0  0.72837  0.10123999999999998  0.98711  1.0000
  C   C121      1.0  0.7939300000000001  0.20768999999999999  0.95809  1.0000
  F   F55       1.0  0.78824  0.17335  0.9203199999999998  1.0000
  C   C122      1.0  0.8333499999999999  0.2157  0.96771  1.0000
  F   F56       1.0  0.8645500000000002  0.18632  0.9403299999999998  1.0000
  H   H25       1.0  0.9039499999999997  0.30724  0.95373  1.0000
  H   H26       1.0  0.94212  0.26402999999999993  0.97164  1.0000
  H   H27       1.0  0.89098  0.2022  0.01838000000000006  1.0000
  H   H28       1.0  0.8811  0.27059  0.054539999999999984  1.0000
  C   C123      1.0  0.33838999999999986  0.00036  0.85652  1.0000
  C   C124      1.0  0.3545499999999999  0.026579999999999996  0.80749  1.0000
  C   C125      1.0  0.31929  0.0418  0.78639  1.0000
  C   C126      1.0  0.29356  0.9899599999999998  0.7739999999999998  1.0000
  F   F57       1.0  0.30114  0.92696  0.7796899999999998  1.0000
  C   C127      1.0  0.2600799999999999  0.0024999999999999467  0.75545  1.0000
  F   F58       1.0  0.23660999999999996  0.9512  0.7423799999999998  1.0000
  C   C128      1.0  0.25177000000000005  0.06722  0.7486899999999999  1.0000
  C   C129      1.0  0.21696000000000004  0.0784  0.7272099999999999  1.0000
  C   C130      1.0  0.1774699999999999  0.05020999999999999  0.74694  1.0000
  F   F59       1.0  0.16915000000000005  0.026629999999999997  0.7905199999999998  1.0000
  C   C131      1.0  0.14799999999999996  0.03916  0.72014  1.0000
  F   F60       1.0  0.11180999999999999  0.00458  0.73837  1.0000
  C   C132      1.0  0.15757000000000004  0.05704999999999998  0.6734899999999998  1.0000
  C   C133      1.0  0.19468000000000002  0.09456  0.6560399999999997  1.0000
  F   F61       1.0  0.20444000000000007  0.11359999999999991  0.6114199999999997  1.0000
  C   C134      1.0  0.22445  0.10474  0.6827599999999998  1.0000
  F   F62       1.0  0.2621499999999999  0.13352999999999993  0.66334  1.0000
  C   C135      1.0  0.27813000000000004  0.11923999999999998  0.7597099999999999  1.0000
  F   F63       1.0  0.27133000000000007  0.18198  0.7521599999999998  1.0000
  C   C136      1.0  0.31177999999999995  0.10659  0.77847  1.0000
  F   F64       1.0  0.33699  0.15753  0.7887299999999998  1.0000
  H   H29       1.0  0.30749000000000004  0.9733099999999999  0.8607099999999998  1.0000
  H   H30       1.0  0.33547  0.04234  0.8806499999999998  1.0000
  H   H31       1.0  0.37611000000000006  0.07076  0.80865  1.0000
  H   H32       1.0  0.37238000000000004  0.9903  0.7852599999999998  1.0000
  C   C137      1.0  0.03438000000000003  0.5936199999999999  0.8857399999999997  1.0000
  C   C138      1.0  0.02845000000000004  0.56001  0.8406999999999998  1.0000
  C   C139      1.0  0.019570000000000042  0.60632  0.8057199999999998  1.0000
  C   C140      1.0  0.98117  0.6014299999999999  0.79277  1.0000
  F   F65       1.0  0.94979  0.55978  0.8151399999999998  1.0000
  C   C141      1.0  0.97513  0.63831  0.75588  1.0000
  F   F66       1.0  0.93835  0.63066  0.74301  1.0000
  C   C142      1.0  0.0074300000000000485  0.68049  0.7312599999999998  1.0000
  C   C143      1.0  0.0035400000000000258  0.71481  0.6889499999999997  1.0000
  C   C144      1.0  0.9753400000000001  0.76242  0.6900199999999997  1.0000
  F   F67       1.0  0.9478099999999999  0.77363  0.72936  1.0000
  C   C145      1.0  0.9774999999999995  0.80217  0.65139  1.0000
  F   F68       1.0  0.95275  0.85199  0.65472  1.0000
  C   C146      1.0  0.007839999999999993  0.79453  0.61131  1.0000
  C   C147      1.0  0.03375000000000005  0.74368  0.6094199999999997  1.0000
  F   F69       1.0  0.06326000000000002  0.7349999999999999  0.5712899999999999  1.0000
  C   C148      1.0  0.031350000000000024  0.7039099999999999  0.64759  1.0000
  F   F70       1.0  0.05777  0.65655  0.64495  1.0000
  C   C149      1.0  0.04514  0.68741  0.74569  1.0000
  F   F71       1.0  0.07649000000000004  0.72944  0.7236799999999998  1.0000
  C   C150      1.0  0.05119000000000005  0.65058  0.7823399999999998  1.0000
  F   F72       1.0  0.08851000000000005  0.65665  0.7940899999999997  1.0000
  H   H33       1.0  0.04769999999999999  0.64491  0.8796099999999999  1.0000
  H   H34       1.0  0.05686999999999999  0.5678599999999999  0.8992599999999997  1.0000
  H   H35       1.0  0.05705000000000006  0.53673  0.8250499999999997  1.0000
  H   H36       1.0  0.0038100000000000534  0.51937  0.8480599999999998  1.0000
  C   C151      1.0  0.87881  0.0258  0.6391499999999998  1.0000
  C   C152      1.0  0.8401900000000001  0.98121  0.6353099999999998  1.0000
  C   C153      1.0  0.8084  0.9811699999999999  0.6794799999999999  1.0000
  C   C154      1.0  0.81121  0.94017  0.7156799999999999  1.0000
  F   F73       1.0  0.8419599999999997  0.89974  0.7108099999999998  1.0000
  C   C155      1.0  0.7824800000000002  0.94067  0.7571899999999998  1.0000
  F   F74       1.0  0.7856599999999999  0.8998799999999999  0.79139  1.0000
  C   C156      1.0  0.75023  0.9818599999999998  0.7631599999999997  1.0000
  C   C157      1.0  0.7163500000000003  0.9749099999999999  0.8043299999999998  1.0000
  C   C158      1.0  0.70434  0.02888  0.8322399999999998  1.0000
  F   F75       1.0  0.72674  0.0877  0.8252899999999997  1.0000
  C   C159      1.0  0.6676500000000001  0.023399999999999997  0.8656999999999998  1.0000
  F   F76       1.0  0.6541799999999999  0.07781  0.8885199999999998  1.0000
  C   C160      1.0  0.64274  0.96411  0.8714899999999998  1.0000
  C   C161      1.0  0.6561699999999997  0.90942  0.8455599999999998  1.0000
  F   F77       1.0  0.6322  0.85206  0.8495399999999997  1.0000
  C   C162      1.0  0.6928099999999999  0.9146  0.8126899999999998  1.0000
  F   F78       1.0  0.70324  0.8619299999999998  0.7859999999999998  1.0000
  C   C163      1.0  0.74795  0.02409  0.72723  1.0000
  F   F79       1.0  0.71684  0.06384  0.7316799999999998  1.0000
  C   C164      1.0  0.77691  0.02382  0.6857299999999998  1.0000
  F   F80       1.0  0.7745400000000001  0.06588  0.6519199999999998  1.0000
  H   H37       1.0  0.8777100000000001  0.04246  0.675  1.0000
  H   H38       1.0  0.8798499999999999  0.07107  0.6189999999999998  1.0000
  H   H39       1.0  0.82746  0.9985499999999999  0.6065  1.0000
  H   H40       1.0  0.84759  0.9300399999999999  0.62635  1.0000
  C   C165      1.0  0.4101199999999999  0.7649  0.0363899999999997  1.0000
  C   C166      1.0  0.3712599999999999  0.7796  0.07177999999999994  1.0000
  C   C167      1.0  0.33259000000000005  0.7758  0.05231000000000007  1.0000
  C   C168      1.0  0.31267  0.8323399999999999  0.048039999999999985  1.0000
  F   F81       1.0  0.33083  0.89201  0.05522999999999999  1.0000
  C   C169      1.0  0.27348  0.8276699999999999  0.03742  1.0000
  F   F82       1.0  0.25426  0.88265  0.034989999999999986  1.0000
  C   C170      1.0  0.25379999999999997  0.7664  0.030559999999999695  1.0000
  C   C171      1.0  0.2119699999999999  0.7596999999999999  0.020529999999999937  1.0000
  C   C172      1.0  0.20712  0.7681099999999998  0.97549  1.0000
  F   F83       1.0  0.23948000000000003  0.79222  0.9427499999999998  1.0000
  C   C173      1.0  0.17059000000000005  0.7441599999999999  0.9626899999999998  1.0000
  F   F84       1.0  0.16853000000000004  0.7456199999999998  0.9177399999999998  1.0000
  C   C174      1.0  0.13857  0.71102  0.9946999999999999  1.0000
  C   C175      1.0  0.14114000000000002  0.7116899999999999  0.041119999999999816  1.0000
  F   F85       1.0  0.1101  0.68239  0.07299999999999997  1.0000
  C   C176      1.0  0.17801000000000003  0.7345499999999999  0.05387999999999993  1.0000
  F   F86       1.0  0.18176  0.72693  0.09791  1.0000
  C   C177      1.0  0.27468  0.7102199999999999  0.03197000000000005  1.0000
  F   F87       1.0  0.25687  0.6507699999999998  0.023239999999999924  1.0000
  C   C178      1.0  0.31363999999999986  0.7147  0.042950000000000044  1.0000
  F   F88       1.0  0.33220000000000005  0.65916  0.0462199999999997  1.0000
  H   H41       1.0  0.4025099999999999  0.72818  0.010930000000000106  1.0000
  H   H42       1.0  0.4319899999999999  0.74325  0.05420000000000002  1.0000
  H   H43       1.0  0.36639999999999995  0.7434  0.10011999999999999  1.0000
  H   H44       1.0  0.37637  0.82793  0.08791  1.0000
  C   C179      1.0  0.21233  0.2652  0.95355  1.0000
  C   C180      1.0  0.2541900000000001  0.29115  0.9245499999999998  1.0000
  C   C181      1.0  0.28937000000000007  0.27617  0.9461499999999998  1.0000
  C   C182      1.0  0.31141  0.32602  0.9663799999999998  1.0000
  F   F89       1.0  0.29988  0.38808  0.9693299999999999  1.0000
  C   C183      1.0  0.34579  0.31226  0.9834799999999998  1.0000
  F   F90       1.0  0.36693  0.36093  0.00234  1.0000
  C   C184      1.0  0.35828  0.24859  0.981  1.0000
  C   C185      1.0  0.39595  0.23327  0.99581  1.0000
  C   C186      1.0  0.3936  0.187  0.030429999999999992  1.0000
  F   F91       1.0  0.35792  0.17283  0.06147999999999999  1.0000
  C   C187      1.0  0.42916  0.15800999999999998  0.03406999999999999  1.0000
  F   F92       1.0  0.4327  0.13874  0.07584999999999999  1.0000
  C   C188      1.0  0.46392000000000005  0.16509  0.9979999999999998  1.0000
  C   C189      1.0  0.47016  0.22744  0.97721  1.0000
  F   F93       1.0  0.507  0.24582999999999997  0.9493599999999998  1.0000
  C   C190      1.0  0.43525  0.25856  0.97234  1.0000
  F   F94       1.0  0.43934  0.30768  0.94142  1.0000
  C   C191      1.0  0.33563000000000004  0.1986  0.9618699999999998  1.0000
  F   F95       1.0  0.34756  0.13678  0.9583099999999999  1.0000
  C   C192      1.0  0.30157000000000006  0.2123  0.9444899999999998  1.0000
  F   F96       1.0  0.28115  0.16359  0.92475  1.0000
  H   H45       1.0  0.20701000000000006  0.21139999999999998  0.9493599999999998  1.0000
  H   H46       1.0  0.21148999999999993  0.27588  0.9903899999999999  1.0000
  H   H47       1.0  0.25835  0.26905  0.88971  1.0000
  H   H48       1.0  0.25463999999999987  0.34486  0.91975  1.0000
