data_image0
_chemical_formula_structural       Mn5CN8C2N8CN16Cl2C4Mn5CN8C2N8CN16Cl2C4Mn5CN8C2N8CN16Cl2C7FCFC3OC7FCFH10C3FCFC3OC7FCFH10C3FCFC3OC7FCFH10C3FCFC3OC7FCFH10C3FCFC3OC7FCFH10C3FCFC3OC7FCFH10C3FCFC3OC7FCFH10C3FCFC3OC7FCFH10C3FCFC3OC7FCFH10C3FCFC3OC7FCFH10C3FCFC3OC7FCFH10C3FCFC3OC7FCFH10
_chemical_formula_sum              "Mn15 C204 N96 Cl6 F48 O12 H120"
_cell_length_a       30.4493
_cell_length_b       24.6376
_cell_length_c       28.6177
_cell_angle_alpha    87.8173
_cell_angle_beta     81.912
_cell_angle_gamma    90.43709999999999

_space_group_name_H-M_alt    "P 1"
_space_group_IT_number       1

loop_
  _space_group_symop_operation_xyz
  'x, y, z'

loop_
  _atom_site_type_symbol
  _atom_site_label
  _atom_site_symmetry_multiplicity
  _atom_site_fract_x
  _atom_site_fract_y
  _atom_site_fract_z
  _atom_site_occupancy
  Mn  Mn1       1.0  0.17887  0.39974  0.04976  1.0000
  Mn  Mn2       1.0  0.12039000000000001  0.47302000000000005  0.97441  1.0000
  Mn  Mn3       1.0  0.8288100000000002  0.57685  0.00598999999999994  1.0000
  Mn  Mn4       1.0  0.8877  0.49654000000000004  0.0758  1.0000
  Mn  Mn5       1.0  0.003540000000000001  0.48379000000000005  0.023489999999999997  1.0000
  C   C1        1.0  0.19385999999999998  0.33613  0.95918  1.0000
  N   N1        1.0  0.17362999999999992  0.37596999999999997  0.98411  1.0000
  N   N2        1.0  0.15128  0.4032  0.95493  1.0000
  N   N3        1.0  0.15736  0.38142000000000004  0.91298  1.0000
  N   N4        1.0  0.18362000000000003  0.33866  0.9147  1.0000
  N   N5        1.0  0.07350000000000001  0.43393  0.8981  1.0000
  N   N6        1.0  0.06908999999999998  0.45705  0.9393099999999999  1.0000
  N   N7        1.0  0.026680000000000027  0.45988  0.9570199999999998  1.0000
  N   N8        1.0  0.0020500000000000028  0.43778999999999996  0.92795  1.0000
  C   C2        1.0  0.031609999999999985  0.42233  0.89127  1.0000
  C   C3        1.0  0.08273000000000001  0.62042  0.021120000000000028  1.0000
  N   N9        1.0  0.09104000000000001  0.54154  0.99632  1.0000
  N   N10       1.0  0.11281999999999999  0.58769  0.9980699999999998  1.0000
  N   N11       1.0  0.04751  0.4329200000000001  0.04947  1.0000
  N   N12       1.0  0.09005000000000002  0.43335  0.03274  1.0000
  N   N13       1.0  0.11216999999999998  0.40401  0.060729999999999985  1.0000
  N   N14       1.0  0.08476999999999997  0.3815  0.09614  1.0000
  N   N15       1.0  0.04976999999999999  0.54536  0.017160000000000064  1.0000
  N   N16       1.0  0.04316999999999998  0.59467  0.03376000000000001  1.0000
  C   C4        1.0  0.04439  0.39982  0.08887999999999997  1.0000
  N   N17       1.0  0.8384499999999998  0.59785  0.07139999999999999  1.0000
  N   N18       1.0  0.8594199999999997  0.56639  0.09895999999999999  1.0000
  N   N19       1.0  0.86012  0.58888  0.14007  1.0000
  N   N20       1.0  0.8400599999999998  0.63653  0.13947  1.0000
  N   N21       1.0  0.9372  0.52915  0.1518  1.0000
  N   N22       1.0  0.94  0.50914  0.10941  1.0000
  N   N23       1.0  0.9818299999999998  0.50689  0.08997  1.0000
  N   N24       1.0  0.007889999999999953  0.52553  0.11915999999999997  1.0000
  N   N25       1.0  0.9610499999999997  0.37703  0.007809999999999999  1.0000
  N   N26       1.0  0.9566499999999998  0.42331  0.029929999999999995  1.0000
  N   N27       1.0  0.9152899999999999  0.42774  0.050799999999999984  1.0000
  N   N28       1.0  0.89176  0.38437  0.04389  1.0000
  N   N29       1.0  0.9592899999999995  0.53469  0.9978399999999997  1.0000
  N   N30       1.0  0.9175899999999999  0.53786  0.017810000000000104  1.0000
  N   N31       1.0  0.8951299999999998  0.56906  0.99153  1.0000
  N   N32       1.0  0.9212800000000001  0.58851  0.9538399999999998  1.0000
  Cl  Cl1       1.0  0.17682999999999996  0.48594  0.01729  1.0000
  Cl  Cl2       1.0  0.8293199999999997  0.4886599999999999  0.03478000000000003  1.0000
  C   C5        1.0  0.82697  0.64192  0.0963  1.0000
  C   C6        1.0  0.97961  0.53924  0.15746  1.0000
  C   C7        1.0  0.9206199999999998  0.35297999999999996  0.01738  1.0000
  C   C8        1.0  0.9615399999999996  0.56731  0.9581699999999999  1.0000
  Mn  Mn6       1.0  0.59574  0.97658  0.16896  1.0000
  Mn  Mn7       1.0  0.5379699999999997  0.07087  0.11019999999999999  1.0000
  Mn  Mn8       1.0  0.40652  0.04697  0.83926  1.0000
  Mn  Mn9       1.0  0.46348  0.9570100000000001  0.9022799999999999  1.0000
  Mn  Mn10      1.0  0.49952  0.01588  0.0059  1.0000
  C   C9        1.0  0.66837  0.05705  0.1224  1.0000
  N   N33       1.0  0.62538  0.044070000000000054  0.13608  1.0000
  N   N34       1.0  0.6028799999999997  0.0821  0.11648  1.0000
  N   N35       1.0  0.63044  0.11863  0.09313999999999999  1.0000
  N   N36       1.0  0.67178  0.10411  0.09625  1.0000
  N   N37       1.0  0.5716  0.15057  0.03347  1.0000
  N   N38       1.0  0.5461  0.10723  0.04511  1.0000
  N   N39       1.0  0.53468  0.08597000000000002  0.00682  1.0000
  N   N40       1.0  0.55384  0.11371000000000003  0.9687799999999998  1.0000
  C   C10       1.0  0.57595  0.15429  0.98607  1.0000
  C   C11       1.0  0.40477  0.05401  0.11718999999999997  1.0000
  N   N41       1.0  0.4744099999999999  0.05613  0.10378  1.0000
  N   N42       1.0  0.44111  0.0677  0.13619  1.0000
  N   N43       1.0  0.5416799999999998  0.97751  0.04597  1.0000
  N   N44       1.0  0.55295  0.9978000000000001  0.08457  1.0000
  N   N45       1.0  0.57467  0.96163  0.10717999999999997  1.0000
  N   N46       1.0  0.57994  0.91669  0.08362999999999998  1.0000
  N   N47       1.0  0.4596999999999999  0.03638000000000008  0.0664  1.0000
  N   N48       1.0  0.41573  0.034640000000000004  0.07341  1.0000
  C   C12       1.0  0.5595  0.9269  0.04525999999999999  1.0000
  N   N49       1.0  0.3795  0.9759700000000001  0.86729  1.0000
  N   N50       1.0  0.4  0.94204  0.89333  1.0000
  N   N51       1.0  0.3786799999999999  0.8947500000000002  0.89878  1.0000
  N   N52       1.0  0.3434799999999999  0.8974400000000001  0.87606  1.0000
  N   N53       1.0  0.43483999999999995  0.87458  0.97961  1.0000
  N   N54       1.0  0.45369999999999994  0.9226500000000001  0.96802  1.0000
  N   N55       1.0  0.4651099999999999  0.94512  0.005749999999999922  1.0000
  N   N56       1.0  0.4543  0.91238  0.04336  1.0000
  N   N57       1.0  0.5817799999999997  0.012140000000000005  0.93568  1.0000
  N   N58       1.0  0.53964  0.9970799999999999  0.94578  1.0000
  N   N59       1.0  0.5265899999999997  0.97494  0.9087099999999999  1.0000
  N   N60       1.0  0.5593900000000002  0.97551  0.8731199999999998  1.0000
  N   N61       1.0  0.45693999999999996  0.05270999999999999  0.96483  1.0000
  N   N62       1.0  0.44511  0.029450000000000007  0.9274699999999999  1.0000
  N   N63       1.0  0.4221999999999998  0.06315999999999998  0.90381  1.0000
  N   N64       1.0  0.4171599999999999  0.10967000000000002  0.9250099999999999  1.0000
  Cl  Cl3       1.0  0.53254  0.02709000000000006  0.18217  1.0000
  Cl  Cl4       1.0  0.47095  0.99971  0.8295799999999999  1.0000
  C   C13       1.0  0.34482999999999986  0.94814  0.85611  1.0000
  C   C14       1.0  0.43513  0.86895  0.026680000000000037  1.0000
  C   C15       1.0  0.59375  0.99822  0.89059  1.0000
  C   C16       1.0  0.43839000000000006  0.10277999999999998  0.96326  1.0000
  Mn  Mn11      1.0  0.17355999999999996  0.09071999999999998  0.57803  1.0000
  Mn  Mn12      1.0  0.14287  0.98216  0.51628  1.0000
  Mn  Mn13      1.0  0.87724  0.87951  0.42823  1.0000
  Mn  Mn14      1.0  0.9099399999999997  0.99176  0.48346  1.0000
  Mn  Mn15      1.0  0.026239999999999992  0.98776  0.49991  1.0000
  C   C17       1.0  0.17406999999999995  0.99183  0.64876  1.0000
  N   N65       1.0  0.17221000000000003  0.013539999999999996  0.60515  1.0000
  N   N66       1.0  0.1650099999999999  0.97199  0.57946  1.0000
  N   N67       1.0  0.16490000000000002  0.92612  0.6048999999999999  1.0000
  N   N68       1.0  0.17006  0.93723  0.64866  1.0000
  N   N69       1.0  0.10507000000000001  0.8786300000000001  0.56034  1.0000
  N   N70       1.0  0.09824999999999999  0.9210500000000001  0.53282  1.0000
  N   N71       1.0  0.05544  0.9254399999999999  0.53069  1.0000
  N   N72       1.0  0.03319999999999989  0.88617  0.55681  1.0000
  C   C18       1.0  0.06445  0.8572399999999999  0.57518  1.0000
  C   C19       1.0  0.11679999999999996  0.98968  0.38047  1.0000
  N   N73       1.0  0.12084  0.99332  0.45332999999999996  1.0000
  N   N74       1.0  0.14584  0.98863  0.41208  1.0000
  N   N75       1.0  0.056429999999999994  0.04063  0.53888  1.0000
  N   N76       1.0  0.09858  0.036750000000000005  0.54449  1.0000
  N   N77       1.0  0.11047999999999997  0.07851  0.56747  1.0000
  N   N78       1.0  0.07672000000000001  0.11116  0.57822  1.0000
  N   N79       1.0  0.07855000000000001  0.99527  0.44756  1.0000
  N   N80       1.0  0.07469  0.993  0.40224  1.0000
  C   C20       1.0  0.04277999999999999  0.08691000000000002  0.56077  1.0000
  N   N81       1.0  0.8750299999999998  0.95555  0.39973  1.0000
  N   N82       1.0  0.8878299999999998  0.9987800000000001  0.42022  1.0000
  N   N83       1.0  0.87711  0.04343000000000001  0.39751999999999993  1.0000
  N   N84       1.0  0.8569899999999998  0.02957  0.36133  1.0000
  N   N85       1.0  0.9454499999999998  0.09955000000000001  0.44439999999999996  1.0000
  N   N86       1.0  0.95413  0.053070000000000006  0.46561999999999987  1.0000
  N   N87       1.0  0.9967599999999999  0.0504  0.4693499999999999  1.0000
  N   N88       1.0  0.017639999999999992  0.09491000000000001  0.45043  1.0000
  N   N89       1.0  0.97759  0.96532  0.5963699999999997  1.0000
  N   N90       1.0  0.9739799999999997  0.98  0.55223  1.0000
  N   N91       1.0  0.9317699999999998  0.98104  0.54638  1.0000
  N   N92       1.0  0.9064199999999998  0.96628  0.5863199999999998  1.0000
  N   N93       1.0  0.9961099999999998  0.93386  0.46117  1.0000
  N   N94       1.0  0.95387  0.93712  0.45589  1.0000
  N   N95       1.0  0.9415099999999997  0.89424  0.43463  1.0000
  N   N96       1.0  0.9752599999999998  0.8612700000000001  0.42464  1.0000
  Cl  Cl5       1.0  0.19062  0.05429  0.50441  1.0000
  Cl  Cl6       1.0  0.8619799999999997  0.92005  0.49914999999999987  1.0000
  C   C21       1.0  0.8558199999999998  0.97464  0.36324  1.0000
  C   C22       1.0  0.9853299999999998  0.12493  0.43495  1.0000
  C   C23       1.0  0.93548  0.95721  0.61721  1.0000
  C   C24       1.0  0.009519999999999978  0.88641  0.44091  1.0000
  C   C25       1.0  0.9965599999999999  0.10926  0.56696  1.0000
  C   C26       1.0  0.9839699999999998  0.13104  0.6158899999999999  1.0000
  C   C27       1.0  0.96814  0.18435  0.62145  1.0000
  F   F1        1.0  0.96354  0.21701  0.58319  1.0000
  C   C28       1.0  0.95702  0.20464000000000002  0.66659  1.0000
  F   F2        1.0  0.94213  0.25626000000000004  0.6708099999999998  1.0000
  C   C29       1.0  0.9620699999999998  0.17237  0.70698  1.0000
  C   C30       1.0  0.9507899999999999  0.19396999999999998  0.75587  1.0000
  C   C31       1.0  0.99219  0.21579  0.77404  1.0000
  O   O1        1.0  0.002940000000000006  0.26954  0.75446  1.0000
  C   C32       1.0  0.007150000000000025  0.3099400000000001  0.7869699999999997  1.0000
  C   C33       1.0  0.9752499999999998  0.31682999999999995  0.82686  1.0000
  C   C34       1.0  0.98228  0.35523  0.85989  1.0000
  C   C35       1.0  0.020890000000000013  0.38773  0.8533099999999999  1.0000
  C   C36       1.0  0.05138  0.38288  0.81209  1.0000
  C   C37       1.0  0.04419  0.34473  0.77894  1.0000
  C   C38       1.0  0.9783899999999999  0.11951  0.7015  1.0000
  F   F3        1.0  0.9856699999999999  0.08858000000000002  0.7398399999999999  1.0000
  C   C39       1.0  0.9883999999999998  0.09862  0.65658  1.0000
  F   F4        1.0  0.004179999999999991  0.0474  0.65285  1.0000
  H   H1        1.0  0.9719499999999998  0.07804000000000001  0.56143  1.0000
  H   H2        1.0  0.9952699999999997  0.14174  0.53927  1.0000
  H   H3        1.0  0.9256299999999998  0.22643000000000005  0.7563199999999998  1.0000
  H   H4        1.0  0.93545  0.16078999999999996  0.78042  1.0000
  H   H5        1.0  0.020890000000000023  0.18918  0.7634199999999998  1.0000
  H   H6        1.0  0.9867900000000002  0.21368  0.8133399999999997  1.0000
  H   H7        1.0  0.9454999999999999  0.29172000000000003  0.83298  1.0000
  H   H8        1.0  0.95856  0.35780999999999996  0.8915  1.0000
  H   H9        1.0  0.08121999999999996  0.40784  0.806  1.0000
  H   H10       1.0  0.06841999999999997  0.3406800000000001  0.7477899999999997  1.0000
  C   C40       1.0  0.83045  0.94022  0.33415999999999996  1.0000
  C   C41       1.0  0.84492  0.95113  0.28211  1.0000
  C   C42       1.0  0.82414  0.99167  0.25749  1.0000
  F   F5        1.0  0.7927299999999996  0.02344  0.28079  1.0000
  C   C43       1.0  0.8347399999999998  0.99889  0.20854  1.0000
  F   F6        1.0  0.81332  0.03763000000000001  0.18576  1.0000
  C   C44       1.0  0.8660299999999997  0.96531  0.18324  1.0000
  C   C45       1.0  0.87514  0.97033  0.12996  1.0000
  C   C46       1.0  0.8551  0.92226  0.1068  1.0000
  O   O2        1.0  0.8107199999999998  0.9086299999999999  0.1284  1.0000
  C   C47       1.0  0.77646  0.94632  0.1255  1.0000
  C   C48       1.0  0.7792099999999997  0.9899900000000001  0.09187  1.0000
  C   C49       1.0  0.7444399999999998  0.02661000000000002  0.09214  1.0000
  C   C50       1.0  0.7057599999999998  0.019830000000000014  0.12496999999999997  1.0000
  C   C51       1.0  0.7024399999999997  0.97563  0.15764999999999998  1.0000
  C   C52       1.0  0.7376099999999998  0.93941  0.15794  1.0000
  C   C53       1.0  0.8878899999999997  0.92597  0.20808  1.0000
  F   F7        1.0  0.91888  0.89375  0.18469  1.0000
  C   C54       1.0  0.87751  0.91904  0.25715  1.0000
  F   F8        1.0  0.8986399999999998  0.8802300000000001  0.2802  1.0000
  H   H11       1.0  0.83471  0.8966  0.34375  1.0000
  H   H12       1.0  0.79452  0.94856  0.34323  1.0000
  H   H13       1.0  0.86195  0.008979999999999988  0.11682  1.0000
  H   H14       1.0  0.9115599999999998  0.97238  0.11854  1.0000
  H   H15       1.0  0.87594  0.88612  0.11103999999999997  1.0000
  H   H16       1.0  0.85668  0.9300600000000001  0.06811  1.0000
  H   H17       1.0  0.80777  0.99628  0.06517  1.0000
  H   H18       1.0  0.7474799999999998  0.05969  0.06584  1.0000
  H   H19       1.0  0.6728999999999999  0.9693  0.18317  1.0000
  H   H20       1.0  0.7348399999999998  0.9059100000000001  0.18387  1.0000
  C   C55       1.0  0.05509  0.8622799999999999  0.43914  1.0000
  C   C56       1.0  0.06156000000000001  0.81106  0.4116799999999999  1.0000
  C   C57       1.0  0.06138999999999997  0.81298  0.36254  1.0000
  F   F9        1.0  0.05036999999999997  0.8593499999999998  0.34009  1.0000
  C   C58       1.0  0.07349  0.7674800000000002  0.3360699999999999  1.0000
  F   F10       1.0  0.07353  0.77082  0.28861  1.0000
  C   C59       1.0  0.08599  0.71926  0.3583399999999999  1.0000
  C   C60       1.0  0.10175999999999999  0.6709800000000001  0.32989  1.0000
  C   C61       1.0  0.06734  0.62485  0.3366  1.0000
  O   O3        1.0  0.027989999999999963  0.64168  0.3182  1.0000
  C   C62       1.0  0.01753000000000005  0.61592  0.27811  1.0000
  C   C63       1.0  0.05000999999999998  0.60135  0.24073  1.0000
  C   C64       1.0  0.0377  0.57597  0.20162  1.0000
  C   C65       1.0  0.99281  0.56564  0.19875999999999996  1.0000
  C   C66       1.0  0.9603799999999998  0.58218  0.23514  1.0000
  C   C67       1.0  0.97275  0.60742  0.27424  1.0000
  C   C68       1.0  0.08487000000000001  0.71684  0.4076299999999999  1.0000
  F   F11       1.0  0.0971  0.671  0.43003  1.0000
  C   C69       1.0  0.07254  0.76211  0.43409999999999993  1.0000
  F   F12       1.0  0.07270000000000003  0.75839  0.4815599999999999  1.0000
  H   H21       1.0  0.061409999999999985  0.85305  0.47537999999999997  1.0000
  H   H22       1.0  0.08061999999999998  0.89202  0.42315  1.0000
  H   H23       1.0  0.10920999999999995  0.68248  0.29167  1.0000
  H   H24       1.0  0.13328  0.65625  0.3409899999999999  1.0000
  H   H25       1.0  0.05834999999999967  0.61373  0.37472  1.0000
  H   H26       1.0  0.08216  0.58781  0.3202  1.0000
  H   H27       1.0  0.0848  0.60998  0.24134  1.0000
  H   H28       1.0  0.06325  0.56476  0.17349999999999996  1.0000
  H   H29       1.0  0.9254299999999998  0.57586  0.23332  1.0000
  H   H30       1.0  0.94738  0.61994  0.302  1.0000
  C   C70       1.0  0.12811  0.9702000000000001  0.3313299999999999  1.0000
  C   C71       1.0  0.13449  0.012730000000000003  0.29128999999999994  1.0000
  C   C72       1.0  0.14886  0.9942  0.24583999999999995  1.0000
  F   F13       1.0  0.15536999999999995  0.9403799999999999  0.23918999999999996  1.0000
  C   C73       1.0  0.15775  0.030550000000000004  0.20707  1.0000
  F   F14       1.0  0.1735  0.01105  0.16426  1.0000
  C   C74       1.0  0.15217  0.08651000000000002  0.21275  1.0000
  C   C75       1.0  0.16713  0.12628  0.17199  1.0000
  C   C76       1.0  0.20989  0.15652000000000002  0.17896  1.0000
  O   O4        1.0  0.23676999999999998  0.12324999999999998  0.20552  1.0000
  C   C77       1.0  0.2769599999999999  0.10398  0.18233999999999997  1.0000
  C   C78       1.0  0.28218  0.08636999999999999  0.1356  1.0000
  C   C79       1.0  0.3233  0.06746  0.11459  1.0000
  C   C80       1.0  0.35955  0.06608  0.13998  1.0000
  C   C81       1.0  0.35327999999999987  0.08078  0.18739  1.0000
  C   C82       1.0  0.31226999999999994  0.09896  0.20836999999999994  1.0000
  C   C83       1.0  0.13591000000000003  0.10527000000000002  0.25762  1.0000
  F   F15       1.0  0.12956  0.15917  0.26373  1.0000
  C   C84       1.0  0.12721  0.06888  0.29672  1.0000
  F   F16       1.0  0.11210999999999999  0.08913000000000001  0.33934999999999993  1.0000
  H   H31       1.0  0.10160999999999995  0.94156  0.32465  1.0000
  H   H32       1.0  0.15910999999999995  0.94642  0.33012  1.0000
  H   H33       1.0  0.17322  0.10508  0.13816  1.0000
  H   H34       1.0  0.1404  0.15595  0.16821999999999998  1.0000
  H   H35       1.0  0.20088  0.19319  0.19941999999999996  1.0000
  H   H36       1.0  0.22791  0.1715  0.14428  1.0000
  H   H37       1.0  0.25466999999999995  0.08714  0.11545999999999997  1.0000
  H   H38       1.0  0.32702  0.055330000000000004  0.07829  1.0000
  H   H39       1.0  0.38038  0.07914000000000002  0.20817  1.0000
  H   H40       1.0  0.3082099999999999  0.11060000000000002  0.24482  1.0000
  C   C85       1.0  0.9929699999999999  0.1795  0.41009999999999996  1.0000
  C   C86       1.0  0.98376  0.18299999999999997  0.35915  1.0000
  C   C87       1.0  0.9830299999999998  0.23508  0.33732  1.0000
  F   F17       1.0  0.9905  0.27986  0.36146  1.0000
  C   C88       1.0  0.97516  0.24179  0.2905099999999999  1.0000
  F   F18       1.0  0.9764099999999999  0.29262  0.27052  1.0000
  C   C89       1.0  0.9671599999999999  0.19655  0.26434  1.0000
  C   C90       1.0  0.9594299999999999  0.20369  0.21333999999999997  1.0000
  C   C91       1.0  0.9131099999999999  0.22636  0.20827999999999994  1.0000
  O   O5        1.0  0.91132  0.28444  0.21098  1.0000
  C   C92       1.0  0.93892  0.31646  0.17667  1.0000
  C   C93       1.0  0.95333  0.29939  0.13061  1.0000
  C   C94       1.0  0.9860099999999999  0.32897  0.10098  1.0000
  C   C95       1.0  0.0035099999999999017  0.37706000000000006  0.11575  1.0000
  C   C96       1.0  0.9878299999999998  0.39547  0.16062999999999994  1.0000
  C   C97       1.0  0.9548299999999997  0.36614  0.19029  1.0000
  C   C98       1.0  0.9685999999999999  0.14428  0.28559999999999997  1.0000
  F   F19       1.0  0.9618699999999999  0.09954  0.2611  1.0000
  C   C99       1.0  0.97745  0.13734  0.33213  1.0000
  F   F20       1.0  0.9808699999999999  0.08582  0.34957  1.0000
  H   H41       1.0  0.027890000000000005  0.19256  0.41066  1.0000
  H   H42       1.0  0.9712899999999999  0.20856  0.43101  1.0000
  H   H43       1.0  0.9862899999999999  0.2297  0.19365999999999997  1.0000
  H   H44       1.0  0.96225  0.16407  0.19599  1.0000
  H   H45       1.0  0.88839  0.20808  0.23690999999999995  1.0000
  H   H46       1.0  0.90239  0.21332999999999996  0.1749  1.0000
  H   H47       1.0  0.94114  0.26228  0.11789  1.0000
  H   H48       1.0  0.99918  0.31291  0.06722  1.0000
  H   H49       1.0  0.002720000000000056  0.4308  0.17372  1.0000
  H   H50       1.0  0.94385  0.38014999999999993  0.22535999999999995  1.0000
  C   C100      1.0  0.5653599999999998  0.89037  0.004310000000000036  1.0000
  C   C101      1.0  0.61435  0.88308  0.98614  1.0000
  C   C102      1.0  0.6294899999999999  0.83191  0.97117  1.0000
  F   F21       1.0  0.60061  0.7895700000000001  0.97164  1.0000
  C   C103      1.0  0.6745799999999995  0.8236399999999999  0.95598  1.0000
  F   F22       1.0  0.6880299999999998  0.77339  0.94278  1.0000
  C   C104      1.0  0.70552  0.8664900000000002  0.95523  1.0000
  C   C105      1.0  0.75449  0.85751  0.94066  1.0000
  C   C106      1.0  0.78113  0.8628  0.98205  1.0000
  O   O6        1.0  0.75808  0.8374099999999999  0.02453  1.0000
  C   C107      1.0  0.77565  0.78903  0.04111999999999998  1.0000
  C   C108      1.0  0.79182  0.74796  0.010669999999999957  1.0000
  C   C109      1.0  0.8076699999999998  0.6997  0.028790000000000093  1.0000
  C   C110      1.0  0.80758  0.69147  0.0776  1.0000
  C   C111      1.0  0.79038  0.7319  0.10809  1.0000
  C   C112      1.0  0.77401  0.77996  0.0899  1.0000
  C   C113      1.0  0.6905399999999998  0.91783  0.96918  1.0000
  F   F23       1.0  0.71967  0.95989  0.96889  1.0000
  C   C114      1.0  0.64565  0.9262  0.98445  1.0000
  F   F24       1.0  0.63358  0.97623  0.99934  1.0000
  H   H51       1.0  0.54806  0.9052899999999999  0.9752599999999999  1.0000
  H   H52       1.0  0.54948  0.85075  0.016899999999999915  1.0000
  H   H53       1.0  0.76028  0.81682  0.92585  1.0000
  H   H54       1.0  0.76741  0.88755  0.9119699999999997  1.0000
  H   H55       1.0  0.7859900000000001  0.9063800000000001  0.98868  1.0000
  H   H56       1.0  0.8149699999999998  0.8463400000000001  0.9722099999999999  1.0000
  H   H57       1.0  0.79189  0.75279  0.97299  1.0000
  H   H58       1.0  0.82051  0.66923  0.0044399999999999995  1.0000
  H   H59       1.0  0.7893599999999998  0.72625  0.14593999999999996  1.0000
  H   H60       1.0  0.7604599999999998  0.81063  0.11377  1.0000
  C   C115      1.0  0.90651  0.30459  0.9926399999999999  1.0000
  C   C116      1.0  0.8615099999999998  0.31410000000000005  0.9770299999999998  1.0000
  C   C117      1.0  0.8252599999999998  0.27938  0.99358  1.0000
  F   F25       1.0  0.8306799999999998  0.23417  0.02071  1.0000
  C   C118      1.0  0.7827899999999998  0.29163  0.98312  1.0000
  F   F26       1.0  0.7482999999999997  0.25798  0.00034  1.0000
  C   C119      1.0  0.77586  0.33864  0.9558  1.0000
  C   C120      1.0  0.7296899999999997  0.35477999999999993  0.94772  1.0000
  C   C121      1.0  0.72074  0.34255  0.89763  1.0000
  O   O7        1.0  0.71783  0.28533  0.891  1.0000
  C   C122      1.0  0.68037  0.25527  0.91306  1.0000
  C   C123      1.0  0.6417799999999998  0.27876  0.9371799999999999  1.0000
  C   C124      1.0  0.60699  0.24582000000000004  0.9599099999999999  1.0000
  C   C125      1.0  0.60942  0.1893  0.95769  1.0000
  C   C126      1.0  0.6467899999999998  0.16589  0.9325499999999998  1.0000
  C   C127      1.0  0.68197  0.19859  0.9106099999999998  1.0000
  C   C128      1.0  0.8122799999999998  0.3723000000000001  0.93794  1.0000
  F   F27       1.0  0.8064699999999999  0.41831  0.912  1.0000
  C   C129      1.0  0.8546899999999998  0.36  0.94811  1.0000
  F   F28       1.0  0.8886800000000002  0.39475000000000005  0.9318799999999998  1.0000
  H   H61       1.0  0.9311999999999999  0.29702  0.96126  1.0000
  H   H62       1.0  0.9059499999999998  0.26857  0.01722  1.0000
  H   H63       1.0  0.70449  0.33434  0.9745199999999998  1.0000
  H   H64       1.0  0.72573  0.39905000000000007  0.95303  1.0000
  H   H65       1.0  0.7485099999999999  0.35956  0.87175  1.0000
  H   H66       1.0  0.6905999999999998  0.36357  0.889  1.0000
  H   H67       1.0  0.6382599999999998  0.32217  0.93955  1.0000
  H   H68       1.0  0.5783399999999997  0.26438  0.97956  1.0000
  H   H69       1.0  0.64946  0.12220999999999999  0.93181  1.0000
  H   H70       1.0  0.71112  0.17963000000000004  0.89237  1.0000
  C   C130      1.0  0.31809999999999994  0.96704  0.81876  1.0000
  C   C131      1.0  0.26954  0.97089  0.83746  1.0000
  C   C132      1.0  0.23778  0.9420100000000001  0.81673  1.0000
  F   F29       1.0  0.25041  0.90743  0.78163  1.0000
  C   C133      1.0  0.1925699999999999  0.94974  0.83098  1.0000
  F   F30       1.0  0.16280999999999993  0.92227  0.80932  1.0000
  C   C134      1.0  0.17829999999999996  0.98666  0.86613  1.0000
  C   C135      1.0  0.1296  0.99904  0.87838  1.0000
  C   C136      1.0  0.11875  0.05889999999999995  0.86686  1.0000
  O   O8        1.0  0.14913  0.08408  0.82905  1.0000
  C   C137      1.0  0.15188  0.06450000000000002  0.78306  1.0000
  C   C138      1.0  0.11973  0.029830000000000027  0.76864  1.0000
  C   C139      1.0  0.12688999999999995  0.007789999999999963  0.72412  1.0000
  C   C140      1.0  0.16531  0.02122  0.69258  1.0000
  C   C141      1.0  0.19603999999999996  0.05827000000000001  0.70541  1.0000
  C   C142      1.0  0.18931000000000003  0.07960000000000003  0.75051  1.0000
  C   C143      1.0  0.21003999999999995  0.013679999999999913  0.88833  1.0000
  F   F31       1.0  0.19718999999999998  0.048359999999999945  0.92326  1.0000
  C   C144      1.0  0.25527  0.00648000000000004  0.87365  1.0000
  F   F32       1.0  0.28523  0.035250000000000004  0.8939799999999998  1.0000
  H   H71       1.0  0.3302899999999999  0.00788999999999995  0.8045699999999999  1.0000
  H   H72       1.0  0.32405000000000006  0.9390700000000001  0.7890699999999998  1.0000
  H   H73       1.0  0.10909  0.97221  0.85958  1.0000
  H   H74       1.0  0.11925  0.98944  0.91664  1.0000
  H   H75       1.0  0.12080000000000002  0.08224  0.8989199999999999  1.0000
  H   H76       1.0  0.08395999999999999  0.06261000000000005  0.85971  1.0000
  H   H77       1.0  0.08957999999999998  0.018459999999999917  0.7916  1.0000
  H   H78       1.0  0.10264000000000002  0.9793800000000001  0.7144699999999999  1.0000
  H   H79       1.0  0.22595000000000004  0.06875000000000002  0.6814699999999998  1.0000
  H   H80       1.0  0.21410000000000004  0.10665  0.76082  1.0000
  C   C145      1.0  0.0018100000000000854  0.57777  0.92185  1.0000
  C   C146      1.0  0.9951799999999998  0.62781  0.89163  1.0000
  C   C147      1.0  0.9830100000000002  0.6233  0.8462899999999999  1.0000
  F   F33       1.0  0.9802499999999995  0.5738999999999997  0.82732  1.0000
  C   C148      1.0  0.97203  0.66963  0.8208199999999998  1.0000
  F   F34       1.0  0.9600200000000001  0.66406  0.7773099999999997  1.0000
  C   C149      1.0  0.9731199999999999  0.7211400000000001  0.84023  1.0000
  C   C150      1.0  0.9605099999999999  0.77115  0.81333  1.0000
  C   C151      1.0  0.001669999999999834  0.80397  0.7919  1.0000
  O   O9        1.0  0.030969999999999945  0.7706  0.76189  1.0000
  C   C152      1.0  0.03753000000000006  0.7852499999999999  0.7135499999999999  1.0000
  C   C153      1.0  0.002250000000000081  0.79999  0.68899  1.0000
  C   C154      1.0  0.010739999999999979  0.81869  0.64194  1.0000
  C   C155      1.0  0.05454  0.8230599999999999  0.61881  1.0000
  C   C156      1.0  0.08925  0.80364  0.6421599999999998  1.0000
  C   C157      1.0  0.08060999999999999  0.7843099999999998  0.68909  1.0000
  C   C158      1.0  0.9862999999999998  0.72571  0.88507  1.0000
  F   F35       1.0  0.98761  0.7749399999999999  0.9046  1.0000
  C   C159      1.0  0.99721  0.67947  0.91055  1.0000
  F   F36       1.0  0.008429999999999929  0.6847800000000002  0.95445  1.0000
  H   H81       1.0  0.03170999999999992  0.58406  0.93893  1.0000
  H   H82       1.0  0.007589999999999765  0.54183  0.89984  1.0000
  H   H83       1.0  0.9415  0.76005  0.78464  1.0000
  H   H84       1.0  0.9383699999999999  0.79675  0.83738  1.0000
  H   H85       1.0  0.019560000000000025  0.81817  0.82049  1.0000
  H   H86       1.0  0.9913900000000001  0.84128  0.77332  1.0000
  H   H87       1.0  0.9683699999999997  0.79881  0.7065299999999998  1.0000
  H   H88       1.0  0.9832999999999998  0.83296  0.62469  1.0000
  H   H89       1.0  0.12333  0.80638  0.62513  1.0000
  H   H90       1.0  0.10783  0.7714500000000001  0.70731  1.0000
  C   C160      1.0  0.9239199999999997  0.92943  0.66479  1.0000
  C   C161      1.0  0.8970899999999998  0.96474  0.69966  1.0000
  C   C162      1.0  0.8511499999999997  0.9692199999999999  0.6997399999999998  1.0000
  F   F37       1.0  0.8311499999999998  0.9451399999999999  0.66626  1.0000
  C   C163      1.0  0.8250599999999998  0.99577  0.73581  1.0000
  F   F38       1.0  0.7804299999999998  0.99465  0.73685  1.0000
  C   C164      1.0  0.84464  0.02029999999999999  0.77165  1.0000
  C   C165      1.0  0.81617  0.044690000000000014  0.8132099999999998  1.0000
  C   C166      1.0  0.79074  0.09538000000000003  0.79939  1.0000
  O   O10       1.0  0.75183  0.08158000000000001  0.77926  1.0000
  C   C167      1.0  0.71464  0.05801999999999999  0.8083  1.0000
  C   C168      1.0  0.71126  0.05094  0.85789  1.0000
  C   C169      1.0  0.6725499999999998  0.029369999999999896  0.88417  1.0000
  C   C170      1.0  0.63626  0.014780000000000019  0.8619699999999999  1.0000
  C   C171      1.0  0.63987  0.020470000000000006  0.81258  1.0000
  C   C172      1.0  0.67867  0.042050000000000004  0.78619  1.0000
  C   C173      1.0  0.89096  0.01717000000000001  0.7706199999999997  1.0000
  F   F39       1.0  0.91112  0.039480000000000015  0.80485  1.0000
  C   C174      1.0  0.9167499999999996  0.98873  0.7355099999999999  1.0000
  F   F40       1.0  0.96075  0.98285  0.7375399999999998  1.0000
  H   H91       1.0  0.95508  0.9168600000000001  0.6779799999999999  1.0000
  H   H92       1.0  0.90522  0.89131  0.6610699999999998  1.0000
  H   H93       1.0  0.79316  0.012559999999999901  0.83068  1.0000
  H   H94       1.0  0.83687  0.05689000000000001  0.8401699999999998  1.0000
  H   H95       1.0  0.81286  0.12085  0.77293  1.0000
  H   H96       1.0  0.7818399999999998  0.1216  0.83001  1.0000
  H   H97       1.0  0.7378  0.06252000000000002  0.8769899999999998  1.0000
  H   H98       1.0  0.67064  0.025369999999999896  0.92213  1.0000
  H   H99       1.0  0.6122299999999998  0.010040000000000002  0.79446  1.0000
  H   H100      1.0  0.6804899999999999  0.04747999999999999  0.74823  1.0000
  C   C175      1.0  0.4215499999999998  0.8181200000000001  0.055809999999999915  1.0000
  C   C176      1.0  0.37193  0.80797  0.06237  1.0000
  C   C177      1.0  0.3513  0.78926  0.02492  1.0000
  F   F41       1.0  0.37529  0.78257  0.9818699999999999  1.0000
  C   C178      1.0  0.30612  0.7752999999999999  0.03193  1.0000
  F   F42       1.0  0.2876  0.75634  0.99518  1.0000
  C   C179      1.0  0.28064  0.77952  0.07665  1.0000
  C   C180      1.0  0.23263999999999996  0.76034  0.08542  1.0000
  C   C181      1.0  0.19939999999999988  0.8071499999999999  0.09542  1.0000
  O   O11       1.0  0.16997  0.8123800000000001  0.0605  1.0000
  C   C182      1.0  0.14182999999999996  0.76821  0.05439  1.0000
  C   C183      1.0  0.12512  0.73034  0.09099  1.0000
  C   C184      1.0  0.10159  0.6840599999999999  0.08094  1.0000
  C   C185      1.0  0.09463  0.6750100000000001  0.034419999999999895  1.0000
  C   C186      1.0  0.10886999999999994  0.71429  0.99872  1.0000
  C   C187      1.0  0.13141  0.76101  0.00893  1.0000
  C   C188      1.0  0.3011399999999999  0.79873  0.11398999999999997  1.0000
  F   F43       1.0  0.2776399999999999  0.80215  0.15775  1.0000
  C   C189      1.0  0.34628999999999993  0.81294  0.10693999999999997  1.0000
  F   F44       1.0  0.3651199999999999  0.8304300000000001  0.14403  1.0000
  H   H101      1.0  0.43354  0.8212000000000002  0.09054  1.0000
  H   H102      1.0  0.43887999999999994  0.7829600000000001  0.03869999999999996  1.0000
  H   H103      1.0  0.22468999999999995  0.73729  0.05504  1.0000
  H   H104      1.0  0.22840999999999995  0.73077  0.1161  1.0000
  H   H105      1.0  0.21755999999999995  0.84646  0.09526  1.0000
  H   H106      1.0  0.18025999999999995  0.80187  0.1313  1.0000
  H   H107      1.0  0.13127  0.73518  0.12688  1.0000
  H   H108      1.0  0.09138999999999997  0.6537299999999999  0.10885  1.0000
  H   H109      1.0  0.10439000000000004  0.70754  0.9624999999999998  1.0000
  H   H110      1.0  0.14343999999999998  0.79012  0.98063  1.0000
  C   C190      1.0  0.22151000000000004  0.29329000000000005  0.9791099999999998  1.0000
  C   C191      1.0  0.27055  0.3078500000000001  0.97226  1.0000
  C   C192      1.0  0.30213  0.27146  0.95112  1.0000
  F   F45       1.0  0.2890699999999999  0.22433  0.9337999999999999  1.0000
  C   C193      1.0  0.34762  0.28267999999999993  0.94857  1.0000
  F   F46       1.0  0.37699  0.24598  0.92885  1.0000
  C   C194      1.0  0.36254  0.33105  0.96633  1.0000
  C   C195      1.0  0.41167999999999993  0.34429  0.96254  1.0000
  C   C196      1.0  0.42811999999999983  0.34908  0.010999999999999899  1.0000
  O   O12       1.0  0.4139899999999999  0.30435  0.043379999999999974  1.0000
  C   C197      1.0  0.42726000000000003  0.25167  0.03062999999999993  1.0000
  C   C198      1.0  0.4656  0.24112  0.99872  1.0000
  C   C199      1.0  0.47165  0.18995  0.97987  1.0000
  C   C200      1.0  0.44163  0.14741  0.99495  1.0000
  C   C201      1.0  0.40565  0.15676  0.029829999999999992  1.0000
  C   C202      1.0  0.39895  0.20832  0.04806  1.0000
  C   C203      1.0  0.33099  0.36799999999999994  0.9861799999999997  1.0000
  F   F47       1.0  0.34397  0.41602  0.001889999999999947  1.0000
  C   C204      1.0  0.28567  0.35603000000000007  0.99007  1.0000
  F   F48       1.0  0.25666  0.39167  0.011740000000000082  1.0000
  H   H111      1.0  0.21512000000000003  0.25422000000000006  0.9630099999999999  1.0000
  H   H112      1.0  0.20992  0.28765  0.017570000000000086  1.0000
  H   H113      1.0  0.43162999999999985  0.31354999999999994  0.94194  1.0000
  H   H114      1.0  0.4185399999999998  0.38335  0.94202  1.0000
  H   H115      1.0  0.41494  0.38685  0.027260000000000062  1.0000
  H   H116      1.0  0.4647799999999999  0.35401  0.006440000000000001  1.0000
  H   H117      1.0  0.48921000000000003  0.27287  0.9854099999999998  1.0000
  H   H118      1.0  0.49760999999999983  0.18508000000000002  0.9504799999999999  1.0000
  H   H119      1.0  0.38043  0.12574  0.039639999999999995  1.0000
  H   H120      1.0  0.3695199999999999  0.21566  0.07284  1.0000
