data_image0
_chemical_formula_structural       Mn5CN8C2N8CN16Cl2C12NCOC4ONC3ONC2H15C8NCOC4ONC3ONC2H15
_chemical_formula_sum              "Mn5 C44 N38 Cl2 O6 H30"
_cell_length_a       18.1535
_cell_length_b       14.3884
_cell_length_c       12.7191
_cell_angle_alpha    102.5459
_cell_angle_beta     67.085
_cell_angle_gamma    99.72099999999999

_symmetry_space_group_name_H-M    'P 1'
_symmetry_Int_Tables_number       1

loop_
  _symmetry_equiv_pos_as_xyz
  'x,y,z'

loop_
  _atom_site_type_symbol
  _atom_site_label
  _atom_site_symmetry_multiplicity
  _atom_site_fract_x
  _atom_site_fract_y
  _atom_site_fract_z
  _atom_site_occupancy
  Mn  Mn1       1.0  0.3769700000000001  0.08182  0.98112  1.0000
  Mn  Mn2       1.0  0.22892  0.9249600000000001  0.91879  1.0000
  Mn  Mn3       1.0  0.70269  0.95793  0.08756000000000008  1.0000
  Mn  Mn4       1.0  0.85975  0.13719000000000003  0.05231999999999992  1.0000
  Mn  Mn5       1.0  0.04193999999999993  0.03243000000000002  0.9977900000000001  1.0000
  C   C1        1.0  0.36444  0.91421  0.10154  1.0000
  N   N1        1.0  0.33409  0.96169  0.05049000000000001  1.0000
  N   N2        1.0  0.27598  0.9028000000000003  0.029140000000000006  1.0000
  N   N3        1.0  0.27148  0.8202900000000002  0.06208000000000001  1.0000
  N   N4        1.0  0.32561  0.82559  0.10979  1.0000
  N   N5        1.0  0.10584000000000002  0.79444  0.06078  1.0000
  N   N6        1.0  0.1184  0.87287  0.01641  1.0000
  N   N7        1.0  0.05135999999999999  0.91558  0.05573  1.0000
  N   N8        1.0  0.99261  0.8664400000000002  0.12846  1.0000
  C   C2        1.0  0.02772000000000004  0.7908100000000002  0.1291  1.0000
  C   C3        1.0  0.17190999999999998  0.9457000000000001  0.65284  1.0000
  N   N9        1.0  0.18588000000000002  0.9435200000000001  0.8074  1.0000
  N   N10       1.0  0.22195000000000006  0.92091  0.69439  1.0000
  N   N11       1.0  0.13882  0.09839  0.04813  1.0000
  N   N12       1.0  0.20875000000000002  0.061190000000000015  0.00015  1.0000
  N   N13       1.0  0.26216  0.11411000000000003  0.0393  1.0000
  N   N14       1.0  0.22764  0.18075  0.12611  1.0000
  N   N15       1.0  0.11739999999999995  0.9788500000000001  0.83477  1.0000
  N   N16       1.0  0.10640999999999999  0.9810200000000001  0.73854  1.0000
  C   C4        1.0  0.14994000000000002  0.16942000000000004  0.13506  1.0000
  N   N17       1.0  0.73774  0.03812000000000016  0.96185  1.0000
  N   N18       1.0  0.79647  0.10785  0.94572  1.0000
  N   N19       1.0  0.7913099999999998  0.15978  0.8750600000000002  1.0000
  N   N20       1.0  0.72887  0.12305000000000003  0.84374  1.0000
  N   N21       1.0  0.97767  0.1909  0.82624  1.0000
  N   N22       1.0  0.96706  0.16596000000000005  0.92623  1.0000
  N   N23       1.0  0.035979999999999894  0.14733  0.9267200000000002  1.0000
  N   N24       1.0  0.09370000000000002  0.16596000000000005  0.8286  1.0000
  N   N25       1.0  0.93572  0.054570000000000014  0.25359  1.0000
  N   N26       1.0  0.9603499999999999  0.08695000000000003  0.15431  1.0000
  N   N27       1.0  0.9164400000000001  0.15547000000000005  0.16442  1.0000
  N   N28       1.0  0.87136  0.18015  0.27398  1.0000
  N   N29       1.0  0.94614  0.9631200000000002  0.95944  1.0000
  N   N30       1.0  0.8764300000000002  0.99818  0.014760000000000106  1.0000
  N   N31       1.0  0.8177300000000001  0.9294300000000002  0.025859999999999998  1.0000
  N   N32       1.0  0.8469599999999998  0.84689  0.97182  1.0000
  Cl  Cl1       1.0  0.35271  0.99244  0.8219500000000001  1.0000
  Cl  Cl2       1.0  0.7401200000000001  0.09468999999999995  0.1899599999999999  1.0000
  C   C5        1.0  0.69675  0.04674000000000002  0.8986000000000001  1.0000
  C   C6        1.0  0.05767999999999994  0.19142  0.76492  1.0000
  C   C7        1.0  0.88369  0.11747  0.32781  1.0000
  C   C8        1.0  0.9278699999999999  0.8679100000000002  0.93051  1.0000
  C   C9        1.0  0.08457  0.20338  0.24938  1.0000
  C   C10       1.0  0.10828000000000004  0.24317000000000003  0.35531000000000007  1.0000
  C   C11       1.0  0.08468  0.19112000000000007  0.44805000000000006  1.0000
  C   C12       1.0  0.10028  0.22923  0.55081  1.0000
  C   C13       1.0  0.09193999999999995  0.1621  0.6334100000000001  1.0000
  C   C14       1.0  0.14023  0.32113  0.55971  1.0000
  C   C15       1.0  0.16212999999999989  0.37495  0.46993  1.0000
  C   C16       1.0  0.20215000000000008  0.4749400000000002  0.48195  1.0000
  N   N33       1.0  0.14354  0.54346  0.50936  1.0000
  C   C17       1.0  0.14090000000000003  0.5933800000000001  0.43048  1.0000
  O   O1        1.0  0.18822  0.58042  0.33047000000000004  1.0000
  C   C18       1.0  0.07943999999999997  0.66145  0.4646000000000001  1.0000
  C   C19       1.0  0.05276000000000002  0.7145900000000002  0.57693  1.0000
  C   C20       1.0  0.99498  0.7791900000000002  0.60898  1.0000
  C   C21       1.0  0.9690000000000001  0.8411700000000002  0.72366  1.0000
  O   O2        1.0  0.9407699999999999  0.9151900000000002  0.73249  1.0000
  N   N34       1.0  0.97331  0.81743  0.82013  1.0000
  C   C22       1.0  0.9636799999999999  0.78994  0.52785  1.0000
  C   C23       1.0  0.9910900000000001  0.74052  0.41395  1.0000
  C   C24       1.0  0.9646  0.7672300000000002  0.32777  1.0000
  O   O3        1.0  0.92028  0.83105  0.35881  1.0000
  N   N35       1.0  0.9943799999999999  0.7284200000000002  0.21296000000000007  1.0000
  C   C25       1.0  0.04951999999999998  0.67595  0.38314000000000004  1.0000
  C   C26       1.0  0.14614000000000005  0.3357400000000001  0.36853  1.0000
  H   H1        1.0  0.04740999999999995  0.13823000000000005  0.27206  1.0000
  H   H2        1.0  0.04921999999999999  0.25366  0.23788000000000004  1.0000
  H   H3        1.0  0.05596000000000001  0.11901000000000005  0.43878000000000006  1.0000
  H   H4        1.0  0.15325000000000003  0.14169  0.60977  1.0000
  H   H5        1.0  0.05580999999999991  0.09503  0.61363  1.0000
  H   H6        1.0  0.15547  0.35009  0.63552  1.0000
  H   H7        1.0  0.22622  0.4883200000000002  0.55255  1.0000
  H   H8        1.0  0.25448  0.48446  0.40102  1.0000
  H   H9        1.0  0.09948000000000001  0.55004  0.5926000000000001  1.0000
  H   H10       1.0  0.08000000000000002  0.7090400000000001  0.63702  1.0000
  H   H11       1.0  0.9930999999999999  0.75256  0.81707  1.0000
  H   H12       1.0  0.91912  0.84014  0.55294  1.0000
  H   H13       1.0  0.01753000000000003  0.6621500000000002  0.18743  1.0000
  H   H14       1.0  0.07328000000000003  0.63705  0.29617  1.0000
  H   H15       1.0  0.16252  0.37776  0.30027  1.0000
  C   C27       1.0  0.19008000000000005  0.9411900000000001  0.52748  1.0000
  C   C28       1.0  0.27307000000000003  0.98749  0.46556000000000003  1.0000
  C   C29       1.0  0.31372  0.94808  0.35066  1.0000
  C   C30       1.0  0.38667999999999997  0.9926600000000001  0.28251  1.0000
  C   C31       1.0  0.4257699999999999  0.95763  0.15414  1.0000
  C   C32       1.0  0.42252  0.07343  0.33458  1.0000
  C   C33       1.0  0.38503  0.11167000000000003  0.45168  1.0000
  C   C34       1.0  0.4273199999999999  0.1962  0.5057  1.0000
  N   N36       1.0  0.49752999999999986  0.16640000000000005  0.51576  1.0000
  C   C35       1.0  0.5091  0.17968  0.61862  1.0000
  O   O4        1.0  0.4663300000000001  0.22969000000000006  0.70394  1.0000
  C   C36       1.0  0.56935  0.12881000000000006  0.63066  1.0000
  C   C37       1.0  0.64272  0.10816000000000003  0.53986  1.0000
  C   C38       1.0  0.6937899999999999  0.05113000000000001  0.55219  1.0000
  C   C39       1.0  0.77197  0.03353  0.46047  1.0000
  O   O5        1.0  0.78228  0.95499  0.39971  1.0000
  N   N37       1.0  0.8319399999999999  0.10642  0.44253  1.0000
  C   C40       1.0  0.67152  0.014070000000000006  0.65392  1.0000
  C   C41       1.0  0.60057  0.03786000000000003  0.7461200000000002  1.0000
  C   C42       1.0  0.5731500000000002  0.9934000000000002  0.8496800000000001  1.0000
  O   O6        1.0  0.50539  0.9533700000000002  0.8810200000000001  1.0000
  N   N38       1.0  0.62071  0.9928000000000003  0.9103800000000001  1.0000
  C   C43       1.0  0.55056  0.09595  0.73479  1.0000
  C   C44       1.0  0.30904  0.07027  0.5163  1.0000
  H   H16       1.0  0.14442  0.97524  0.5148  1.0000
  H   H17       1.0  0.18472000000000002  0.86437  0.48939  1.0000
  H   H18       1.0  0.28608  0.88365  0.31455000000000005  1.0000
  H   H19       1.0  0.45981  0.01934  0.11078  1.0000
  H   H20       1.0  0.46969  0.90614  0.13728  1.0000
  H   H21       1.0  0.4798299999999999  0.10695000000000003  0.28378  1.0000
  H   H22       1.0  0.44761999999999996  0.25238000000000005  0.4501300000000001  1.0000
  H   H23       1.0  0.38494  0.22789  0.59128  1.0000
  H   H24       1.0  0.53702  0.12735  0.44202  1.0000
  H   H25       1.0  0.6604099999999999  0.13616000000000003  0.46022  1.0000
  H   H26       1.0  0.82174  0.16972  0.50277  1.0000
  H   H27       1.0  0.7097  0.96754  0.66154  1.0000
  H   H28       1.0  0.59826  0.9514  0.97631  1.0000
  H   H29       1.0  0.49521999999999994  0.11276000000000004  0.8064900000000002  1.0000
  H   H30       1.0  0.27886999999999995  0.10157  0.6057  1.0000
