data_image0
_chemical_formula_structural       EuOCO6COC2EuOCO6COC2EuOCO6COC2EuOCO6COC2EuOCO6COC2EuOCO6COC2EuOCO6COC2EuOCO6COC2EuOCO6COC2EuOCO6COC2EuOCO6COC2EuOCO6COC7IC2ICH6C5IC2ICH6C5IC2ICH6C5IC2ICH6C5IC2ICH6C5IC2ICH6C5IC2ICH6C5IC2ICH6C5IC2ICH6C5IC2ICH6C5IC2ICH6C5IC2ICH6C5IC2ICH6C5IC2ICH6C5IC2ICH6C5IC2ICH6C5IC2ICH6C5IC2ICH6C5IC2ICH6C5IC2ICH6C5IC2ICH6C5IC2ICH6C5IC2ICH6C5IC2ICH6
_chemical_formula_sum              "Eu12 O96 C240 I48 H144"
_cell_length_a       31.3673
_cell_length_b       31.995200000000004
_cell_length_c       30.0754
_cell_angle_alpha    84.39009999999999
_cell_angle_beta     90.66670000000002
_cell_angle_gamma    89.5488

_space_group_name_H-M_alt    "P 1"
_space_group_IT_number       1

loop_
  _space_group_symop_operation_xyz
  'x, y, z'

loop_
  _atom_site_type_symbol
  _atom_site_label
  _atom_site_symmetry_multiplicity
  _atom_site_fract_x
  _atom_site_fract_y
  _atom_site_fract_z
  _atom_site_occupancy
  Eu  Eu1       1.0  0.99875  0.49534  0.7614999999999997  1.0000
  O   O1        1.0  0.042300000000000004  0.50468  0.8575399999999997  1.0000
  C   C1        1.0  0.02614  0.4182  0.7132199999999997  1.0000
  O   O2        1.0  0.9267899999999998  0.47437000000000024  0.82973  1.0000
  O   O3        1.0  0.96875  0.53111  0.8151399999999998  1.0000
  O   O4        1.0  0.96883  0.52529  0.6656299999999998  1.0000
  O   O5        1.0  0.0069599999999999974  0.40215  0.7455499999999999  1.0000
  O   O6        1.0  0.02807  0.46173  0.7056499999999998  1.0000
  O   O7        1.0  0.06621999999999999  0.50711  0.7865699999999998  1.0000
  C   C2        1.0  0.06831999999999998  0.51847  0.8301199999999997  1.0000
  O   O8        1.0  0.005179999999999997  0.55733  0.7177699999999998  1.0000
  C   C3        1.0  0.9945  0.55217  0.67362  1.0000
  C   C4        1.0  0.93243  0.51163  0.8328499999999998  1.0000
  Eu  Eu2       1.0  0.48949  0.99234  0.2598599999999999  1.0000
  O   O9        1.0  0.53255  0.0002800000000000634  0.3729599999999999  1.0000
  C   C5        1.0  0.5120699999999998  0.92244  0.20481  1.0000
  O   O10       1.0  0.39463  0.01961000000000001  0.2721499999999999  1.0000
  O   O11       1.0  0.45308  0.016490000000000015  0.3171799999999999  1.0000
  O   O12       1.0  0.4751  0.06162000000000001  0.18332999999999994  1.0000
  O   O13       1.0  0.48777999999999994  0.909  0.23420999999999995  1.0000
  O   O14       1.0  0.52337  0.96461  0.20261999999999994  1.0000
  O   O15       1.0  0.545  0.9721900000000001  0.30795  1.0000
  C   C6        1.0  0.55334  0.0012300000000000668  0.33877  1.0000
  O   O16       1.0  0.52034  0.05607  0.2425  1.0000
  C   C7        1.0  0.50342  0.07748000000000001  0.20365999999999995  1.0000
  C   C8        1.0  0.40943  0.012390000000000002  0.30991  1.0000
  Eu  Eu3       1.0  0.99079  0.5125700000000001  0.23974999999999994  1.0000
  O   O17       1.0  0.06295  0.54054  0.16652  1.0000
  C   C9        1.0  0.99085  0.59076  0.2910199999999999  1.0000
  O   O18       1.0  0.90675  0.50887  0.18668999999999994  1.0000
  O   O19       1.0  0.96625  0.46872  0.19029  1.0000
  O   O20       1.0  0.9162999999999998  0.46823000000000004  0.28433999999999987  1.0000
  O   O21       1.0  0.97416  0.607  0.2567599999999999  1.0000
  O   O22       1.0  0.01597  0.55497  0.28996  1.0000
  O   O23       1.0  0.05842  0.49151000000000006  0.22533999999999996  1.0000
  C   C10       1.0  0.06838  0.50402  0.18116999999999997  1.0000
  O   O24       1.0  0.98692  0.46043  0.29681999999999986  1.0000
  C   C11       1.0  0.9448  0.45253  0.30839  1.0000
  C   C12       1.0  0.92822  0.48291  0.16973  1.0000
  Eu  Eu4       1.0  0.7187899999999998  0.47867000000000004  0.9883899999999999  1.0000
  O   O25       1.0  0.78903  0.45399  0.9173099999999997  1.0000
  C   C13       1.0  0.6321  0.43933000000000005  0.9622299999999998  1.0000
  O   O26       1.0  0.76322  0.44983  0.07825999999999997  1.0000
  O   O27       1.0  0.7880599999999999  0.475  0.010399999999999996  1.0000
  O   O28       1.0  0.65111  0.55967  0.9830799999999998  1.0000
  O   O29       1.0  0.60263  0.43660000000000004  0.9357399999999999  1.0000
  O   O30       1.0  0.64956  0.47903000000000007  0.9655  1.0000
  O   O31       1.0  0.7396899999999997  0.50575  0.91917  1.0000
  C   C14       1.0  0.78032  0.4912500000000001  0.9091999999999999  1.0000
  O   O32       1.0  0.71741  0.54497  0.011749999999999997  1.0000
  C   C15       1.0  0.68371  0.5725300000000001  0.9992099999999999  1.0000
  C   C16       1.0  0.79389  0.45809  0.0545  1.0000
  Eu  Eu5       1.0  0.51019  0.05314000000000001  0.74044  1.0000
  O   O33       1.0  0.60167  0.044840000000000005  0.69645  1.0000
  C   C17       1.0  0.54702  0.12096000000000001  0.7949999999999998  1.0000
  O   O34       1.0  0.4163799999999999  0.06461000000000004  0.69984  1.0000
  O   O35       1.0  0.45914999999999995  0.00876999999999995  0.7184499999999998  1.0000
  O   O36       1.0  0.50088  0.96755  0.7999999999999998  1.0000
  O   O37       1.0  0.50916  0.13026000000000001  0.7944299999999997  1.0000
  O   O38       1.0  0.56265  0.09481  0.7643999999999999  1.0000
  O   O39       1.0  0.55846  0.9996499999999999  0.73687  1.0000
  C   C18       1.0  0.58932  0.008960000000000017  0.7045599999999997  1.0000
  O   O40       1.0  0.4944  0.03540000000000033  0.8137499999999998  1.0000
  C   C19       1.0  0.49978  0.9929900000000002  0.8275899999999998  1.0000
  C   C20       1.0  0.4263599999999999  0.028990000000000068  0.69318  1.0000
  Eu  Eu6       1.0  0.23389  0.010250000000000018  0.5135499999999997  1.0000
  O   O41       1.0  0.28941  0.94438  0.4756399999999999  1.0000
  C   C21       1.0  0.19517  0.93849  0.4598699999999999  1.0000
  O   O42       1.0  0.24605000000000005  0.99362  0.62966  1.0000
  O   O43       1.0  0.26355  0.04064  0.57202  1.0000
  O   O44       1.0  0.14777  0.054680000000000006  0.4905199999999999  1.0000
  O   O45       1.0  0.1972  0.9181  0.4276599999999999  1.0000
  O   O46       1.0  0.20513999999999993  0.98121  0.4536599999999999  1.0000
  O   O47       1.0  0.29848  0.013660000000000012  0.47810999999999987  1.0000
  C   C22       1.0  0.31282  0.9743100000000001  0.4681599999999999  1.0000
  O   O48       1.0  0.21614  0.07581  0.4818599999999999  1.0000
  C   C23       1.0  0.17236  0.08108000000000001  0.4740499999999999  1.0000
  C   C24       1.0  0.27433  0.010820000000000003  0.6073  1.0000
  Eu  Eu7       1.0  0.020609999999999996  0.77598  0.4938099999999999  1.0000
  O   O49       1.0  0.94457  0.82994  0.4531599999999999  1.0000
  C   C25       1.0  0.99965  0.7222  0.4176399999999999  1.0000
  O   O50       1.0  0.06199  0.86114  0.4877499999999999  1.0000
  O   O51       1.0  0.06507  0.80687  0.54113  1.0000
  O   O52       1.0  0.07628999999999998  0.69956  0.5168699999999998  1.0000
  O   O53       1.0  0.032099999999999795  0.73803  0.4017599999999999  1.0000
  O   O54       1.0  0.97632  0.7433  0.44782  1.0000
  O   O55       1.0  0.9638699999999998  0.807  0.52443  1.0000
  C   C26       1.0  0.9353  0.82622  0.4926599999999999  1.0000
  O   O56       1.0  0.014189999999999998  0.7188  0.54513  1.0000
  C   C27       1.0  0.04449  0.68843  0.5375499999999998  1.0000
  C   C28       1.0  0.07749  0.84656  0.52331  1.0000
  Eu  Eu8       1.0  0.76562  0.03475000000000001  0.5087599999999999  1.0000
  O   O57       1.0  0.67257  0.04  0.46907  1.0000
  C   C29       1.0  0.83016  0.10540999999999999  0.5134  1.0000
  O   O58       1.0  0.7229999999999998  0.025970000000000045  0.59822  1.0000
  O   O59       1.0  0.71129  0.9931799999999998  0.53604  1.0000
  O   O60       1.0  0.79353  0.95981  0.5684099999999997  1.0000
  O   O61       1.0  0.80154  0.12985  0.52031  1.0000
  O   O62       1.0  0.82194  0.07507000000000001  0.4845199999999999  1.0000
  O   O63       1.0  0.73781  0.038720000000000004  0.4375499999999999  1.0000
  C   C30       1.0  0.69349  0.042910000000000004  0.4351299999999999  1.0000
  O   O64       1.0  0.80411  0.97667  0.4949399999999999  1.0000
  C   C31       1.0  0.80701  0.94899  0.53343  1.0000
  C   C32       1.0  0.70205  0.0003100000000000323  0.5799399999999999  1.0000
  Eu  Eu9       1.0  0.014569999999999998  0.28352  0.4864099999999999  1.0000
  O   O65       1.0  0.03723  0.23623  0.40832  1.0000
  C   C33       1.0  0.02989  0.33426  0.3934099999999999  1.0000
  O   O66       1.0  0.93506  0.23313  0.47746  1.0000
  O   O67       1.0  0.97896  0.23889  0.53643  1.0000
  O   O68       1.0  0.9998200000000002  0.32454  0.57369  1.0000
  O   O69       1.0  0.04913999999999998  0.3269400000000001  0.35993  1.0000
  O   O70       1.0  0.05047  0.32671  0.4349399999999999  1.0000
  O   O71       1.0  0.06286  0.23111  0.47889  1.0000
  C   C34       1.0  0.06442  0.22186  0.4348699999999999  1.0000
  O   O72       1.0  0.05918999999999999  0.30325  0.5404199999999998  1.0000
  C   C35       1.0  0.03845999999999994  0.32017000000000007  0.5751099999999998  1.0000
  C   C36       1.0  0.94952  0.21684  0.5129  1.0000
  Eu  Eu10      1.0  0.5056  0.76224  0.9815499999999999  1.0000
  O   O73       1.0  0.57075  0.67961  0.99762  1.0000
  C   C37       1.0  0.48703999999999986  0.85158  0.9352999999999998  1.0000
  O   O74       1.0  0.4331  0.70321  0.9647599999999998  1.0000
  O   O75       1.0  0.49037  0.69583  0.01016  1.0000
  O   O76       1.0  0.48285  0.82316  0.048919999999999984  1.0000
  O   O77       1.0  0.45429  0.83372  0.9261199999999998  1.0000
  O   O78       1.0  0.52164  0.82865  0.9542299999999998  1.0000
  O   O79       1.0  0.57122  0.74332  0.95705  1.0000
  C   C38       1.0  0.5912899999999999  0.7096200000000001  0.9822099999999998  1.0000
  O   O80       1.0  0.53674  0.77612  0.04716  1.0000
  C   C39       1.0  0.51744  0.81063  0.06368999999999998  1.0000
  C   C40       1.0  0.45838  0.6792200000000002  0.9852999999999998  1.0000
  Eu  Eu11      1.0  0.26472  0.50614  0.002629999999999999  1.0000
  O   O81       1.0  0.23279999999999995  0.5789300000000001  0.9477699999999998  1.0000
  C   C41       1.0  0.33832  0.56715  0.9996399999999998  1.0000
  O   O82       1.0  0.21398  0.50774  0.09087999999999997  1.0000
  O   O83       1.0  0.21157  0.4665  0.03393  1.0000
  O   O84       1.0  0.3067  0.45046  0.06779999999999997  1.0000
  O   O85       1.0  0.31694  0.5797400000000001  0.029319999999999787  1.0000
  O   O86       1.0  0.31955  0.5424100000000001  0.9694599999999998  1.0000
  O   O87       1.0  0.22688  0.51065  0.93706  1.0000
  C   C42       1.0  0.21488  0.55252  0.9278899999999998  1.0000
  O   O88       1.0  0.30014  0.44546  0.9938299999999999  1.0000
  C   C43       1.0  0.3149  0.43057  0.03638  1.0000
  C   C44       1.0  0.19473999999999994  0.48126  0.07203  1.0000
  Eu  Eu12      1.0  0.5142599999999999  0.23448999999999998  0.9716999999999999  1.0000
  O   O89       1.0  0.43656  0.29849  0.9474399999999997  1.0000
  C   C45       1.0  0.46998  0.19470000000000004  0.8967099999999998  1.0000
  O   O90       1.0  0.55392  0.3174  0.97643  1.0000
  O   O91       1.0  0.57411  0.2535  0.007629999999999998  1.0000
  O   O92       1.0  0.5685699999999998  0.16763000000000006  0.029659999999999992  1.0000
  O   O93       1.0  0.44409  0.18040000000000003  0.8721199999999998  1.0000
  O   O94       1.0  0.45615  0.21477000000000002  0.9331299999999998  1.0000
  O   O95       1.0  0.4764199999999999  0.28022  0.009819999999999997  1.0000
  C   C46       1.0  0.44084  0.29858  0.9876899999999997  1.0000
  O   O96       1.0  0.4994  0.1871  0.030909999999999993  1.0000
  C   C47       1.0  0.53719  0.17287  0.05216999999999999  1.0000
  C   C48       1.0  0.57914  0.29657  0.00061  1.0000
  C   C49       1.0  0.049059999999999986  0.39207  0.68137  1.0000
  C   C50       1.0  0.09709999999999999  0.40402000000000005  0.6798999999999998  1.0000
  C   C51       1.0  0.12858  0.36812  0.68228  1.0000
  C   C52       1.0  0.13255  0.34228  0.65033  1.0000
  C   C53       1.0  0.10385  0.34359  0.61116  1.0000
  I   I1        1.0  0.13284  0.36494  0.54969  1.0000
  C   C54       1.0  0.06315000000000003  0.32996  0.61482  1.0000
  C   C55       1.0  0.044480000000000075  0.31822  0.6594299999999997  1.0000
  I   I2        1.0  0.02567000000000008  0.25524  0.67523  1.0000
  C   C56       1.0  0.040339999999999994  0.34535000000000005  0.6905299999999998  1.0000
  H   H1        1.0  0.03494  0.40210000000000007  0.6479499999999998  1.0000
  H   H2        1.0  0.10540999999999998  0.42312000000000005  0.7076399999999999  1.0000
  H   H3        1.0  0.10297  0.42483  0.6488199999999997  1.0000
  H   H4        1.0  0.15062999999999993  0.36449  0.71036  1.0000
  H   H5        1.0  0.158  0.31909  0.65311  1.0000
  H   H6        1.0  0.029479999999999954  0.33313  0.72323  1.0000
  C   C57       1.0  0.5882  0.03313  0.3293  1.0000
  C   C58       1.0  0.58079  0.07352  0.35175  1.0000
  C   C59       1.0  0.60628  0.10807999999999998  0.32797  1.0000
  C   C60       1.0  0.64704  0.11466999999999998  0.33754  1.0000
  C   C61       1.0  0.66761  0.09646000000000002  0.37907999999999986  1.0000
  I   I3        1.0  0.69017  0.14309  0.41934999999999995  1.0000
  C   C62       1.0  0.67219  0.05485  0.39169  1.0000
  C   C63       1.0  0.66617  0.021039999999999948  0.36103999999999997  1.0000
  I   I4        1.0  0.71807  0.97832  0.35742  1.0000
  C   C64       1.0  0.6317799999999998  0.012359999999999935  0.3359699999999999  1.0000
  H   H7        1.0  0.58539  0.04206000000000001  0.2928899999999999  1.0000
  H   H8        1.0  0.58778  0.06894000000000002  0.3882199999999999  1.0000
  H   H9        1.0  0.54666  0.08296  0.3479099999999999  1.0000
  H   H10       1.0  0.5917  0.12647  0.29956  1.0000
  H   H11       1.0  0.66293  0.14037000000000002  0.31856999999999996  1.0000
  H   H12       1.0  0.6356  0.9861600000000001  0.3160099999999999  1.0000
  C   C65       1.0  0.9861  0.67845  0.40857999999999994  1.0000
  C   C66       1.0  0.94163  0.67924  0.38682  1.0000
  C   C67       1.0  0.91856  0.64156  0.40705  1.0000
  C   C68       1.0  0.9262  0.60341  0.3952199999999999  1.0000
  C   C69       1.0  0.94203  0.59655  0.35096999999999995  1.0000
  I   I5        1.0  0.89504  0.56591  0.3141699999999999  1.0000
  C   C70       1.0  0.9812999999999998  0.60615  0.33449  1.0000
  C   C71       1.0  0.01853999999999999  0.6234  0.3589599999999999  1.0000
  I   I6        1.0  0.08098  0.60053  0.3453799999999999  1.0000
  C   C72       1.0  0.02033  0.65515  0.38552  1.0000
  H   H13       1.0  0.98481  0.66134  0.4425999999999999  1.0000
  H   H14       1.0  0.94323  0.6805700000000001  0.34977999999999987  1.0000
  H   H15       1.0  0.92309  0.70737  0.39456999999999987  1.0000
  H   H16       1.0  0.90079  0.64439  0.4372499999999999  1.0000
  H   H17       1.0  0.91063  0.57731  0.41393  1.0000
  H   H18       1.0  0.0521  0.66283  0.39638  1.0000
  C   C73       1.0  0.38128  0.9954099999999999  0.34777999999999987  1.0000
  C   C74       1.0  0.38747  0.94724  0.3545299999999999  1.0000
  C   C75       1.0  0.4238999999999999  0.93378  0.38577  1.0000
  C   C76       1.0  0.41852  0.92669  0.4298399999999999  1.0000
  C   C77       1.0  0.3765  0.93153  0.4504999999999999  1.0000
  I   I7        1.0  0.35384  0.87405  0.4831  1.0000
  C   C78       1.0  0.35551  0.9691700000000001  0.44785999999999987  1.0000
  C   C79       1.0  0.37791999999999987  0.008269999999999998  0.43087  1.0000
  I   I8        1.0  0.39665  0.04919  0.47831999999999997  1.0000
  C   C80       1.0  0.39031  0.018730000000000014  0.3885399999999999  1.0000
  H   H19       1.0  0.3475  0.0018700000000000446  0.3376099999999999  1.0000
  H   H20       1.0  0.39321  0.93441  0.32202  1.0000
  H   H21       1.0  0.35733  0.93227  0.36653999999999987  1.0000
  H   H22       1.0  0.4553  0.92991  0.37203999999999987  1.0000
  H   H23       1.0  0.44496  0.91423  0.45064  1.0000
  H   H24       1.0  0.4068  0.04834000000000001  0.38235999999999987  1.0000
  C   C81       1.0  0.9865  0.35524  0.38849  1.0000
  C   C82       1.0  0.95058  0.32719  0.4091999999999999  1.0000
  C   C83       1.0  0.91107  0.3497  0.4233599999999999  1.0000
  C   C84       1.0  0.88894  0.37991  0.3987699999999999  1.0000
  C   C85       1.0  0.90175  0.40052  0.35495999999999994  1.0000
  I   I9        1.0  0.86023  0.38925  0.3012  1.0000
  C   C86       1.0  0.93527  0.42709  0.35071999999999987  1.0000
  C   C87       1.0  0.96541  0.43052000000000007  0.3885699999999999  1.0000
  I   I10       1.0  0.97383  0.48943  0.41348999999999997  1.0000
  C   C88       1.0  0.98831  0.39754  0.40672999999999987  1.0000
  H   H25       1.0  0.9797099999999999  0.36009  0.35191  1.0000
  H   H26       1.0  0.96291  0.30818  0.4392599999999999  1.0000
  H   H27       1.0  0.9408099999999998  0.30465  0.38518999999999987  1.0000
  H   H28       1.0  0.8973899999999998  0.33765  0.45491  1.0000
  H   H29       1.0  0.85888  0.39004  0.4116899999999999  1.0000
  H   H30       1.0  0.008749999999999999  0.40139  0.4353299999999999  1.0000
  C   C89       1.0  0.63885  0.7102300000000003  0.9887599999999999  1.0000
  C   C90       1.0  0.65119  0.70099  0.03809  1.0000
  C   C91       1.0  0.6983  0.70582  0.04378999999999999  1.0000
  C   C92       1.0  0.72539  0.6739  0.041579999999999985  1.0000
  C   C93       1.0  0.71084  0.63069  0.03845  1.0000
  I   I11       1.0  0.7253  0.59017  0.09725  1.0000
  C   C94       1.0  0.6891899999999997  0.61817  0.0026999999999999993  1.0000
  C   C95       1.0  0.6802599999999998  0.64656  0.9608699999999999  1.0000
  I   I12       1.0  0.69824  0.6241800000000001  0.8994899999999999  1.0000
  C   C96       1.0  0.66009  0.68423  0.9556699999999999  1.0000
  H   H31       1.0  0.64888  0.7431300000000001  0.9790699999999998  1.0000
  H   H32       1.0  0.6401099999999997  0.66947  0.05175999999999999  1.0000
  H   H33       1.0  0.6350499999999998  0.72413  0.057669999999999985  1.0000
  H   H34       1.0  0.71074  0.7367  0.047969999999999985  1.0000
  H   H35       1.0  0.75886  0.67882  0.04842  1.0000
  H   H36       1.0  0.65729  0.69884  0.9216799999999998  1.0000
  C   C97       1.0  0.64507  0.4001  0.9920999999999998  1.0000
  C   C98       1.0  0.68989  0.40074  0.012789999999999996  1.0000
  C   C99       1.0  0.70424  0.36262  0.04366  1.0000
  C   C100      1.0  0.68888  0.32322  0.048799999999999996  1.0000
  C   C101      1.0  0.65424  0.30481  0.02338  1.0000
  I   I13       1.0  0.67359  0.2511  0.9920499999999999  1.0000
  C   C102      1.0  0.61303  0.31758  0.02387999999999999  1.0000
  C   C103      1.0  0.59997  0.35544  0.04467  1.0000
  I   I14       1.0  0.55387  0.34966  0.09546  1.0000
  C   C104      1.0  0.61332  0.39352  0.029279999999999994  1.0000
  H   H37       1.0  0.64461  0.37424  0.9699299999999997  1.0000
  H   H38       1.0  0.69105  0.42754  0.03360999999999999  1.0000
  H   H39       1.0  0.71367  0.40558  0.9857499999999999  1.0000
  H   H40       1.0  0.73221  0.36808  0.06374999999999997  1.0000
  H   H41       1.0  0.70683  0.30079  0.07113999999999997  1.0000
  H   H42       1.0  0.60241  0.4205  0.04535999999999999  1.0000
  C   C105      1.0  0.32023  0.9976700000000001  0.6164  1.0000
  C   C106      1.0  0.32808  0.95476  0.5980499999999997  1.0000
  C   C107      1.0  0.37295999999999996  0.94624  0.5840899999999999  1.0000
  C   C108      1.0  0.40774  0.94892  0.60961  1.0000
  C   C109      1.0  0.40903  0.9666499999999999  0.6531199999999998  1.0000
  I   I15       1.0  0.42511  0.92187  0.70785  1.0000
  C   C110      1.0  0.40663  0.008780000000000003  0.65556  1.0000
  C   C111      1.0  0.38933  0.037130000000000024  0.6171699999999998  1.0000
  I   I16       1.0  0.42617  0.08929000000000002  0.5919199999999998  1.0000
  C   C112      1.0  0.35097  0.03148000000000001  0.5983  1.0000
  H   H43       1.0  0.32416  0.99332  0.6533799999999997  1.0000
  H   H44       1.0  0.30725  0.95193  0.56832  1.0000
  H   H45       1.0  0.31868  0.92921  0.6237099999999998  1.0000
  H   H46       1.0  0.37699  0.93412  0.5520799999999998  1.0000
  H   H47       1.0  0.43763  0.93787  0.5972699999999997  1.0000
  H   H48       1.0  0.34185  0.05210000000000003  0.5689699999999998  1.0000
  C   C113      1.0  0.01769  0.57684  0.6360499999999998  1.0000
  C   C114      1.0  0.04727  0.5466100000000003  0.61332  1.0000
  C   C115      1.0  0.09087  0.56489  0.6081299999999997  1.0000
  C   C116      1.0  0.09899  0.59739  0.57851  1.0000
  C   C117      1.0  0.0674  0.6145  0.5450999999999999  1.0000
  I   I17       1.0  0.09061  0.61383  0.47936  1.0000
  C   C118      1.0  0.03907999999999999  0.64366  0.5558499999999997  1.0000
  C   C119      1.0  0.9955  0.62937  0.57018  1.0000
  I   I18       1.0  0.94127  0.65446  0.53339  1.0000
  C   C120      1.0  0.98636  0.5994200000000001  0.6033399999999998  1.0000
  H   H49       1.0  0.036639999999999985  0.6010800000000002  0.6513599999999998  1.0000
  H   H50       1.0  0.03421000000000007  0.53949  0.5803399999999997  1.0000
  H   H51       1.0  0.05092  0.51576  0.6335699999999997  1.0000
  H   H52       1.0  0.11604000000000002  0.55282  0.6309699999999998  1.0000
  H   H53       1.0  0.13111  0.6095  0.57653  1.0000
  H   H54       1.0  0.95307  0.59129  0.6076399999999997  1.0000
  C   C121      1.0  0.66521  0.97833  0.6040499999999998  1.0000
  C   C122      1.0  0.6467099999999999  0.94358  0.5772799999999999  1.0000
  C   C123      1.0  0.61971  0.91071  0.60271  1.0000
  C   C124      1.0  0.5898399999999999  0.91743  0.6327199999999997  1.0000
  C   C125      1.0  0.58008  0.9579800000000002  0.6498799999999998  1.0000
  I   I19       1.0  0.52059  0.9851099999999999  0.62928  1.0000
  C   C126      1.0  0.6057899999999998  0.9753000000000001  0.6792499999999998  1.0000
  C   C127      1.0  0.6509599999999999  0.9619  0.6857299999999997  1.0000
  I   I20       1.0  0.67374  0.9430699999999999  0.75099  1.0000
  C   C128      1.0  0.6779599999999999  0.9618199999999999  0.6513599999999998  1.0000
  H   H55       1.0  0.64037  0.003079999999999997  0.60511  1.0000
  H   H56       1.0  0.67334  0.92638  0.56288  1.0000
  H   H57       1.0  0.62739  0.9585400000000001  0.5487399999999998  1.0000
  H   H58       1.0  0.62204  0.87924  0.59243  1.0000
  H   H59       1.0  0.57016  0.8912  0.64478  1.0000
  H   H60       1.0  0.71014  0.9500500000000001  0.65773  1.0000
  C   C129      1.0  0.83867  0.45039  0.07190999999999997  1.0000
  C   C130      1.0  0.85944  0.41509  0.047289999999999985  1.0000
  C   C131      1.0  0.90568  0.42065  0.03588  1.0000
  C   C132      1.0  0.93665  0.4263  0.06541  1.0000
  C   C133      1.0  0.92999  0.4324600000000001  0.11277999999999998  1.0000
  I   I21       1.0  0.95234  0.38178  0.15833999999999995  1.0000
  C   C134      1.0  0.91629  0.46982  0.12540999999999994  1.0000
  C   C135      1.0  0.89444  0.50142  0.09288999999999997  1.0000
  I   I22       1.0  0.9112  0.56589  0.08893  1.0000
  C   C136      1.0  0.8618199999999999  0.49192  0.06671  1.0000
  H   H61       1.0  0.83714  0.43926  0.10813999999999997  1.0000
  H   H62       1.0  0.84225  0.41147  0.015309999999999997  1.0000
  H   H63       1.0  0.85597  0.38462  0.06802999999999997  1.0000
  H   H64       1.0  0.9149  0.41635  0.00199  1.0000
  H   H65       1.0  0.96921  0.42598  0.05405999999999998  1.0000
  H   H66       1.0  0.8494  0.51669  0.04275  1.0000
  C   C137      1.0  0.53251  0.89293  0.17432999999999996  1.0000
  C   C138      1.0  0.57387  0.87449  0.19656999999999994  1.0000
  C   C139      1.0  0.6101699999999998  0.87357  0.16523999999999994  1.0000
  C   C140      1.0  0.61081  0.86133  0.12393999999999997  1.0000
  C   C141      1.0  0.57701  0.84835  0.09286999999999997  1.0000
  I   I23       1.0  0.60059  0.85575  0.025889999999999993  1.0000
  C   C142      1.0  0.53805  0.83054  0.10052999999999998  1.0000
  C   C143      1.0  0.51354  0.82555  0.14273  1.0000
  I   I24       1.0  0.47836  0.76913  0.15735  1.0000
  C   C144      1.0  0.50405  0.85631  0.16810999999999995  1.0000
  H   H67       1.0  0.53855  0.91105  0.14151  1.0000
  H   H68       1.0  0.56963  0.84216  0.21327999999999994  1.0000
  H   H69       1.0  0.58437  0.89348  0.22375  1.0000
  H   H70       1.0  0.6406  0.88249  0.17879  1.0000
  H   H71       1.0  0.64211  0.86372  0.10904999999999998  1.0000
  H   H72       1.0  0.48015  0.84889  0.19323999999999994  1.0000
  C   C145      1.0  0.15143  0.46665  0.08782999999999998  1.0000
  C   C146      1.0  0.13148  0.43799  0.054629999999999984  1.0000
  C   C147      1.0  0.09309  0.41293  0.07018  1.0000
  C   C148      1.0  0.06122999999999999  0.42609  0.09445999999999997  1.0000
  C   C149      1.0  0.05975  0.46633  0.11422999999999997  1.0000
  I   I25       1.0  0.01715  0.5112  0.08211  1.0000
  C   C150      1.0  0.08214  0.47229  0.15176999999999993  1.0000
  C   C151      1.0  0.12126  0.44702  0.16397  1.0000
  I   I26       1.0  0.12763  0.41387  0.22813999999999995  1.0000
  C   C152      1.0  0.1534  0.44486000000000003  0.13494999999999993  1.0000
  H   H73       1.0  0.13196999999999998  0.49589  0.08679999999999999  1.0000
  H   H74       1.0  0.15564  0.41449  0.04623  1.0000
  H   H75       1.0  0.12282  0.45741  0.023079999999999993  1.0000
  H   H76       1.0  0.08943999999999998  0.3827  0.05726  1.0000
  H   H77       1.0  0.03413  0.40568  0.10016999999999997  1.0000
  H   H78       1.0  0.18086  0.42526  0.14482  1.0000
  C   C153      1.0  0.81397  0.52148  0.8899599999999998  1.0000
  C   C154      1.0  0.7967299999999998  0.56702  0.8858299999999998  1.0000
  C   C155      1.0  0.82837  0.6024700000000001  0.8814199999999998  1.0000
  C   C156      1.0  0.8645  0.6049900000000001  0.8580899999999998  1.0000
  C   C157      1.0  0.88437  0.5718700000000001  0.8343899999999997  1.0000
  I   I27       1.0  0.89613  0.59034  0.76569  1.0000
  C   C158      1.0  0.90132  0.53629  0.8557799999999998  1.0000
  C   C159      1.0  0.89288  0.52314  0.9035299999999999  1.0000
  I   I28       1.0  0.94508  0.51238  0.9485899999999998  1.0000
  C   C160      1.0  0.8534599999999999  0.5170400000000002  0.9193799999999998  1.0000
  H   H79       1.0  0.82125  0.51259  0.8559699999999998  1.0000
  H   H80       1.0  0.7789299999999998  0.5716900000000001  0.9167599999999998  1.0000
  H   H81       1.0  0.77373  0.57134  0.8572799999999998  1.0000
  H   H82       1.0  0.81818  0.63096  0.8951299999999998  1.0000
  H   H83       1.0  0.88019  0.63514  0.8544699999999997  1.0000
  H   H84       1.0  0.84972  0.5088200000000002  0.9549399999999998  1.0000
  C   C161      1.0  0.49005  0.8987100000000002  0.92832  1.0000
  C   C162      1.0  0.47943  0.91743  0.9726199999999998  1.0000
  C   C163      1.0  0.50291  0.9566100000000001  0.9818099999999997  1.0000
  C   C164      1.0  0.5034999999999997  0.99216  0.9545499999999998  1.0000
  C   C165      1.0  0.48709  0.9969100000000001  0.9081099999999998  1.0000
  I   I29       1.0  0.43358  0.037549999999999986  0.8959399999999997  1.0000
  C   C166      1.0  0.50753  0.97918  0.87521  1.0000
  C   C167      1.0  0.54127  0.94711  0.886  1.0000
  I   I30       1.0  0.60377  0.95961  0.8632499999999997  1.0000
  C   C168      1.0  0.5338  0.9108599999999999  0.91061  1.0000
  H   H85       1.0  0.46544  0.91006  0.90292  1.0000
  H   H86       1.0  0.4862999999999999  0.89393  0.0015199999999999656  1.0000
  H   H87       1.0  0.44468  0.9241599999999999  0.97342  1.0000
  H   H88       1.0  0.5176999999999998  0.9569100000000001  0.014520000000000087  1.0000
  H   H89       1.0  0.51862  0.019069999999999938  0.9667399999999998  1.0000
  H   H90       1.0  0.56064  0.88998  0.9188299999999998  1.0000
  C   C169      1.0  0.10291999999999998  0.54836  0.84189  1.0000
  C   C170      1.0  0.09931  0.58876  0.8095499999999998  1.0000
  C   C171      1.0  0.1253  0.62569  0.82132  1.0000
  C   C172      1.0  0.16461  0.6248200000000002  0.8392799999999998  1.0000
  C   C173      1.0  0.18956  0.58748  0.8571599999999998  1.0000
  I   I31       1.0  0.25141  0.58325  0.8295699999999998  1.0000
  C   C174      1.0  0.17981  0.56589  0.89661  1.0000
  C   C175      1.0  0.13567  0.56543  0.9147199999999998  1.0000
  I   I32       1.0  0.12585  0.57491  0.98283  1.0000
  C   C176      1.0  0.10094  0.55829  0.8900999999999998  1.0000
  H   H91       1.0  0.13343  0.53211  0.8359099999999998  1.0000
  H   H92       1.0  0.06529  0.59952  0.80796  1.0000
  H   H93       1.0  0.10869  0.58157  0.77543  1.0000
  H   H94       1.0  0.11238999999999999  0.6564  0.8097599999999998  1.0000
  H   H95       1.0  0.18032999999999993  0.65471  0.8408899999999998  1.0000
  H   H96       1.0  0.06988  0.56107  0.9050699999999998  1.0000
  C   C177      1.0  0.57672  0.13685000000000003  0.8290699999999998  1.0000
  C   C178      1.0  0.58684  0.18334000000000003  0.8167699999999998  1.0000
  C   C179      1.0  0.60973  0.20191  0.8541499999999997  1.0000
  C   C180      1.0  0.58862  0.21920000000000003  0.8860099999999997  1.0000
  C   C181      1.0  0.54179  0.22255  0.8854199999999998  1.0000
  I   I33       1.0  0.51785  0.28484  0.8729  1.0000
  C   C182      1.0  0.51608  0.18869  0.8899299999999998  1.0000
  C   C183      1.0  0.53299  0.14518999999999999  0.90032  1.0000
  I   I34       1.0  0.51125  0.11179000000000003  0.9598699999999998  1.0000
  C   C184      1.0  0.56046  0.12449000000000002  0.8759299999999998  1.0000
  H   H97       1.0  0.60755  0.11972000000000001  0.8270099999999999  1.0000
  H   H98       1.0  0.55739  0.20148  0.8067499999999997  1.0000
  H   H99       1.0  0.60758  0.18629000000000007  0.7869199999999997  1.0000
  H   H100      1.0  0.6442099999999998  0.20076  0.8554899999999998  1.0000
  H   H101      1.0  0.6063599999999998  0.23396  0.9112099999999997  1.0000
  H   H102      1.0  0.56954  0.09303000000000003  0.8895499999999997  1.0000
  C   C185      1.0  0.54098  0.16653  0.10244999999999997  1.0000
  C   C186      1.0  0.57475  0.19722000000000006  0.11787999999999997  1.0000
  C   C187      1.0  0.57439  0.20532  0.16645999999999994  1.0000
  C   C188      1.0  0.5696  0.17642  0.20123999999999995  1.0000
  C   C189      1.0  0.5587299999999997  0.13207  0.19819  1.0000
  I   I35       1.0  0.61046  0.08889  0.2088  1.0000
  C   C190      1.0  0.51852  0.12034  0.18892999999999996  1.0000
  C   C191      1.0  0.48834  0.1506  0.16409999999999994  1.0000
  I   I36       1.0  0.42766  0.16122000000000003  0.19098999999999994  1.0000
  C   C192      1.0  0.4984699999999999  0.17188  0.12490999999999997  1.0000
  H   H103      1.0  0.55279  0.13378  0.11031999999999997  1.0000
  H   H104      1.0  0.57033  0.22836000000000004  0.09829999999999997  1.0000
  H   H105      1.0  0.60706  0.18548  0.11018999999999998  1.0000
  H   H106      1.0  0.58318  0.23662  0.17383999999999994  1.0000
  H   H107      1.0  0.57432  0.18597  0.23447999999999994  1.0000
  H   H108      1.0  0.4759499999999999  0.195  0.10976999999999999  1.0000
  C   C193      1.0  0.89236  0.84091  0.50773  1.0000
  C   C194      1.0  0.87131  0.80471  0.5366499999999997  1.0000
  C   C195      1.0  0.82486  0.80091  0.5281199999999998  1.0000
  C   C196      1.0  0.79527  0.83112  0.5206699999999999  1.0000
  C   C197      1.0  0.7967599999999998  0.87794  0.51476  1.0000
  I   I37       1.0  0.7386000000000001  0.90067  0.48193  1.0000
  C   C198      1.0  0.82367  0.90587  0.53194  1.0000
  C   C199      1.0  0.8672199999999998  0.89852  0.55242  1.0000
  I   I38       1.0  0.88842  0.93686  0.60254  1.0000
  C   C200      1.0  0.8986399999999998  0.87585  0.5365799999999997  1.0000
  H   H109      1.0  0.87267  0.85183  0.47775  1.0000
  H   H110      1.0  0.87648  0.80677  0.57308  1.0000
  H   H111      1.0  0.8857899999999997  0.77408  0.5300099999999999  1.0000
  H   H112      1.0  0.8134  0.7689  0.52958  1.0000
  H   H113      1.0  0.76377  0.81873  0.51543  1.0000
  H   H114      1.0  0.92996  0.8779400000000002  0.5518399999999998  1.0000
  C   C201      1.0  0.9382499999999998  0.17204  0.52841  1.0000
  C   C202      1.0  0.97875  0.14589  0.54175  1.0000
  C   C203      1.0  0.97205  0.10441  0.56934  1.0000
  C   C204      1.0  0.94148  0.07626000000000001  0.56372  1.0000
  C   C205      1.0  0.90544  0.08140000000000001  0.5315399999999998  1.0000
  I   I39       1.0  0.90903  0.037840000000000006  0.48270999999999986  1.0000
  C   C206      1.0  0.8719399999999998  0.10761000000000001  0.5373699999999998  1.0000
  C   C207      1.0  0.87605  0.13996  0.56969  1.0000
  I   I40       1.0  0.83382  0.1386  0.6242399999999998  1.0000
  C   C208      1.0  0.90613  0.16978  0.5656  1.0000
  H   H115      1.0  0.92391  0.15911  0.49875999999999987  1.0000
  H   H116      1.0  0.0002599999999999267  0.16443000000000002  0.56182  1.0000
  H   H117      1.0  0.99625  0.13987000000000005  0.5110499999999998  1.0000
  H   H118      1.0  0.99678  0.09499000000000002  0.59377  1.0000
  H   H119      1.0  0.94384  0.04618000000000002  0.5836099999999997  1.0000
  H   H120      1.0  0.90886  0.1914  0.59102  1.0000
  C   C209      1.0  0.17904  0.91746  0.5036599999999999  1.0000
  C   C210      1.0  0.21315  0.91335  0.54116  1.0000
  C   C211      1.0  0.19679  0.90568  0.5884599999999998  1.0000
  C   C212      1.0  0.16559999999999997  0.87957  0.6033399999999998  1.0000
  C   C213      1.0  0.1387  0.8541700000000001  0.5757599999999999  1.0000
  I   I41       1.0  0.14924  0.78852  0.58985  1.0000
  C   C214      1.0  0.10811  0.87178  0.5473199999999999  1.0000
  C   C215      1.0  0.10639  0.91808  0.53648  1.0000
  I   I42       1.0  0.05094  0.95134  0.55192  1.0000
  C   C216      1.0  0.13906  0.93932  0.51714  1.0000
  H   H121      1.0  0.17120999999999992  0.88484  0.4968199999999999  1.0000
  H   H122      1.0  0.2321  0.9423900000000001  0.5396499999999997  1.0000
  H   H123      1.0  0.23572  0.88757  0.5353599999999997  1.0000
  H   H124      1.0  0.21438999999999997  0.92075  0.6134799999999998  1.0000
  H   H125      1.0  0.16072  0.87524  0.63911  1.0000
  H   H126      1.0  0.13709  0.97322  0.51178  1.0000
  C   C217      1.0  0.15672  0.11952000000000003  0.4446299999999999  1.0000
  C   C218      1.0  0.17924  0.12150000000000001  0.3992699999999999  1.0000
  C   C219      1.0  0.19296999999999995  0.16434  0.3813499999999999  1.0000
  C   C220      1.0  0.17486  0.2018  0.3855299999999999  1.0000
  C   C221      1.0  0.138  0.21509  0.41184  1.0000
  I   I43       1.0  0.14772999999999994  0.27779  0.4290799999999999  1.0000
  C   C222      1.0  0.09968  0.19618  0.41982  1.0000
  C   C223      1.0  0.08849  0.15188  0.41415  1.0000
  I   I44       1.0  0.02804  0.13887999999999998  0.38606  1.0000
  C   C224      1.0  0.10977  0.11862000000000002  0.4341599999999999  1.0000
  H   H127      1.0  0.16463  0.14704000000000003  0.4629799999999999  1.0000
  H   H128      1.0  0.15941  0.10817  0.3732  1.0000
  H   H129      1.0  0.20853  0.10169  0.40164  1.0000
  H   H130      1.0  0.22168  0.16472  0.36151  1.0000
  H   H131      1.0  0.19281999999999994  0.22786000000000003  0.3698499999999999  1.0000
  H   H132      1.0  0.09558  0.088  0.4324399999999999  1.0000
  C   C225      1.0  0.38533  0.57578  0.9973499999999998  1.0000
  C   C226      1.0  0.41039  0.53488  0.012440000000000007  1.0000
  C   C227      1.0  0.45527  0.53175  0.99537  1.0000
  C   C228      1.0  0.48527  0.56125  0.9958999999999999  1.0000
  C   C229      1.0  0.47844  0.60434  0.008089999999999996  1.0000
  I   I45       1.0  0.51001  0.6158600000000002  0.06854  1.0000
  C   C230      1.0  0.45661  0.6335400000000001  0.9806599999999999  1.0000
  C   C231      1.0  0.42996  0.62027  0.9434499999999998  1.0000
  I   I46       1.0  0.44385  0.64367  0.8770399999999998  1.0000
  C   C232      1.0  0.39707  0.59412  0.9508499999999999  1.0000
  H   H133      1.0  0.39223  0.59896  0.021719999999999993  1.0000
  H   H134      1.0  0.39288  0.50748  0.0015099999999999003  1.0000
  H   H135      1.0  0.41166  0.53058  0.04956000000000004  1.0000
  H   H136      1.0  0.4651299999999999  0.5013800000000002  0.9858599999999998  1.0000
  H   H137      1.0  0.51742  0.55296  0.9871399999999999  1.0000
  H   H138      1.0  0.37959  0.58445  0.9223799999999998  1.0000
  C   C233      1.0  0.34035  0.39035  0.044279999999999986  1.0000
  C   C234      1.0  0.31366  0.35325  0.03147999999999995  1.0000
  C   C235      1.0  0.31851  0.31946  0.06873999999999997  1.0000
  C   C236      1.0  0.35522  0.29901  0.07657  1.0000
  C   C237      1.0  0.3850299999999999  0.2906  0.04117999999999999  1.0000
  I   I47       1.0  0.39003  0.22418  0.037929999999999985  1.0000
  C   C238      1.0  0.40854  0.31818  0.014219999999999898  1.0000
  C   C239      1.0  0.41157  0.36553  0.012709999999999997  1.0000
  I   I48       1.0  0.4694  0.39369  0.9873199999999998  1.0000
  C   C240      1.0  0.38254  0.39498  0.02133999999999969  1.0000
  H   H139      1.0  0.34843  0.38685  0.08076999999999997  1.0000
  H   H140      1.0  0.32327  0.34246  0.9989999999999998  1.0000
  H   H141      1.0  0.2791799999999999  0.36163  0.02832999999999974  1.0000
  H   H142      1.0  0.29557  0.31871  0.09547999999999997  1.0000
  H   H143      1.0  0.35799  0.27895  0.10764  1.0000
  H   H144      1.0  0.39321  0.42724  0.016250000000000098  1.0000
