data_image0
_chemical_formula_structural       EuOCO6COC2EuOCO6COC2EuOCO6COC2EuOCO6COC2EuOCO6COC2EuOCO6COC2EuOCO6COC2EuOCO6COC2EuOCO6COC2EuOCO6COC2EuOCO6COC2EuOCO6COC4FCFC2F2CF2CFCFC2FCFC2F2CF2CFCFC2FCFC2F2CF2CFCFC2FCFC2F2CF2CFCFC2FCFC2F2CF2CFCFC2FCFC2F2CF2CFCFC2FCFC2F2CF2CFCFC2FCFC2F2CF2CFCFC2FCFC2F2CF2CFCFC2FCFC2F2CF2CFCFC2FCFC2F2CF2CFCFC2FCFC2F2CF2CFCFC2FCFC2F2CF2CFCFC2FCFC2F2CF2CFCFC2FCFC2F2CF2CFCFC2FCFC2F2CF2CFCFC2FCFC2F2CF2CFCFC2FCFC2F2CF2CFCFC2FCFC2F2CF2CFCFC2FCFC2F2CF2CFCFC2FCFC2F2CF2CFCFC2FCFC2F2CF2CFCFC2FCFC2F2CF2CFCFC2FCFC2F2CF2CFCF
_chemical_formula_sum              "Eu12 O96 C240 F192"
_cell_length_a       36.622
_cell_length_b       35.6592
_cell_length_c       39.64059999999999
_cell_angle_alpha    86.5297
_cell_angle_beta     93.49969999999999
_cell_angle_gamma    88.3683

_space_group_name_H-M_alt    "P 1"
_space_group_IT_number       1

loop_
  _space_group_symop_operation_xyz
  'x, y, z'

loop_
  _atom_site_type_symbol
  _atom_site_label
  _atom_site_symmetry_multiplicity
  _atom_site_fract_x
  _atom_site_fract_y
  _atom_site_fract_z
  _atom_site_occupancy
  Eu  Eu1       1.0  0.01808999999999998  0.48851  0.7623799999999997  1.0000
  O   O1        1.0  0.08795  0.45885  0.8046199999999999  1.0000
  C   C1        1.0  0.01601999999999999  0.43395  0.7091099999999999  1.0000
  O   O2        1.0  0.95184  0.46898999999999996  0.79248  1.0000
  O   O3        1.0  0.99386  0.51004  0.8092499999999998  1.0000
  O   O4        1.0  0.96463  0.51313  0.69869  1.0000
  O   O5        1.0  0.9983899999999999  0.42156000000000005  0.73209  1.0000
  O   O6        1.0  0.03863999999999999  0.46382  0.71517  1.0000
  O   O7        1.0  0.07253000000000001  0.51455  0.77668  1.0000
  C   C2        1.0  0.09371999999999998  0.49226999999999993  0.80078  1.0000
  O   O8        1.0  0.004059999999999997  0.54393  0.73223  1.0000
  C   C3        1.0  0.9859799999999999  0.53855  0.7011499999999999  1.0000
  C   C4        1.0  0.96272  0.48942  0.81434  1.0000
  Eu  Eu2       1.0  0.49909  0.9788  0.26183999999999996  1.0000
  O   O9        1.0  0.5355900000000001  0.9376099999999999  0.32543  1.0000
  C   C5        1.0  0.52009  0.9234900000000001  0.21088999999999997  1.0000
  O   O10       1.0  0.42305  0.0028299999999999987  0.27731  1.0000
  O   O11       1.0  0.47434999999999994  0.99346  0.31105  1.0000
  O   O12       1.0  0.46485  0.030659999999999996  0.20166  1.0000
  O   O13       1.0  0.51426  0.9050099999999999  0.23675999999999997  1.0000
  O   O14       1.0  0.52242  0.96227  0.21244999999999997  1.0000
  O   O15       1.0  0.5559899999999999  0.9812200000000001  0.2883299999999999  1.0000
  C   C6        1.0  0.55715  0.96238  0.32019  1.0000
  O   O16       1.0  0.5025  0.04138  0.24723  1.0000
  C   C7        1.0  0.47789  0.053500000000000006  0.22031999999999996  1.0000
  C   C8        1.0  0.43659999999999993  0.99875  0.3062  1.0000
  Eu  Eu3       1.0  0.9999199999999999  0.50877  0.25921  1.0000
  O   O17       1.0  0.04663  0.55006  0.21011  1.0000
  C   C9        1.0  0.019590000000000003  0.5769  0.2977  1.0000
  O   O18       1.0  0.9082099999999999  0.47104  0.19924  1.0000
  O   O19       1.0  0.9591699999999999  0.47007999999999994  0.23433  1.0000
  O   O20       1.0  0.010569999999999967  0.50291  0.33933  1.0000
  O   O21       1.0  0.98777  0.58342  0.28752  1.0000
  O   O22       1.0  0.039610000000000006  0.54855  0.28382  1.0000
  O   O23       1.0  0.04351  0.48827  0.22540999999999997  1.0000
  C   C10       1.0  0.05719  0.51793  0.20608999999999997  1.0000
  O   O24       1.0  0.020319999999999994  0.4624599999999999  0.29897  1.0000
  C   C11       1.0  0.03021000000000007  0.47812999999999994  0.32948  1.0000
  C   C12       1.0  0.9306  0.4892599999999999  0.21477  1.0000
  Eu  Eu4       1.0  0.7807  0.50084  0.02096  1.0000
  O   O25       1.0  0.85653  0.48994  0.9944499999999998  1.0000
  C   C13       1.0  0.73052  0.43542  0.0228999999999997  1.0000
  O   O26       1.0  0.8443899999999999  0.4766  0.06414999999999998  1.0000
  O   O27       1.0  0.82471  0.53519  0.04667  1.0000
  O   O28       1.0  0.69841  0.51918  0.028399999999999998  1.0000
  O   O29       1.0  0.74757  0.43499  0.05030000000000001  1.0000
  O   O30       1.0  0.73723  0.46357999999999994  0.99838  1.0000
  O   O31       1.0  0.80306  0.5121599999999998  0.96878  1.0000
  C   C14       1.0  0.84054  0.50465  0.96903  1.0000
  O   O32       1.0  0.74461  0.55393  0.009429999999999997  1.0000
  C   C15       1.0  0.7076799999999999  0.54816  0.013819999999999997  1.0000
  C   C16       1.0  0.8476399999999998  0.51019  0.06698  1.0000
  Eu  Eu5       1.0  0.50277  0.0021000000000000155  0.7573599999999998  1.0000
  O   O33       1.0  0.53003  0.05123  0.70001  1.0000
  C   C17       1.0  0.50475  0.07664  0.7912299999999999  1.0000
  O   O34       1.0  0.43119  0.9538699999999999  0.6827499999999999  1.0000
  O   O35       1.0  0.47855999999999993  0.96108  0.72064  1.0000
  O   O36       1.0  0.52794  0.94737  0.8496199999999999  1.0000
  O   O37       1.0  0.48672999999999994  0.08445000000000001  0.76478  1.0000
  O   O38       1.0  0.52509  0.04299  0.79487  1.0000
  O   O39       1.0  0.55622  0.0011699999999999985  0.73087  1.0000
  C   C18       1.0  0.55578  0.028619999999999996  0.70436  1.0000
  O   O40       1.0  0.52801  0.9545300000000001  0.7927299999999999  1.0000
  C   C19       1.0  0.50996  0.9509700000000002  0.8226  1.0000
  C   C20       1.0  0.44808  0.97532  0.7002799999999999  1.0000
  Eu  Eu6       1.0  0.25572  0.99742  0.52196  1.0000
  O   O41       1.0  0.32671  0.9810900000000001  0.49282  1.0000
  C   C21       1.0  0.22193  0.9262  0.4999799999999999  1.0000
  O   O42       1.0  0.31938  0.9684999999999999  0.56322  1.0000
  O   O43       1.0  0.29841  0.028269999999999997  0.55285  1.0000
  O   O44       1.0  0.21919999999999998  0.038519999999999985  0.5763  1.0000
  O   O45       1.0  0.25198  0.9170899999999998  0.51336  1.0000
  O   O46       1.0  0.2135  0.9642000000000001  0.49295  1.0000
  O   O47       1.0  0.27925  0.019450000000000005  0.47276999999999997  1.0000
  C   C22       1.0  0.3141  0.0034799999999999254  0.47033  1.0000
  O   O48       1.0  0.21496  0.047159999999999994  0.51942  1.0000
  C   C23       1.0  0.20233  0.05288999999999999  0.55111  1.0000
  C   C24       1.0  0.3233  0.001500000000000003  0.56847  1.0000
  Eu  Eu7       1.0  0.027339999999999996  0.75852  0.49991  1.0000
  O   O49       1.0  0.99691  0.8349999999999999  0.47315  1.0000
  C   C25       1.0  0.011579999999999993  0.72862  0.43084999999999996  1.0000
  O   O50       1.0  0.08778999999999999  0.84448  0.54509  1.0000
  O   O51       1.0  0.04186999999999999  0.80491  0.53499  1.0000
  O   O52       1.0  0.06181  0.69448  0.54724  1.0000
  O   O53       1.0  0.0026399999999999727  0.76178  0.42617  1.0000
  O   O54       1.0  0.01587999999999967  0.71262  0.46376  1.0000
  O   O55       1.0  0.96909  0.78254  0.49027999999999994  1.0000
  C   C26       1.0  0.9687299999999999  0.82087  0.48161999999999994  1.0000
  O   O56       1.0  0.0057699999999999965  0.72332  0.54387  1.0000
  C   C27       1.0  0.03193  0.69754  0.55904  1.0000
  C   C28       1.0  0.07806000000000002  0.81571  0.53248  1.0000
  Eu  Eu8       1.0  0.7674  0.018979999999999997  0.52028  1.0000
  O   O57       1.0  0.70663  0.05292  0.4716099999999999  1.0000
  C   C29       1.0  0.8259099999999998  0.05442999999999999  0.47604  1.0000
  O   O58       1.0  0.74868  0.002510000000000008  0.5919399999999999  1.0000
  O   O59       1.0  0.7126899999999999  0.015600000000000057  0.54451  1.0000
  O   O60       1.0  0.83181  0.9793900000000001  0.56205  1.0000
  O   O61       1.0  0.80521  0.08135000000000003  0.4788299999999999  1.0000
  O   O62       1.0  0.8221299999999999  0.02149  0.49594  1.0000
  O   O63       1.0  0.74085  0.9991999999999999  0.47123  1.0000
  C   C30       1.0  0.71272  0.02385  0.45789  1.0000
  O   O64       1.0  0.7809099999999999  0.95745  0.5360599999999999  1.0000
  C   C31       1.0  0.8175  0.9536599999999998  0.54776  1.0000
  C   C32       1.0  0.71762  0.007069999999999915  0.5792  1.0000
  Eu  Eu9       1.0  0.012759999999999999  0.25481  0.49213  1.0000
  O   O65       1.0  0.06496999999999999  0.16836  0.49769  1.0000
  C   C33       1.0  0.01649  0.3301799999999999  0.45176999999999995  1.0000
  O   O66       1.0  0.9337900000000001  0.2346  0.50481  1.0000
  O   O67       1.0  0.9857  0.19950000000000004  0.5056599999999999  1.0000
  O   O68       1.0  0.9843800000000001  0.327  0.52183  1.0000
  O   O69       1.0  0.98572  0.31944  0.44522  1.0000
  O   O70       1.0  0.03925999999999999  0.30959  0.47598999999999997  1.0000
  O   O71       1.0  0.06943  0.22933999999999996  0.5087  1.0000
  C   C34       1.0  0.06757  0.19149999999999998  0.51908  1.0000
  O   O72       1.0  0.009199999999999988  0.2725  0.5462599999999999  1.0000
  C   C35       1.0  0.99792  0.30999  0.54741  1.0000
  C   C36       1.0  0.9478999999999999  0.20400999999999997  0.50066  1.0000
  Eu  Eu10      1.0  0.4908  0.77026  0.98226  1.0000
  O   O73       1.0  0.53403  0.71047  0.94904  1.0000
  C   C37       1.0  0.5311  0.82482  0.9387199999999998  1.0000
  O   O74       1.0  0.40949  0.73211  0.9648099999999998  1.0000
  O   O75       1.0  0.46427999999999997  0.71363  0.9906799999999999  1.0000
  O   O76       1.0  0.45947999999999994  0.83686  0.01677  1.0000
  O   O77       1.0  0.55866  0.80558  0.9360299999999999  1.0000
  O   O78       1.0  0.51701  0.82605  0.97038  1.0000
  O   O79       1.0  0.547  0.74217  0.9954  1.0000
  C   C38       1.0  0.55246  0.71202  0.97548  1.0000
  O   O80       1.0  0.48934999999999995  0.78337  0.03796  1.0000
  C   C39       1.0  0.47506000000000004  0.81957  0.041299999999999996  1.0000
  C   C40       1.0  0.43594999999999995  0.7103699999999998  0.96591  1.0000
  Eu  Eu11      1.0  0.24419999999999997  0.52509  0.99938  1.0000
  O   O81       1.0  0.16641  0.49143000000000003  0.92596  1.0000
  C   C41       1.0  0.302  0.57904  0.9826599999999999  1.0000
  O   O82       1.0  0.23971  0.52138  0.07351  1.0000
  O   O83       1.0  0.19912999999999997  0.50553  0.032569999999999995  1.0000
  O   O84       1.0  0.32113  0.51151  0.038549999999999994  1.0000
  O   O85       1.0  0.28345  0.5927899999999999  0.003519999999999967  1.0000
  O   O86       1.0  0.28988  0.54687  0.96794  1.0000
  O   O87       1.0  0.21998  0.4912000000000001  0.95699  1.0000
  C   C42       1.0  0.19167000000000003  0.50976  0.9369  1.0000
  O   O88       1.0  0.27979  0.473  0.01589  1.0000
  C   C43       1.0  0.31551  0.48217  0.025139999999999996  1.0000
  C   C44       1.0  0.20792  0.51517  0.06544  1.0000
  Eu  Eu12      1.0  0.50349  0.23721999999999996  0.0070599999999999994  1.0000
  O   O89       1.0  0.48514999999999997  0.32136  0.98615  1.0000
  C   C45       1.0  0.4667299999999999  0.2057  0.94584  1.0000
  O   O90       1.0  0.5706499999999999  0.26854  0.9868199999999999  1.0000
  O   O91       1.0  0.53853  0.28103  0.03167  1.0000
  O   O92       1.0  0.5318699999999998  0.168  0.05189  1.0000
  O   O93       1.0  0.46655  0.23937000000000003  0.93803  1.0000
  O   O94       1.0  0.47090999999999994  0.19346  0.9799199999999999  1.0000
  O   O95       1.0  0.45186999999999994  0.27435  0.00814  1.0000
  C   C46       1.0  0.4571  0.31208  0.9991  1.0000
  O   O96       1.0  0.48867  0.21258  0.05861  1.0000
  C   C47       1.0  0.50963  0.18074  0.07016  1.0000
  C   C48       1.0  0.56767  0.28742  0.01126  1.0000
  C   C49       1.0  0.01128  0.41869000000000006  0.67522  1.0000
  C   C50       1.0  0.9781899999999999  0.40203999999999995  0.66545  1.0000
  F   F1        1.0  0.95018  0.40052  0.68635  1.0000
  C   C51       1.0  0.9731299999999999  0.3875  0.63366  1.0000
  F   F2        1.0  0.9406499999999999  0.37192  0.62537  1.0000
  C   C52       1.0  0.0010500000000000019  0.38894  0.61079  1.0000
  C   C53       1.0  0.9953199999999999  0.37168999999999996  0.5767  1.0000
  F   F3        1.0  0.9596899999999999  0.37944  0.56373  1.0000
  F   F4        1.0  0.01832000000000001  0.3874599999999999  0.55363  1.0000
  C   C54       1.0  0.0027200000000000015  0.32867  0.58046  1.0000
  F   F5        1.0  0.9793199999999999  0.31224  0.6027399999999999  1.0000
  F   F6        1.0  0.03837  0.32146  0.59346  1.0000
  C   C55       1.0  0.03427999999999999  0.40561  0.62063  1.0000
  F   F7        1.0  0.06246999999999999  0.40676  0.59994  1.0000
  C   C56       1.0  0.03911999999999999  0.42068000000000005  0.6524199999999999  1.0000
  F   F8        1.0  0.07145  0.4363099999999999  0.66112  1.0000
  C   C57       1.0  0.58288  0.97357  0.34792  1.0000
  C   C58       1.0  0.59636  0.010129999999999998  0.34726  1.0000
  F   F9        1.0  0.58739  0.03519  0.32068  1.0000
  C   C59       1.0  0.61774  0.022090000000000002  0.37476999999999994  1.0000
  F   F10       1.0  0.62829  0.05829999999999999  0.37374  1.0000
  C   C60       1.0  0.62698  0.99757  0.40346  1.0000
  C   C61       1.0  0.64928  0.0116099999999999  0.43369  1.0000
  F   F11       1.0  0.63523  0.046559999999999935  0.44084999999999996  1.0000
  F   F12       1.0  0.64637  0.9878099999999999  0.46233  1.0000
  C   C62       1.0  0.69014  0.014670000000000002  0.42657  1.0000
  F   F13       1.0  0.69459  0.04258000000000006  0.40149  1.0000
  F   F14       1.0  0.703  0.98087  0.41559999999999997  1.0000
  C   C63       1.0  0.61444  0.96046  0.40358  1.0000
  F   F15       1.0  0.6231799999999998  0.9352299999999999  0.43005999999999994  1.0000
  C   C64       1.0  0.59238  0.94879  0.37631  1.0000
  F   F16       1.0  0.58026  0.91313  0.37781  1.0000
  C   C65       1.0  0.019040000000000005  0.70612  0.40189  1.0000
  C   C66       1.0  0.99794  0.71197  0.37117  1.0000
  F   F17       1.0  0.9692799999999999  0.73722  0.36815999999999993  1.0000
  C   C67       1.0  0.005400000000000073  0.6911  0.34352999999999995  1.0000
  F   F18       1.0  0.98334  0.69714  0.31483  1.0000
  C   C68       1.0  0.03475  0.66425  0.34585  1.0000
  C   C69       1.0  0.04227  0.63949  0.31682  1.0000
  F   F19       1.0  0.020680000000000004  0.65128  0.28795  1.0000
  F   F20       1.0  0.0783  0.64351  0.30878  1.0000
  C   C70       1.0  0.03579000000000001  0.59739  0.3268  1.0000
  F   F21       1.0  0.012029999999999999  0.59399  0.35269999999999996  1.0000
  F   F22       1.0  0.06867  0.57952  0.33839  1.0000
  C   C71       1.0  0.05645999999999999  0.65933  0.37653999999999993  1.0000
  F   F23       1.0  0.08555  0.63464  0.37969  1.0000
  C   C72       1.0  0.048310000000000006  0.67961  0.40438  1.0000
  F   F24       1.0  0.06975  0.67403  0.43354  1.0000
  C   C73       1.0  0.41311000000000003  0.99781  0.33558  1.0000
  C   C74       1.0  0.37461000000000005  0.99955  0.33060999999999996  1.0000
  F   F25       1.0  0.35803999999999997  0.004629999999999999  0.29901  1.0000
  C   C75       1.0  0.35254  0.9949900000000002  0.35804  1.0000
  F   F26       1.0  0.31564  0.9968299999999999  0.35185  1.0000
  C   C76       1.0  0.3683  0.98819  0.39124999999999993  1.0000
  C   C77       1.0  0.3447299999999999  0.97878  0.42080999999999996  1.0000
  F   F27       1.0  0.31193  0.96404  0.40939  1.0000
  F   F28       1.0  0.36273  0.9511299999999999  0.44227  1.0000
  C   C78       1.0  0.33639999999999987  0.013670000000000071  0.44055999999999995  1.0000
  F   F29       1.0  0.31729999999999997  0.04062  0.41922999999999994  1.0000
  F   F30       1.0  0.36871999999999994  0.02879000000000009  0.45255  1.0000
  C   C79       1.0  0.40672  0.98868  0.39641999999999994  1.0000
  F   F31       1.0  0.42311  0.9836999999999999  0.42811  1.0000
  C   C80       1.0  0.42883  0.99333  0.369  1.0000
  F   F32       1.0  0.46571  0.99255  0.37534  1.0000
  C   C81       1.0  0.029470000000000003  0.36463  0.43419  1.0000
  C   C82       1.0  0.004699999999999922  0.3938  0.42161999999999994  1.0000
  F   F33       1.0  0.96831  0.3912  0.42579999999999996  1.0000
  C   C83       1.0  0.017269999999999893  0.42652999999999996  0.40551999999999994  1.0000
  F   F34       1.0  0.9925  0.4542399999999999  0.3944  1.0000
  C   C84       1.0  0.054920000000000004  0.43086  0.40149  1.0000
  C   C85       1.0  0.06889  0.46751  0.3861  1.0000
  F   F35       1.0  0.04926  0.49774  0.39711  1.0000
  F   F36       1.0  0.10488  0.47181999999999996  0.39783  1.0000
  C   C86       1.0  0.06753999999999999  0.46883  0.34685999999999995  1.0000
  F   F37       1.0  0.08048999999999999  0.4348000000000001  0.33642999999999995  1.0000
  F   F38       1.0  0.09069999999999999  0.49633  0.33574  1.0000
  C   C87       1.0  0.07948  0.40091999999999994  0.41302999999999995  1.0000
  F   F39       1.0  0.11579  0.4027  0.40819  1.0000
  C   C88       1.0  0.06692  0.36846  0.42952  1.0000
  F   F40       1.0  0.09149999999999998  0.34039  0.44028  1.0000
  C   C89       1.0  0.57932  0.68151  0.9869599999999998  1.0000
  C   C90       1.0  0.6108  0.6891299999999999  0.00707  1.0000
  F   F41       1.0  0.61818  0.72496  0.01436  1.0000
  C   C91       1.0  0.63532  0.66004  0.01951  1.0000
  F   F42       1.0  0.66591  0.66903  0.03798  1.0000
  C   C92       1.0  0.62843  0.62238  0.012699999999999998  1.0000
  C   C93       1.0  0.65429  0.59017  0.02682  1.0000
  F   F43       1.0  0.67579  0.60086  0.05437999999999999  1.0000
  F   F44       1.0  0.6339  0.5603599999999999  0.03826  1.0000
  C   C94       1.0  0.67935  0.57727  0.99954  1.0000
  F   F45       1.0  0.69694  0.60802  0.9858799999999998  1.0000
  F   F46       1.0  0.6587299999999999  0.56184  0.97374  1.0000
  C   C95       1.0  0.59696  0.61497  0.99215  1.0000
  F   F47       1.0  0.58897  0.57923  0.98505  1.0000
  C   C96       1.0  0.57288  0.6442  0.97922  1.0000
  F   F48       1.0  0.54245  0.63574  0.9602299999999999  1.0000
  C   C97       1.0  0.70329  0.40641999999999995  0.016119999999999912  1.0000
  C   C98       1.0  0.6742999999999999  0.41367999999999994  0.99148  1.0000
  F   F49       1.0  0.6700799999999999  0.44775000000000004  0.97424  1.0000
  C   C99       1.0  0.64875  0.38619  0.98486  1.0000
  F   F50       1.0  0.62068  0.39492  0.9614799999999999  1.0000
  C   C100      1.0  0.65196  0.35046  0.00237  1.0000
  C   C101      1.0  0.62549  0.31963  0.9941799999999998  1.0000
  F   F51       1.0  0.60999  0.32601  0.9614799999999999  1.0000
  F   F52       1.0  0.64456  0.28536999999999996  0.99541  1.0000
  C   C102      1.0  0.5947  0.31738  0.01925  1.0000
  F   F53       1.0  0.57584  0.35168999999999995  0.01809  1.0000
  F   F54       1.0  0.60977  0.30944  0.05184999999999999  1.0000
  C   C103      1.0  0.68066  0.34357  0.027519999999999996  1.0000
  F   F55       1.0  0.6847  0.30977999999999994  0.04528  1.0000
  C   C104      1.0  0.7058599999999999  0.37124  0.03442  1.0000
  F   F56       1.0  0.73332  0.36316  0.05856999999999999  1.0000
  C   C105      1.0  0.35397  0.012390000000000002  0.59128  1.0000
  C   C106      1.0  0.38775999999999994  0.9924599999999999  0.5927  1.0000
  F   F57       1.0  0.39333999999999997  0.9643900000000001  0.5717099999999999  1.0000
  C   C107      1.0  0.4162299999999999  0.001290000000000011  0.61564  1.0000
  F   F58       1.0  0.44837000000000005  0.9813099999999999  0.61604  1.0000
  C   C108      1.0  0.41121  0.02969000000000001  0.6383299999999998  1.0000
  C   C109      1.0  0.44101999999999997  0.037599999999999995  0.66523  1.0000
  F   F59       1.0  0.47525999999999996  0.028200000000000006  0.6545999999999998  1.0000
  F   F60       1.0  0.44090999999999997  0.07583999999999999  0.66978  1.0000
  C   C110      1.0  0.43537  0.016140000000000005  0.69961  1.0000
  F   F61       1.0  0.3987899999999999  0.0178  0.70668  1.0000
  F   F62       1.0  0.45452  0.033780000000000004  0.72472  1.0000
  C   C111      1.0  0.37742  0.05004000000000001  0.63635  1.0000
  F   F63       1.0  0.3711999999999999  0.07754  0.65774  1.0000
  C   C112      1.0  0.34928  0.04172  0.6128  1.0000
  F   F64       1.0  0.3168099999999999  0.06117000000000001  0.61219  1.0000
  C   C113      1.0  0.9937900000000001  0.56295  0.67119  1.0000
  C   C114      1.0  0.029780000000000004  0.57394  0.66673  1.0000
  F   F65       1.0  0.0574  0.56242  0.68978  1.0000
  C   C115      1.0  0.03796999999999999  0.59596  0.63799  1.0000
  F   F66       1.0  0.07331  0.6051  0.63431  1.0000
  C   C116      1.0  0.010210000000000002  0.60817  0.61323  1.0000
  C   C117      1.0  0.019729999999999998  0.6321800000000001  0.58205  1.0000
  F   F67       1.0  0.05235  0.61872  0.57065  1.0000
  F   F68       1.0  0.9931599999999999  0.62971  0.5559  1.0000
  C   C118      1.0  0.023249999999999986  0.67375  0.5900499999999999  1.0000
  F   F69       1.0  0.05071000000000003  0.67749  0.6151  1.0000
  F   F70       1.0  0.99056  0.68684  0.60157  1.0000
  C   C119      1.0  0.9738699999999999  0.59786  0.61827  1.0000
  F   F71       1.0  0.94582  0.61021  0.59603  1.0000
  C   C120      1.0  0.96589  0.5751  0.64677  1.0000
  F   F72       1.0  0.9306699999999999  0.56587  0.65101  1.0000
  C   C121      1.0  0.68552  0.003589999999999983  0.60028  1.0000
  C   C122      1.0  0.65011  0.014360000000000001  0.58655  1.0000
  F   F73       1.0  0.6445399999999999  0.028469999999999995  0.55399  1.0000
  C   C123      1.0  0.61986  0.011390000000000008  0.60637  1.0000
  F   F74       1.0  0.58647  0.023169999999999993  0.59225  1.0000
  C   C124      1.0  0.62414  0.9971699999999999  0.6403999999999999  1.0000
  C   C125      1.0  0.59155  0.99475  0.66248  1.0000
  F   F75       1.0  0.55962  0.9898300000000001  0.64283  1.0000
  F   F76       1.0  0.5962899999999999  0.9636600000000001  0.68523  1.0000
  C   C126      1.0  0.58742  0.030770000000000006  0.68182  1.0000
  F   F77       1.0  0.58205  0.06155999999999998  0.65878  1.0000
  F   F78       1.0  0.6189799999999999  0.03576  0.70188  1.0000
  C   C127      1.0  0.6596  0.98661  0.6541399999999999  1.0000
  F   F79       1.0  0.6652399999999999  0.97355  0.6869899999999999  1.0000
  C   C128      1.0  0.6898399999999999  0.98971  0.63439  1.0000
  F   F80       1.0  0.72336  0.9789399999999999  0.64884  1.0000
  C   C129      1.0  0.87443  0.52336  0.09271999999999998  1.0000
  C   C130      1.0  0.9060299999999999  0.50127  0.10305999999999998  1.0000
  F   F81       1.0  0.91468  0.47014000000000006  0.08673  1.0000
  C   C131      1.0  0.9287699999999999  0.51061  0.13066  1.0000
  F   F82       1.0  0.95823  0.48765  0.14041  1.0000
  C   C132      1.0  0.92029  0.5422  0.14879  1.0000
  C   C133      1.0  0.94267  0.55014  0.18108  1.0000
  F   F83       1.0  0.97851  0.53742  0.17952  1.0000
  F   F84       1.0  0.9437599999999999  0.58858  0.18422999999999998  1.0000
  C   C134      1.0  0.92643  0.53167  0.21289  1.0000
  F   F85       1.0  0.88963  0.54177  0.21305999999999997  1.0000
  F   F86       1.0  0.9436999999999999  0.5452  0.24138  1.0000
  C   C135      1.0  0.88949  0.56525  0.13737  1.0000
  F   F87       1.0  0.88008  0.59585  0.1541  1.0000
  C   C136      1.0  0.8670899999999999  0.55616  0.10935999999999998  1.0000
  F   F88       1.0  0.83703  0.57833  0.09984  1.0000
  C   C137      1.0  0.52287  0.90478  0.17845  1.0000
  C   C138      1.0  0.5223  0.92599  0.14724999999999996  1.0000
  F   F89       1.0  0.52145  0.96414  0.14607  1.0000
  C   C139      1.0  0.5215599999999999  0.9081499999999999  0.11663  1.0000
  F   F90       1.0  0.51959  0.93  0.08727  1.0000
  C   C140      1.0  0.52174  0.86851  0.11641999999999997  1.0000
  C   C141      1.0  0.51855  0.84858  0.08334  1.0000
  F   F91       1.0  0.5297499999999999  0.87159  0.05677  1.0000
  F   F92       1.0  0.54153  0.8168599999999999  0.08593  1.0000
  C   C142      1.0  0.47875999999999996  0.83724  0.07496  1.0000
  F   F93       1.0  0.45576999999999995  0.86889  0.07399  1.0000
  F   F94       1.0  0.46785  0.81175  0.09977999999999998  1.0000
  C   C143      1.0  0.52369  0.84739  0.14772  1.0000
  F   F95       1.0  0.52466  0.80922  0.14896  1.0000
  C   C144      1.0  0.5242  0.8652  0.17822  1.0000
  F   F96       1.0  0.52576  0.84338  0.20759  1.0000
  C   C145      1.0  0.17907  0.51981  0.08974  1.0000
  C   C146      1.0  0.18856  0.5245  0.12416  1.0000
  F   F97       1.0  0.22404999999999997  0.52193  0.13642  1.0000
  C   C147      1.0  0.16165  0.53227  0.14645  1.0000
  F   F98       1.0  0.17224  0.53735  0.17925  1.0000
  C   C148      1.0  0.12441  0.53531  0.13509  1.0000
  C   C149      1.0  0.09559000000000001  0.54498  0.15956  1.0000
  F   F99       1.0  0.10916999999999996  0.57134  0.18095  1.0000
  F   F100      1.0  0.06453  0.56111  0.14211  1.0000
  C   C150      1.0  0.08491999999999998  0.5096  0.18068999999999996  1.0000
  F   F101      1.0  0.07026999999999999  0.484  0.15912  1.0000
  F   F102      1.0  0.11564999999999999  0.49301999999999996  0.19820999999999997  1.0000
  C   C151      1.0  0.11478  0.5293  0.10087  1.0000
  F   F103      1.0  0.07923  0.53084  0.08880999999999999  1.0000
  C   C152      1.0  0.14179  0.52176  0.07849  1.0000
  F   F104      1.0  0.13127  0.51746  0.04554  1.0000
  C   C153      1.0  0.8609  0.51415  0.9387099999999999  1.0000
  C   C154      1.0  0.8436  0.51383  0.9060899999999998  1.0000
  F   F105      1.0  0.80776  0.50539  0.90186  1.0000
  C   C155      1.0  0.8635700000000001  0.52012  0.87739  1.0000
  F   F106      1.0  0.8462  0.51712  0.84647  1.0000
  C   C156      1.0  0.90127  0.52753  0.8807099999999999  1.0000
  C   C157      1.0  0.92446  0.52927  0.85006  1.0000
  F   F107      1.0  0.9029900000000001  0.53928  0.8207  1.0000
  F   F108      1.0  0.95051  0.55645  0.85353  1.0000
  C   C158      1.0  0.9434899999999999  0.4906600000000001  0.84672  1.0000
  F   F109      1.0  0.91758  0.46302999999999994  0.8474399999999999  1.0000
  F   F110      1.0  0.9690099999999999  0.48264  0.87359  1.0000
  C   C159      1.0  0.9180399999999999  0.52945  0.91349  1.0000
  F   F111      1.0  0.95412  0.5368  0.9179799999999999  1.0000
  C   C160      1.0  0.8981499999999999  0.52267  0.9421  1.0000
  F   F112      1.0  0.9154999999999999  0.52434  0.97322  1.0000
  C   C161      1.0  0.51183  0.84486  0.90846  1.0000
  C   C162      1.0  0.52704  0.84511  0.8766399999999999  1.0000
  F   F113      1.0  0.56002  0.82794  0.8729899999999999  1.0000
  C   C163      1.0  0.50881  0.86367  0.8481499999999998  1.0000
  F   F114      1.0  0.5252700000000001  0.8640199999999998  0.81835  1.0000
  C   C164      1.0  0.47503  0.88301  0.85069  1.0000
  C   C165      1.0  0.45735999999999993  0.9072000000000001  0.82067  1.0000
  F   F115      1.0  0.46685  0.89328  0.79039  1.0000
  F   F116      1.0  0.41958999999999996  0.9060899999999998  0.8208699999999999  1.0000
  C   C166      1.0  0.4688999999999999  0.94847  0.8216699999999999  1.0000
  F   F117      1.0  0.45591  0.9642799999999999  0.8498799999999997  1.0000
  F   F118      1.0  0.45352999999999993  0.9687199999999999  0.79318  1.0000
  C   C167      1.0  0.45958999999999994  0.8823200000000001  0.8823999999999999  1.0000
  F   F119      1.0  0.42719  0.90059  0.88613  1.0000
  C   C168      1.0  0.4776  0.8632800000000002  0.9108299999999999  1.0000
  F   F120      1.0  0.46127999999999997  0.86311  0.9406699999999999  1.0000
  C   C169      1.0  0.12254999999999999  0.50947  0.82193  1.0000
  C   C170      1.0  0.1554  0.4895900000000001  0.83219  1.0000
  F   F121      1.0  0.16183  0.45452999999999993  0.82184  1.0000
  C   C171      1.0  0.18209000000000003  0.50573  0.853  1.0000
  F   F122      1.0  0.21314  0.48518  0.86269  1.0000
  C   C172      1.0  0.17612  0.54192  0.8647199999999999  1.0000
  C   C173      1.0  0.20337  0.5582999999999999  0.89013  1.0000
  F   F123      1.0  0.23825999999999997  0.54312  0.8874299999999999  1.0000
  F   F124      1.0  0.20528999999999997  0.59668  0.8829299999999999  1.0000
  C   C174      1.0  0.19253  0.55125  0.9270299999999999  1.0000
  F   F125      1.0  0.15845  0.56771  0.9309  1.0000
  F   F126      1.0  0.21763  0.56795  0.9483399999999998  1.0000
  C   C175      1.0  0.14326  0.56187  0.85398  1.0000
  F   F127      1.0  0.13615  0.59667  0.86462  1.0000
  C   C176      1.0  0.11698  0.54596  0.8326  1.0000
  F   F128      1.0  0.08531  0.56574  0.82348  1.0000
  C   C177      1.0  0.50424  0.10228000000000001  0.8192899999999999  1.0000
  C   C178      1.0  0.51407  0.08873999999999999  0.8528  1.0000
  F   F129      1.0  0.52409  0.052059999999999995  0.8600999999999999  1.0000
  C   C179      1.0  0.51293  0.11269000000000001  0.8794099999999999  1.0000
  F   F130      1.0  0.52207  0.09827  0.9113999999999999  1.0000
  C   C180      1.0  0.50226  0.15088  0.8731499999999999  1.0000
  C   C181      1.0  0.50262  0.17731000000000002  0.90186  1.0000
  F   F131      1.0  0.53036  0.16626  0.9261  1.0000
  F   F132      1.0  0.51033  0.21330000000000002  0.8896399999999999  1.0000
  C   C182      1.0  0.46573000000000003  0.17796000000000006  0.9187099999999999  1.0000
  F   F133      1.0  0.45934  0.14252  0.9330099999999999  1.0000
  F   F134      1.0  0.4374  0.18821999999999997  0.89489  1.0000
  C   C183      1.0  0.49158  0.16416  0.83968  1.0000
  F   F135      1.0  0.47989999999999994  0.20041  0.8325199999999998  1.0000
  C   C184      1.0  0.49272  0.14022  0.8130999999999999  1.0000
  F   F136      1.0  0.48303999999999997  0.15446999999999997  0.78117  1.0000
  C   C185      1.0  0.50517  0.16324  0.10467  1.0000
  C   C186      1.0  0.5280199999999999  0.13281  0.11829  1.0000
  F   F137      1.0  0.55377  0.11739  0.09963  1.0000
  C   C187      1.0  0.525  0.11818  0.15159  1.0000
  F   F138      1.0  0.5474  0.08872  0.16349999999999998  1.0000
  C   C188      1.0  0.49926000000000004  0.13383  0.17221999999999998  1.0000
  C   C189      1.0  0.49773999999999996  0.12119  0.20951999999999998  1.0000
  F   F139      1.0  0.53097  0.10463  0.22192999999999996  1.0000
  F   F140      1.0  0.49317  0.15296  0.22755999999999998  1.0000
  C   C190      1.0  0.46569  0.09438  0.21616  1.0000
  F   F141      1.0  0.4382599999999999  0.09922000000000002  0.19039999999999999  1.0000
  F   F142      1.0  0.45042  0.10310000000000001  0.24593999999999996  1.0000
  C   C191      1.0  0.47530999999999995  0.16296  0.15801  1.0000
  F   F143      1.0  0.4491  0.17784  0.17652  1.0000
  C   C192      1.0  0.47821  0.17749  0.12482  1.0000
  F   F144      1.0  0.45461  0.20588999999999996  0.11273999999999999  1.0000
  C   C193      1.0  0.93485  0.84433  0.4839399999999999  1.0000
  C   C194      1.0  0.93554  0.8838100000000001  0.47966  1.0000
  F   F145      1.0  0.9665999999999999  0.9013299999999999  0.47171  1.0000
  C   C195      1.0  0.90457  0.90599  0.4848199999999999  1.0000
  F   F146      1.0  0.90738  0.94393  0.48231999999999997  1.0000
  C   C196      1.0  0.87185  0.8893599999999998  0.49401999999999996  1.0000
  C   C197      1.0  0.83919  0.9136399999999999  0.50233  1.0000
  F   F147      1.0  0.83952  0.9481200000000001  0.48423  1.0000
  F   F148      1.0  0.8068799999999999  0.89708  0.49214  1.0000
  C   C198      1.0  0.8398199999999998  0.91921  0.5408599999999999  1.0000
  F   F149      1.0  0.8755099999999999  0.9229199999999999  0.5538299999999999  1.0000
  F   F150      1.0  0.82556  0.8882200000000001  0.55747  1.0000
  C   C199      1.0  0.8709600000000001  0.84991  0.4978099999999999  1.0000
  F   F151      1.0  0.84041  0.83274  0.50769  1.0000
  C   C200      1.0  0.90193  0.82766  0.49251999999999996  1.0000
  F   F152      1.0  0.8996499999999998  0.78974  0.49657999999999997  1.0000
  C   C201      1.0  0.9254  0.17304  0.48807  1.0000
  C   C202      1.0  0.88687  0.17626  0.48600999999999994  1.0000
  F   F153      1.0  0.8693599999999999  0.20541999999999996  0.49937  1.0000
  C   C203      1.0  0.8658  0.15003  0.46934999999999993  1.0000
  F   F154      1.0  0.82888  0.15539  0.46698  1.0000
  C   C204      1.0  0.8826699999999998  0.11955000000000002  0.45457999999999993  1.0000
  C   C205      1.0  0.8606999999999999  0.09368  0.43226  1.0000
  F   F155      1.0  0.8273  0.11037000000000001  0.42057999999999995  1.0000
  F   F156      1.0  0.8797299999999999  0.08811999999999998  0.40370999999999996  1.0000
  C   C206      1.0  0.85446  0.05476000000000001  0.45015  1.0000
  F   F157      1.0  0.8870199999999999  0.039990000000000005  0.4657499999999999  1.0000
  F   F158      1.0  0.84311  0.030649999999999993  0.42578  1.0000
  C   C207      1.0  0.9211500000000001  0.11511999999999999  0.45857  1.0000
  F   F159      1.0  0.93877  0.08627000000000001  0.44481999999999994  1.0000
  C   C208      1.0  0.9421899999999999  0.14138  0.47517  1.0000
  F   F160      1.0  0.97919  0.13655  0.477  1.0000
  C   C209      1.0  0.19464  0.89728  0.49273  1.0000
  C   C210      1.0  0.15728  0.9073799999999999  0.48625999999999997  1.0000
  F   F161      1.0  0.14554  0.9439200000000001  0.48533  1.0000
  C   C211      1.0  0.13124  0.8797800000000001  0.48182  1.0000
  F   F162      1.0  0.09542  0.8908  0.47696999999999995  1.0000
  C   C212      1.0  0.14199  0.84138  0.4836  1.0000
  C   C213      1.0  0.11417  0.8106399999999999  0.48008999999999996  1.0000
  F   F163      1.0  0.08205  0.82452  0.46284  1.0000
  F   F164      1.0  0.12828  0.7831999999999999  0.46073  1.0000
  C   C214      1.0  0.10534000000000002  0.79226  0.51496  1.0000
  F   F165      1.0  0.13683  0.78672  0.53609  1.0000
  F   F166      1.0  0.09154  0.75723  0.51019  1.0000
  C   C215      1.0  0.17948  0.83148  0.48946999999999996  1.0000
  F   F167      1.0  0.19115  0.79487  0.49145999999999995  1.0000
  C   C216      1.0  0.20541  0.85898  0.49392  1.0000
  F   F168      1.0  0.24113  0.84785  0.4997  1.0000
  C   C217      1.0  0.16824  0.07546  0.55417  1.0000
  C   C218      1.0  0.13987  0.07595  0.52857  1.0000
  F   F169      1.0  0.14349  0.05612000000000001  0.50073  1.0000
  C   C219      1.0  0.10680999999999999  0.09563000000000002  0.53197  1.0000
  F   F170      1.0  0.07978  0.09372000000000001  0.50719  1.0000
  C   C220      1.0  0.1017  0.1163  0.56066  1.0000
  C   C221      1.0  0.06565  0.13745  0.56526  1.0000
  F   F171      1.0  0.03699  0.12308  0.54608  1.0000
  F   F172      1.0  0.05711999999999999  0.13202  0.59876  1.0000
  C   C222      1.0  0.06753  0.1803  0.55649  1.0000
  F   F173      1.0  0.09841  0.19425  0.57258  1.0000
  F   F174      1.0  0.03725  0.19776999999999997  0.56872  1.0000
  C   C223      1.0  0.13048999999999997  0.11605000000000001  0.5860899999999999  1.0000
  F   F175      1.0  0.1268  0.13504  0.61441  1.0000
  C   C224      1.0  0.16317999999999996  0.09563000000000002  0.5829699999999999  1.0000
  F   F176      1.0  0.19007999999999994  0.096  0.60809  1.0000
  C   C225      1.0  0.33737  0.59541  0.9746399999999998  1.0000
  C   C226      1.0  0.35545  0.61862  0.99739  1.0000
  F   F177      1.0  0.3407  0.62675  0.0268  1.0000
  C   C227      1.0  0.3895199999999999  0.63294  0.99062  1.0000
  F   F178      1.0  0.40635  0.65431  0.013719999999999998  1.0000
  C   C228      1.0  0.40625999999999995  0.62485  0.9607499999999999  1.0000
  C   C229      1.0  0.4432499999999999  0.64101  0.9535299999999999  1.0000
  F   F179      1.0  0.46609  0.6382  0.98284  1.0000
  F   F180      1.0  0.46026  0.62003  0.9303199999999999  1.0000
  C   C230      1.0  0.43927  0.68232  0.9390199999999999  1.0000
  F   F181      1.0  0.40917999999999993  0.68641  0.9159199999999998  1.0000
  F   F182      1.0  0.46978  0.6909  0.92155  1.0000
  C   C231      1.0  0.38775  0.60214  0.93766  1.0000
  F   F183      1.0  0.40199  0.59445  0.9079199999999998  1.0000
  C   C232      1.0  0.35388  0.58736  0.9447299999999998  1.0000
  F   F184      1.0  0.337  0.56565  0.92189  1.0000
  C   C233      1.0  0.34634  0.45685  0.01781  1.0000
  C   C234      1.0  0.34356  0.43543  0.9891999999999999  1.0000
  F   F185      1.0  0.31287  0.43787000000000004  0.96805  1.0000
  C   C235      1.0  0.3727  0.4119300000000001  0.98151  1.0000
  F   F186      1.0  0.36907  0.3925699999999999  0.9531  1.0000
  C   C236      1.0  0.40517999999999993  0.40855  0.0026499999999999996  1.0000
  C   C237      1.0  0.4360800000000001  0.3814600000000001  0.99464  1.0000
  F   F187      1.0  0.44071  0.38429  0.96014  1.0000
  F   F188      1.0  0.46886999999999995  0.39075  0.0109  1.0000
  C   C238      1.0  0.42746000000000006  0.34049  0.00576  1.0000
  F   F189      1.0  0.39543  0.33027  0.98887  1.0000
  F   F190      1.0  0.42251  0.3381  0.04017  1.0000
  C   C239      1.0  0.40781  0.43007  0.03146  1.0000
  F   F191      1.0  0.43803  0.42743  0.05316  1.0000
  C   C240      1.0  0.37886  0.45422  0.03867  1.0000
  F   F192      1.0  0.38223999999999997  0.47418999999999994  0.06675  1.0000
