data_image0
_chemical_formula_structural       Mn5CN8C2N8CN16Cl2C5O2C3OCOCOCOCOCOC6H18CO2C3OCOCOCOCOCOC6H18
_chemical_formula_sum              "Mn5 C38 N32 Cl2 O16 H36"
_cell_length_a       15.4585
_cell_length_b       12.9625
_cell_length_c       12.2303
_cell_angle_alpha    113.51659999999998
_cell_angle_beta     81.0331
_cell_angle_gamma    82.3246

_symmetry_space_group_name_H-M    'P 1'
_symmetry_Int_Tables_number       1

loop_
  _symmetry_equiv_pos_as_xyz
  'x,y,z'

loop_
  _atom_site_type_symbol
  _atom_site_label
  _atom_site_symmetry_multiplicity
  _atom_site_fract_x
  _atom_site_fract_y
  _atom_site_fract_z
  _atom_site_occupancy
  Mn  Mn1       1.0  0.3565000000000001  0.12187999999999999  0.16343  1.0000
  Mn  Mn2       1.0  0.24600000000000005  0.9137399999999999  0.0107  1.0000
  Mn  Mn3       1.0  0.66154  0.008399999999999696  0.9004400000000001  1.0000
  Mn  Mn4       1.0  0.7984  0.18734999999999996  0.028100000000000017  1.0000
  Mn  Mn5       1.0  0.018670000000000006  0.033729999999999996  0.01358  1.0000
  C   C1        1.0  0.37041000000000013  0.95851  0.28467  1.0000
  N   N1        1.0  0.33368  0.9956799999999999  0.21224  1.0000
  N   N2        1.0  0.28616  0.92046  0.16077000000000002  1.0000
  N   N3        1.0  0.29230999999999996  0.83927  0.20053000000000007  1.0000
  N   N4        1.0  0.34493  0.86134  0.2794  1.0000
  N   N5        1.0  0.14163  0.77594  0.09187  1.0000
  N   N6        1.0  0.13672  0.85746  0.053630000000000004  1.0000
  N   N7        1.0  0.05225000000000002  0.9015499999999999  0.062140000000000015  1.0000
  N   N8        1.0  0.9985399999999999  0.8517799999999999  0.11153000000000002  1.0000
  C   C2        1.0  0.05584000000000001  0.773  0.1282  1.0000
  C   C3        1.0  0.21559  0.8930099999999997  0.6875300000000001  1.0000
  N   N9        1.0  0.20686000000000002  0.91289  0.8663800000000001  1.0000
  N   N10       1.0  0.26456  0.8772399999999999  0.7619900000000002  1.0000
  N   N11       1.0  0.09909  0.12131999999999998  0.12096  1.0000
  N   N12       1.0  0.18485  0.07859999999999998  0.1017  1.0000
  N   N13       1.0  0.22388000000000002  0.15562999999999994  0.17152  1.0000
  N   N14       1.0  0.16361  0.24894999999999995  0.24850000000000003  1.0000
  N   N15       1.0  0.12523000000000004  0.95153  0.86007  1.0000
  N   N16       1.0  0.12751000000000007  0.9383099999999994  0.74564  1.0000
  C   C4        1.0  0.08526999999999998  0.22756  0.21750000000000003  1.0000
  N   N17       1.0  0.6881900000000002  0.13264999999999968  0.84841  1.0000
  N   N18       1.0  0.7454700000000002  0.1969999999999999  0.89074  1.0000
  N   N19       1.0  0.73428  0.28795999999999994  0.8662400000000001  1.0000
  N   N20       1.0  0.66972  0.2834299999999999  0.8055200000000001  1.0000
  N   N21       1.0  0.9266699999999999  0.25752999999999987  0.8756400000000001  1.0000
  N   N22       1.0  0.9159600000000001  0.21628000000000008  0.9595400000000002  1.0000
  N   N23       1.0  0.99472  0.1650000000000001  0.9628100000000002  1.0000
  N   N24       1.0  0.058589999999999996  0.17609999999999998  0.8855  1.0000
  N   N25       1.0  0.9150500000000001  0.09413  0.2621  1.0000
  N   N26       1.0  0.91731  0.11024999999999997  0.16175  1.0000
  N   N27       1.0  0.8416800000000002  0.17620999999999998  0.17078000000000004  1.0000
  N   N28       1.0  0.78694  0.20540999999999995  0.2781  1.0000
  N   N29       1.0  0.9279000000000003  0.9567799999999997  0.91546  1.0000
  N   N30       1.0  0.8480200000000002  0.01770000000000002  0.92652  1.0000
  N   N31       1.0  0.79544  0.9498199999999998  0.8755700000000001  1.0000
  N   N32       1.0  0.8381900000000002  0.8412099999999999  0.8291000000000002  1.0000
  Cl  Cl1       1.0  0.36830000000000007  0.98379  0.9714300000000001  1.0000
  Cl  Cl2       1.0  0.6687300000000003  0.13919999999999996  0.08834000000000009  1.0000
  C   C5        1.0  0.6402199999999999  0.1877500000000001  0.7973600000000001  1.0000
  C   C6        1.0  0.016429999999999934  0.23315000000000008  0.8312000000000003  1.0000
  C   C7        1.0  0.83373  0.15475999999999998  0.33474  1.0000
  C   C8        1.0  0.9209700000000005  0.8456199999999998  0.85199  1.0000
  C   C9        1.0  0.9867900000000004  0.74107  0.8244000000000001  1.0000
  O   O1        1.0  0.06536000000000004  0.74378  0.82131  1.0000
  O   O2        1.0  0.9588900000000004  0.63899  0.81073  1.0000
  C   C10       1.0  0.9181700000000003  0.5865499999999999  0.7095500000000001  1.0000
  C   C11       1.0  0.9712099999999999  0.4604599999999999  0.62717  1.0000
  C   C12       1.0  0.97568  0.3967800000000001  0.7118900000000001  1.0000
  O   O3        1.0  0.021690000000000004  0.27946  0.6450000000000001  1.0000
  C   C13       1.0  0.06221  0.22899999999999995  0.71237  1.0000
  O   O4        1.0  0.13763000000000006  0.16960999999999998  0.6651300000000001  1.0000
  C   C14       1.0  0.9229900000000001  0.4002999999999999  0.5223500000000001  1.0000
  O   O5        1.0  0.9836899999999998  0.30103999999999986  0.42296  1.0000
  C   C15       1.0  0.9994100000000004  0.2962  0.3035300000000001  1.0000
  O   O6        1.0  0.9439600000000001  0.3471799999999999  0.27142  1.0000
  C   C16       1.0  0.06543000000000004  0.46639999999999987  0.56766  1.0000
  O   O7        1.0  0.05414000000000001  0.5193399999999999  0.4862500000000001  1.0000
  C   C17       1.0  0.13107  0.5328099999999999  0.4205700000000001  1.0000
  O   O8        1.0  0.20618000000000006  0.49692999999999976  0.42858  1.0000
  C   C18       1.0  0.12038  0.59385  0.33956  1.0000
  C   C19       1.0  0.057049999999999976  0.7127299999999999  0.4117900000000001  1.0000
  C   C20       1.0  0.056179999999999994  0.77831  0.33185  1.0000
  C   C21       1.0  0.03189000000000002  0.7119399999999998  0.20729  1.0000
  C   C22       1.0  0.08295000000000001  0.58374  0.14262000000000002  1.0000
  C   C23       1.0  0.08281000000000001  0.5249099999999999  0.22981000000000001  1.0000
  H   H1        1.0  0.8479400000000002  0.5863299999999999  0.74693  1.0000
  H   H2        1.0  0.9153400000000004  0.63607  0.65342  1.0000
  H   H3        1.0  0.9066200000000002  0.39912999999999993  0.7564  1.0000
  H   H4        1.0  0.009929999999999998  0.44214  0.78536  1.0000
  H   H5        1.0  0.86489  0.37241  0.55934  1.0000
  H   H6        1.0  0.89495  0.4638599999999999  0.49011000000000005  1.0000
  H   H7        1.0  0.10888999999999999  0.37825999999999993  0.5160900000000002  1.0000
  H   H8        1.0  0.09904000000000002  0.51775  0.63875  1.0000
  H   H9        1.0  0.18801000000000012  0.6043399999999999  0.30391  1.0000
  H   H10       1.0  0.9877499999999999  0.70336  0.44083000000000006  1.0000
  H   H11       1.0  0.07873000000000001  0.76343  0.49609  1.0000
  H   H12       1.0  0.12387000000000006  0.7973099999999997  0.31566  1.0000
  H   H13       1.0  0.008389999999999998  0.86236  0.3839800000000001  1.0000
  H   H14       1.0  0.9595700000000001  0.7122  0.22037000000000007  1.0000
  H   H15       1.0  0.15420999999999999  0.5753399999999999  0.10039000000000001  1.0000
  H   H16       1.0  0.0516000000000001  0.53559  0.06708  1.0000
  H   H17       1.0  0.013119999999999995  0.51882  0.26195  1.0000
  H   H18       1.0  0.12443000000000008  0.4358699999999999  0.17876  1.0000
  C   C24       1.0  0.56262  0.15389999999999995  0.74806  1.0000
  O   O9        1.0  0.52581  0.20860999999999993  0.70044  1.0000
  O   O10       1.0  0.5334800000000002  0.057800000000000004  0.75474  1.0000
  C   C25       1.0  0.4611100000000001  0.02139000000000002  0.69853  1.0000
  C   C26       1.0  0.49511  0.9161199999999998  0.57066  1.0000
  C   C27       1.0  0.42011000000000004  0.8460199999999996  0.54173  1.0000
  O   O11       1.0  0.33686000000000005  0.9189499999999998  0.55282  1.0000
  C   C28       1.0  0.26044  0.87357  0.56451  1.0000
  O   O12       1.0  0.23961  0.8077  0.47423000000000004  1.0000
  C   C29       1.0  0.51888  0.95834  0.47148  1.0000
  O   O13       1.0  0.44138000000000005  0.019480000000000035  0.4573700000000001  1.0000
  C   C30       1.0  0.44421  0.9990199999999999  0.33627  1.0000
  O   O14       1.0  0.51003  0.006739999999999998  0.27217  1.0000
  C   C31       1.0  0.5818300000000002  0.8365499999999998  0.56735  1.0000
  O   O15       1.0  0.6568  0.8925499999999997  0.56816  1.0000
  C   C32       1.0  0.73368  0.8352399999999999  0.47073000000000004  1.0000
  O   O16       1.0  0.7535000000000001  0.7301299999999997  0.4174300000000001  1.0000
  C   C33       1.0  0.7910000000000003  0.90455  0.42797  1.0000
  C   C34       1.0  0.8243600000000002  0.9915399999999998  0.53296  1.0000
  C   C35       1.0  0.86047  0.08262999999999975  0.4978600000000001  1.0000
  C   C36       1.0  0.7923700000000001  0.14795000000000003  0.4520200000000001  1.0000
  C   C37       1.0  0.7106  0.09265  0.43256  1.0000
  C   C38       1.0  0.74271  0.9615300000000001  0.35777000000000003  1.0000
  H   H19       1.0  0.41846  0.99561  0.7600400000000002  1.0000
  H   H20       1.0  0.41577  0.09337  0.69406  1.0000
  H   H21       1.0  0.4113600000000002  0.8047999999999997  0.60576  1.0000
  H   H22       1.0  0.44097  0.7751399999999998  0.44721000000000005  1.0000
  H   H23       1.0  0.56401  0.017740000000000037  0.4980000000000001  1.0000
  H   H24       1.0  0.55376  0.88148  0.3844  1.0000
  H   H25       1.0  0.5945099999999998  0.7523699999999999  0.4854600000000001  1.0000
  H   H26       1.0  0.57079  0.81872  0.64948  1.0000
  H   H27       1.0  0.8516500000000002  0.8432299999999998  0.36162000000000005  1.0000
  H   H28       1.0  0.7689500000000004  0.0363899999999997  0.6153  1.0000
  H   H29       1.0  0.8778100000000002  0.9447199999999998  0.5578600000000001  1.0000
  H   H30       1.0  0.9248100000000002  0.039600000000000087  0.42890000000000006  1.0000
  H   H31       1.0  0.8755600000000001  0.14782000000000003  0.5806400000000002  1.0000
  H   H32       1.0  0.7675  0.2376499999999999  0.52472  1.0000
  H   H33       1.0  0.6676100000000003  0.12944  0.38623  1.0000
  H   H34       1.0  0.6690800000000002  0.11340999999999994  0.52386  1.0000
  H   H35       1.0  0.68664  0.9214899999999999  0.3281700000000001  1.0000
  H   H36       1.0  0.78968  0.9440899999999999  0.27065  1.0000
