data_image0
_chemical_formula_structural       EuOCO6COC2EuOCO6COC2EuOCO6COC2EuOCO6COC2EuOCO6COC2EuOCO6COC2EuOCO6COC2EuOCO6COC5BrC3F2CF2CH3C3BrC3F2CF2CH3C3BrC3F2CF2CH3C3BrC3F2CF2CH3C3BrC3F2CF2CH3C3BrC3F2CF2CH3C3BrC3F2CF2CH3C3BrC3F2CF2CH3C3BrC3F2CF2CH3C3BrC3F2CF2CH3C3BrC3F2CF2CH3C3BrC3F2CF2CH3C3BrC3F2CF2CH3C3BrC3F2CF2CH3C3BrC3F2CF2CH3C3BrC3F2CF2CH3
_chemical_formula_sum              "Eu8 O64 C160 Br16 F64 H48"
_cell_length_a       21.0338
_cell_length_b       35.8505
_cell_length_c       24.7101
_cell_angle_alpha    95.7551
_cell_angle_beta     87.93100000000001
_cell_angle_gamma    85.0007

_space_group_name_H-M_alt    "P 1"
_space_group_IT_number       1

loop_
  _space_group_symop_operation_xyz
  'x, y, z'

loop_
  _atom_site_type_symbol
  _atom_site_label
  _atom_site_symmetry_multiplicity
  _atom_site_fract_x
  _atom_site_fract_y
  _atom_site_fract_z
  _atom_site_occupancy
  Eu  Eu1       1.0  0.50256  0.39404  0.34474  1.0000
  O   O1        1.0  0.64021  0.3778399999999999  0.38194  1.0000
  C   C1        1.0  0.5818000000000001  0.3120699999999999  0.31959  1.0000
  O   O2        1.0  0.55006  0.45846999999999993  0.49480999999999997  1.0000
  O   O3        1.0  0.53454  0.41098  0.43117  1.0000
  O   O4        1.0  0.39241  0.39107  0.19814  1.0000
  O   O5        1.0  0.6269  0.29493  0.33879  1.0000
  O   O6        1.0  0.53463  0.33201  0.35555  1.0000
  O   O7        1.0  0.60121  0.4037599999999999  0.30882  1.0000
  C   C2        1.0  0.65118  0.39371  0.34172  1.0000
  O   O8        1.0  0.4628999999999999  0.37686  0.26119  1.0000
  C   C3        1.0  0.4200900000000001  0.40233999999999986  0.23831  1.0000
  C   C4        1.0  0.53761  0.44928999999999997  0.44773  1.0000
  Eu  Eu2       1.0  0.53429  0.09194  0.31439  1.0000
  O   O9        1.0  0.32783  0.1026  0.32137  1.0000
  C   C5        1.0  0.5344  0.17966  0.35539999999999994  1.0000
  O   O10       1.0  0.44778  0.0702  0.46755  1.0000
  O   O11       1.0  0.45982  0.09162999999999999  0.38488999999999995  1.0000
  O   O12       1.0  0.67573  0.11281  0.33062  1.0000
  O   O13       1.0  0.5143  0.20076  0.39524  1.0000
  O   O14       1.0  0.56454  0.14466  0.36388  1.0000
  O   O15       1.0  0.42983  0.10461  0.34609  1.0000
  C   C6        1.0  0.38382999999999995  0.10142  0.30604  1.0000
  O   O16       1.0  0.62777  0.08159  0.26208  1.0000
  C   C7        1.0  0.68137  0.08966  0.29083  1.0000
  C   C8        1.0  0.48266999999999993  0.07151  0.42738  1.0000
  Eu  Eu3       1.0  0.023569999999999987  0.59158  0.83568  1.0000
  O   O17       1.0  0.9129999999999999  0.56916  0.7633799999999997  1.0000
  C   C9        1.0  0.05454000000000003  0.66548  0.89751  1.0000
  O   O18       1.0  0.08157000000000002  0.52766  0.89031  1.0000
  O   O19       1.0  0.002680000000000029  0.5298899999999998  0.83085  1.0000
  O   O20       1.0  0.15985000000000008  0.6270799999999999  0.79711  1.0000
  O   O21       1.0  0.034510000000000034  0.64863  0.93403  1.0000
  O   O22       1.0  0.044900000000000016  0.6531  0.84361  1.0000
  O   O23       1.0  0.005830000000000004  0.59395  0.74541  1.0000
  C   C10       1.0  0.9523100000000002  0.57614  0.7291599999999999  1.0000
  O   O24       1.0  0.12785999999999997  0.5701399999999999  0.81171  1.0000
  C   C11       1.0  0.17287000000000005  0.5964699999999997  0.8132599999999999  1.0000
  C   C12       1.0  0.04757000000000001  0.51012  0.86  1.0000
  Eu  Eu4       1.0  0.06006000000000001  0.89128  0.81332  1.0000
  O   O25       1.0  0.24533  0.8986599999999999  0.88087  1.0000
  C   C13       1.0  0.07527000000000003  0.80322  0.8217399999999999  1.0000
  O   O26       1.0  0.9324100000000001  0.9355399999999999  0.8546799999999999  1.0000
  O   O27       1.0  0.03211000000000003  0.9531  0.84313  1.0000
  O   O28       1.0  0.9461  0.84426  0.7880399999999999  1.0000
  O   O29       1.0  0.09450999999999998  0.77025  0.8093499999999999  1.0000
  O   O30       1.0  0.08800000000000001  0.8290799999999998  0.78491  1.0000
  O   O31       1.0  0.14173000000000002  0.8893999999999997  0.8715599999999999  1.0000
  C   C14       1.0  0.19852  0.9027699999999999  0.8535399999999999  1.0000
  O   O32       1.0  0.9817500000000001  0.8943899999999998  0.75164  1.0000
  C   C15       1.0  0.93716  0.8682199999999998  0.75683  1.0000
  C   C16       1.0  0.9664900000000001  0.9613000000000002  0.85315  1.0000
  Eu  Eu5       1.0  0.04846000000000002  0.4243299999999999  0.14201  1.0000
  O   O33       1.0  0.9254  0.37958999999999987  0.17746  1.0000
  C   C17       1.0  0.05718000000000001  0.33781  0.1164  1.0000
  O   O34       1.0  0.06339  0.52018  0.05423  1.0000
  O   O35       1.0  0.04607000000000001  0.48556  0.12315999999999998  1.0000
  O   O36       1.0  0.18895000000000003  0.4224799999999999  0.17294  1.0000
  O   O37       1.0  0.034720000000000084  0.3474  0.07465  1.0000
  O   O38       1.0  0.056459999999999996  0.3635599999999999  0.16239  1.0000
  O   O39       1.0  0.9521299999999999  0.43959  0.18922999999999998  1.0000
  C   C18       1.0  0.90789  0.41309  0.18039  1.0000
  O   O40       1.0  0.09619999999999997  0.43954  0.22148  1.0000
  C   C19       1.0  0.16234999999999994  0.43226  0.21736999999999998  1.0000
  C   C20       1.0  0.043320000000000004  0.49160999999999994  0.06833  1.0000
  Eu  Eu6       1.0  0.03555000000000001  0.11919999999999999  0.16196  1.0000
  O   O41       1.0  0.17481  0.05302  0.18925  1.0000
  C   C21       1.0  0.9946300000000001  0.20372  0.19258  1.0000
  O   O42       1.0  0.9696300000000001  0.08937  0.06103  1.0000
  O   O43       1.0  0.05504  0.06608  0.10332  1.0000
  O   O44       1.0  0.87852  0.14866  0.2258  1.0000
  O   O45       1.0  0.98426  0.23462999999999995  0.21849  1.0000
  O   O46       1.0  0.018920000000000003  0.17338999999999996  0.21906  1.0000
  O   O47       1.0  0.08890000000000002  0.08959  0.22614  1.0000
  C   C22       1.0  0.15345999999999996  0.08373  0.21125  1.0000
  O   O48       1.0  0.94543  0.09749  0.19596999999999998  1.0000
  C   C23       1.0  0.9157200000000001  0.12292  0.23746  1.0000
  C   C24       1.0  0.019209999999999998  0.06883  0.05753  1.0000
  Eu  Eu7       1.0  0.51998  0.64856  0.67676  1.0000
  O   O49       1.0  0.66532  0.65736  0.66108  1.0000
  C   C25       1.0  0.5319000000000002  0.7313799999999998  0.72116  1.0000
  O   O50       1.0  0.50962  0.6151599999999998  0.55567  1.0000
  O   O51       1.0  0.55273  0.5920799999999998  0.62924  1.0000
  O   O52       1.0  0.36897  0.65404  0.7241  1.0000
  O   O53       1.0  0.53413  0.7569999999999998  0.7571799999999997  1.0000
  O   O54       1.0  0.48904999999999993  0.70456  0.72717  1.0000
  O   O55       1.0  0.60589  0.6380399999999998  0.7287099999999999  1.0000
  C   C26       1.0  0.66168  0.63608  0.69622  1.0000
  O   O56       1.0  0.46102  0.6189  0.73551  1.0000
  C   C27       1.0  0.4074200000000001  0.6423799999999997  0.75568  1.0000
  C   C28       1.0  0.54714  0.59209  0.57343  1.0000
  Eu  Eu8       1.0  0.57058  0.8676299999999999  0.61022  1.0000
  O   O57       1.0  0.43828000000000006  0.90204  0.66045  1.0000
  C   C29       1.0  0.69185  0.81623  0.62698  1.0000
  O   O58       1.0  0.5539  0.9472399999999999  0.57115  1.0000
  O   O59       1.0  0.4974699999999999  0.89669  0.55766  1.0000
  O   O60       1.0  0.62779  0.94555  0.73767  1.0000
  O   O61       1.0  0.69159  0.81689  0.57764  1.0000
  O   O62       1.0  0.6434500000000001  0.8368399999999998  0.6600899999999998  1.0000
  O   O63       1.0  0.49111  0.84443  0.6595  1.0000
  C   C30       1.0  0.43867  0.8703999999999997  0.67438  1.0000
  O   O64       1.0  0.5692600000000001  0.9196499999999997  0.67216  1.0000
  C   C31       1.0  0.62803  0.9272399999999998  0.6933599999999999  1.0000
  C   C32       1.0  0.51598  0.93095  0.54363  1.0000
  C   C33       1.0  0.53277  0.19339999999999996  0.30082  1.0000
  C   C34       1.0  0.54255  0.16839999999999994  0.25341  1.0000
  C   C35       1.0  0.54143  0.18173999999999998  0.20219999999999996  1.0000
  Br  Br1       1.0  0.55058  0.14683999999999997  0.13812  1.0000
  C   C36       1.0  0.53274  0.22041999999999998  0.19779  1.0000
  C   C37       1.0  0.52444  0.24625  0.24484  1.0000
  C   C38       1.0  0.51593  0.28847999999999996  0.24097  1.0000
  F   F1        1.0  0.50431  0.2955199999999999  0.1879  1.0000
  F   F2        1.0  0.46269  0.30348  0.27303  1.0000
  C   C39       1.0  0.57577  0.30821  0.25852  1.0000
  F   F3        1.0  0.57388  0.34344  0.24039  1.0000
  F   F4        1.0  0.62967  0.28757999999999995  0.2336  1.0000
  C   C40       1.0  0.52332  0.23229999999999998  0.29609  1.0000
  H   H1        1.0  0.54986  0.13857  0.25594  1.0000
  H   H2        1.0  0.53268  0.23002999999999998  0.15761  1.0000
  H   H3        1.0  0.51576  0.25184999999999996  0.33253  1.0000
  C   C41       1.0  0.09214000000000003  0.6974399999999998  0.90999  1.0000
  C   C42       1.0  0.15818  0.69094  0.91485  1.0000
  C   C43       1.0  0.19492999999999996  0.7212299999999999  0.92511  1.0000
  Br  Br2       1.0  0.28392  0.7123799999999998  0.9365299999999998  1.0000
  C   C44       1.0  0.16645  0.7580999999999999  0.92829  1.0000
  C   C45       1.0  0.10011000000000002  0.76517  0.9231699999999999  1.0000
  C   C46       1.0  0.06894000000000003  0.8052399999999997  0.9259399999999999  1.0000
  F   F5        1.0  0.02462  0.8106  0.9694299999999999  1.0000
  F   F6        1.0  0.11375000000000003  0.83095  0.93601  1.0000
  C   C47       1.0  0.03452999999999997  0.81413  0.87369  1.0000
  F   F7        1.0  0.015529999999999985  0.85225  0.8785599999999999  1.0000
  F   F8        1.0  0.9798699999999999  0.7952899999999998  0.8698499999999998  1.0000
  C   C48       1.0  0.06293999999999998  0.73436  0.91559  1.0000
  H   H4        1.0  0.18102000000000001  0.6624399999999998  0.9111  1.0000
  H   H5        1.0  0.19649000000000005  0.7809899999999996  0.9352  1.0000
  H   H6        1.0  0.011579999999999995  0.739  0.91336  1.0000
  C   C49       1.0  0.08614  0.29924  0.11865  1.0000
  C   C50       1.0  0.14715  0.29365  0.13901  1.0000
  C   C51       1.0  0.17485  0.2573  0.143  1.0000
  Br  Br3       1.0  0.25965  0.2501699999999999  0.16768  1.0000
  C   C52       1.0  0.14072000000000004  0.22626999999999997  0.12886  1.0000
  C   C53       1.0  0.07890000000000001  0.23132  0.10897  1.0000
  C   C54       1.0  0.04039  0.19790999999999997  0.09516  1.0000
  F   F9        1.0  0.021800000000000003  0.19835  0.04201  1.0000
  F   F10       1.0  0.07759  0.16435999999999998  0.09796  1.0000
  C   C55       1.0  0.98002  0.19875  0.13305  1.0000
  F   F11       1.0  0.95188  0.16548  0.12235  1.0000
  F   F12       1.0  0.9359700000000001  0.22769  0.12199  1.0000
  C   C56       1.0  0.052809999999999996  0.26807  0.10246  1.0000
  H   H7        1.0  0.17358  0.31752  0.15111  1.0000
  H   H8        1.0  0.16272999999999996  0.19841  0.13363  1.0000
  H   H9        1.0  0.005869999999999999  0.27256  0.08640999999999999  1.0000
  C   C57       1.0  0.57387  0.72923  0.67185  1.0000
  C   C58       1.0  0.55126  0.71727  0.62087  1.0000
  C   C59       1.0  0.5903  0.71673  0.57376  1.0000
  Br  Br4       1.0  0.5577000000000001  0.7036099999999997  0.50391  1.0000
  C   C60       1.0  0.6528600000000001  0.7266899999999997  0.57747  1.0000
  C   C61       1.0  0.6766999999999997  0.73807  0.6284  1.0000
  C   C62       1.0  0.7437800000000001  0.75024  0.6329  1.0000
  F   F13       1.0  0.77563  0.72959  0.66973  1.0000
  F   F14       1.0  0.77773  0.7425  0.58329  1.0000
  C   C63       1.0  0.74349  0.79269  0.65196  1.0000
  F   F15       1.0  0.80163  0.80472  0.63735  1.0000
  F   F16       1.0  0.73535  0.7985199999999998  0.70821  1.0000
  C   C64       1.0  0.6363  0.73992  0.67533  1.0000
  H   H10       1.0  0.50288  0.7093899999999997  0.61757  1.0000
  H   H11       1.0  0.6820999999999998  0.72619  0.54042  1.0000
  H   H12       1.0  0.65379  0.74904  0.71472  1.0000
  C   C65       1.0  0.71727  0.40196999999999994  0.32807  1.0000
  C   C66       1.0  0.76794  0.39084999999999986  0.36021999999999993  1.0000
  C   C67       1.0  0.83029  0.3984099999999998  0.34683  1.0000
  Br  Br5       1.0  0.89897  0.38276999999999994  0.39038999999999996  1.0000
  C   C68       1.0  0.84265  0.4175599999999999  0.30166  1.0000
  C   C69       1.0  0.79276  0.42942999999999987  0.26928  1.0000
  C   C70       1.0  0.8063100000000001  0.45136999999999994  0.22131  1.0000
  F   F17       1.0  0.74967  0.46827  0.20431  1.0000
  F   F18       1.0  0.8438  0.48000999999999994  0.23759  1.0000
  C   C71       1.0  0.8390899999999999  0.42611  0.17213999999999996  1.0000
  F   F19       1.0  0.83821  0.44662  0.1276  1.0000
  F   F20       1.0  0.8046600000000002  0.39528999999999986  0.16021  1.0000
  C   C72       1.0  0.7301300000000001  0.42133  0.28279  1.0000
  H   H13       1.0  0.7593100000000002  0.37623  0.3956799999999999  1.0000
  H   H14       1.0  0.8911699999999999  0.4235  0.29233  1.0000
  H   H15       1.0  0.6911399999999999  0.43019999999999997  0.2583  1.0000
  C   C73       1.0  0.19561999999999996  0.1142  0.22275999999999999  1.0000
  C   C74       1.0  0.17121  0.14869  0.25099  1.0000
  C   C75       1.0  0.21132  0.17692  0.26419  1.0000
  Br  Br6       1.0  0.17672999999999994  0.22374  0.30225  1.0000
  C   C76       1.0  0.27679  0.17049  0.25125  1.0000
  C   C77       1.0  0.30256  0.13591  0.22362999999999997  1.0000
  C   C78       1.0  0.37426  0.12703  0.21387999999999993  1.0000
  F   F21       1.0  0.3872499999999999  0.11694999999999998  0.15877  1.0000
  F   F22       1.0  0.40567999999999993  0.15865999999999997  0.22852999999999998  1.0000
  C   C79       1.0  0.40168000000000004  0.09460999999999999  0.24577  1.0000
  F   F23       1.0  0.46724  0.0908  0.23759999999999995  1.0000
  F   F24       1.0  0.37973  0.06088999999999999  0.22553  1.0000
  C   C80       1.0  0.26103  0.10851999999999999  0.20781999999999998  1.0000
  H   H16       1.0  0.12137000000000002  0.15356  0.26396  1.0000
  H   H17       1.0  0.30722  0.19227  0.26394  1.0000
  H   H18       1.0  0.28005  0.08217999999999999  0.18555  1.0000
  C   C81       1.0  0.19935999999999998  0.43679  0.26706  1.0000
  C   C82       1.0  0.16705000000000003  0.44021999999999983  0.31822  1.0000
  C   C83       1.0  0.20022  0.44562  0.3657  1.0000
  Br  Br7       1.0  0.15538999999999997  0.45004999999999995  0.43496999999999997  1.0000
  C   C84       1.0  0.26588  0.44842  0.36272  1.0000
  C   C85       1.0  0.30000000000000004  0.4452199999999999  0.31217  1.0000
  C   C86       1.0  0.37100999999999995  0.45108  0.31342  1.0000
  F   F25       1.0  0.3757400000000001  0.48817999999999995  0.33347  1.0000
  F   F26       1.0  0.3977600000000001  0.42855  0.35046  1.0000
  C   C87       1.0  0.41128  0.44345  0.25911  1.0000
  F   F27       1.0  0.47136  0.45534  0.26628  1.0000
  F   F28       1.0  0.38417000000000007  0.46448  0.22035999999999994  1.0000
  C   C88       1.0  0.26605  0.43863  0.26422  1.0000
  H   H19       1.0  0.11594000000000006  0.4385999999999999  0.32148  1.0000
  H   H20       1.0  0.29042  0.4532799999999999  0.40024  1.0000
  H   H21       1.0  0.28998  0.43574  0.22459  1.0000
  C   C89       1.0  0.7133  0.60602  0.69971  1.0000
  C   C90       1.0  0.69846  0.57114  0.71518  1.0000
  C   C91       1.0  0.74398  0.5401599999999999  0.70775  1.0000
  Br  Br8       1.0  0.72138  0.49200999999999995  0.72449  1.0000
  C   C92       1.0  0.80478  0.54383  0.68529  1.0000
  C   C93       1.0  0.82233  0.5791599999999999  0.67283  1.0000
  C   C94       1.0  0.8869  0.5832799999999998  0.64493  1.0000
  F   F29       1.0  0.88496  0.5685199999999998  0.59116  1.0000
  F   F30       1.0  0.8967  0.62106  0.64503  1.0000
  C   C95       1.0  0.9457999999999999  0.56359  0.66968  1.0000
  F   F31       1.0  0.99984  0.57181  0.64108  1.0000
  F   F32       1.0  0.9448  0.52491  0.66288  1.0000
  C   C96       1.0  0.7755900000000001  0.6101399999999998  0.68011  1.0000
  H   H22       1.0  0.6504799999999998  0.56731  0.72967  1.0000
  H   H23       1.0  0.83716  0.51874  0.67688  1.0000
  H   H24       1.0  0.7864  0.63727  0.66825  1.0000
  C   C97       1.0  0.68992  0.91496  0.66338  1.0000
  C   C98       1.0  0.69288  0.9059699999999999  0.60673  1.0000
  C   C99       1.0  0.7515100000000001  0.8961799999999999  0.57839  1.0000
  Br  Br9       1.0  0.75401  0.88472  0.50112  1.0000
  C   C100      1.0  0.8080999999999999  0.89511  0.60627  1.0000
  C   C101      1.0  0.8067100000000001  0.9042099999999998  0.66302  1.0000
  C   C102      1.0  0.86812  0.9039799999999999  0.6935999999999999  1.0000
  F   F33       1.0  0.9198099999999999  0.9059  0.65783  1.0000
  F   F34       1.0  0.8647600000000001  0.93548  0.73136  1.0000
  C   C103      1.0  0.8791299999999999  0.8681399999999998  0.7229599999999999  1.0000
  F   F35       1.0  0.88827  0.8370599999999999  0.6848599999999999  1.0000
  F   F36       1.0  0.8261099999999998  0.86455  0.7563699999999998  1.0000
  C   C104      1.0  0.7472700000000001  0.9140999999999999  0.6912  1.0000
  H   H25       1.0  0.6501299999999998  0.9067199999999999  0.58408  1.0000
  H   H26       1.0  0.8529399999999999  0.8871599999999998  0.58347  1.0000
  H   H27       1.0  0.7458900000000002  0.92128  0.73494  1.0000
  C   C105      1.0  0.38359000000000004  0.85946  0.70653  1.0000
  C   C106      1.0  0.3869099999999999  0.8245399999999998  0.7280099999999999  1.0000
  C   C107      1.0  0.33474  0.8140099999999999  0.75771  1.0000
  Br  Br10      1.0  0.33943  0.76624  0.78599  1.0000
  C   C108      1.0  0.27849000000000007  0.83797  0.7658899999999998  1.0000
  C   C109      1.0  0.27364  0.87284  0.74425  1.0000
  C   C110      1.0  0.21092  0.8975399999999999  0.74953  1.0000
  F   F37       1.0  0.20731000000000005  0.91979  0.70675  1.0000
  F   F38       1.0  0.16077000000000002  0.8752399999999998  0.74525  1.0000
  C   C111      1.0  0.20314  0.92354  0.8032899999999998  1.0000
  F   F39       1.0  0.14886  0.9478  0.8016699999999999  1.0000
  F   F40       1.0  0.25456  0.94521  0.80695  1.0000
  C   C112      1.0  0.3268200000000001  0.88355  0.7152  1.0000
  H   H28       1.0  0.42976  0.8053399999999997  0.72178  1.0000
  H   H29       1.0  0.23821  0.82889  0.7881  1.0000
  H   H30       1.0  0.32368  0.91041  0.6985299999999999  1.0000
  C   C113      1.0  0.23677000000000004  0.5863  0.83362  1.0000
  C   C114      1.0  0.24633999999999998  0.5536299999999997  0.86034  1.0000
  C   C115      1.0  0.30443000000000003  0.54451  0.88322  1.0000
  Br  Br11      1.0  0.31547  0.50098  0.9217099999999998  1.0000
  C   C116      1.0  0.3539  0.56766  0.8793599999999999  1.0000
  C   C117      1.0  0.34675  0.60009  0.85169  1.0000
  C   C118      1.0  0.40256  0.6245  0.85267  1.0000
  F   F41       1.0  0.40597  0.64051  0.9057399999999999  1.0000
  F   F42       1.0  0.45848  0.60128  0.83995  1.0000
  C   C119      1.0  0.4012300000000001  0.6565299999999998  0.81526  1.0000
  F   F43       1.0  0.45308999999999994  0.6767699999999998  0.82668  1.0000
  F   F44       1.0  0.34695  0.68115  0.82631  1.0000
  C   C120      1.0  0.28745999999999994  0.6092499999999998  0.8286599999999998  1.0000
  H   H31       1.0  0.20835000000000004  0.5354399999999999  0.86463  1.0000
  H   H32       1.0  0.3982899999999999  0.56037  0.8983999999999999  1.0000
  H   H33       1.0  0.27954  0.6341099999999997  0.80767  1.0000
  C   C121      1.0  0.7447699999999998  0.07013  0.27368  1.0000
  C   C122      1.0  0.75153  0.04047  0.23152  1.0000
  C   C123      1.0  0.81157  0.021489999999999992  0.21702  1.0000
  Br  Br12      1.0  0.82032  0.9807799999999999  0.16024  1.0000
  C   C124      1.0  0.8654700000000001  0.032469999999999985  0.24358999999999997  1.0000
  C   C125      1.0  0.85985  0.06268  0.28502  1.0000
  C   C126      1.0  0.91831  0.07770999999999997  0.31059  1.0000
  F   F45       1.0  0.91133  0.07809999999999997  0.36663999999999997  1.0000
  F   F46       1.0  0.97281  0.05432  0.2935  1.0000
  C   C127      1.0  0.9277400000000001  0.11806  0.29643  1.0000
  F   F47       1.0  0.98973  0.12583  0.30664  1.0000
  F   F48       1.0  0.8872  0.14391999999999996  0.32975999999999994  1.0000
  C   C128      1.0  0.79913  0.08069999999999997  0.30048  1.0000
  H   H34       1.0  0.71049  0.03171  0.21011  1.0000
  H   H35       1.0  0.91157  0.01783  0.23082  1.0000
  H   H36       1.0  0.7944699999999999  0.10352  0.33294  1.0000
  C   C129      1.0  0.58771  0.5642599999999998  0.53654  1.0000
  C   C130      1.0  0.64915  0.5524  0.5518  1.0000
  C   C131      1.0  0.6886900000000001  0.52619  0.51754  1.0000
  Br  Br13      1.0  0.7734  0.51196  0.5379  1.0000
  C   C132      1.0  0.66644  0.5105599999999999  0.46851  1.0000
  C   C133      1.0  0.60429  0.52143  0.45295  1.0000
  C   C134      1.0  0.57876  0.5037  0.40069  1.0000
  F   F49       1.0  0.55767  0.53232  0.37012  1.0000
  F   F50       1.0  0.6268900000000001  0.48148  0.36990999999999996  1.0000
  C   C135      1.0  0.52283  0.4794399999999999  0.41038  1.0000
  F   F51       1.0  0.50809  0.46257  0.36072  1.0000
  F   F52       1.0  0.46943  0.5021899999999999  0.43159999999999993  1.0000
  C   C136      1.0  0.56577  0.54912  0.48677999999999993  1.0000
  H   H37       1.0  0.66698  0.56411  0.58981  1.0000
  H   H38       1.0  0.69778  0.48988  0.44300999999999996  1.0000
  H   H39       1.0  0.51829  0.5583  0.47504  1.0000
  C   C137      1.0  0.49165999999999993  0.94717  0.4949  1.0000
  C   C138      1.0  0.43302  0.9382499999999999  0.4741099999999999  1.0000
  C   C139      1.0  0.41084  0.95399  0.42794  1.0000
  Br  Br14      1.0  0.32994  0.94282  0.40093  1.0000
  C   C140      1.0  0.4477499999999999  0.9779299999999999  0.40145  1.0000
  C   C141      1.0  0.50742  0.98641  0.4209  1.0000
  C   C142      1.0  0.54911  0.011590000000000005  0.39216  1.0000
  F   F53       1.0  0.6113300000000002  0.99495  0.3874799999999999  1.0000
  F   F54       1.0  0.52925  0.01519  0.3399  1.0000
  C   C143      1.0  0.54853  0.051049999999999984  0.4235099999999999  1.0000
  F   F55       1.0  0.59007  0.07172  0.39713  1.0000
  F   F56       1.0  0.56987  0.048199999999999986  0.47544  1.0000
  C   C144      1.0  0.52849  0.9711599999999999  0.46801999999999994  1.0000
  H   H40       1.0  0.40414  0.9195999999999999  0.49405  1.0000
  H   H41       1.0  0.42966000000000004  0.98997  0.36597  1.0000
  H   H42       1.0  0.57456  0.97732  0.48321  1.0000
  C   C145      1.0  0.014219999999999901  0.46562  0.027809999999999994  1.0000
  C   C146      1.0  0.9712599999999999  0.44092999999999993  0.04461  1.0000
  C   C147      1.0  0.93998  0.41864  0.006389999999999896  1.0000
  Br  Br15      1.0  0.8818299999999999  0.38477  0.02961999999999998  1.0000
  C   C148      1.0  0.95061  0.42122999999999994  0.9509  1.0000
  C   C149      1.0  0.99368  0.44556999999999997  0.93246  1.0000
  C   C150      1.0  0.0019099999999999961  0.4471  0.87107  1.0000
  F   F57       1.0  0.011080000000000024  0.4102399999999999  0.84704  1.0000
  F   F58       1.0  0.9453800000000001  0.46316  0.85283  1.0000
  C   C151      1.0  0.058269999999999995  0.46771999999999997  0.8503  1.0000
  F   F59       1.0  0.06651  0.4585  0.7945599999999999  1.0000
  F   F60       1.0  0.11413000000000001  0.45491  0.87337  1.0000
  C   C152      1.0  0.025610000000000015  0.46752  0.9716299999999998  1.0000
  H   H43       1.0  0.9605199999999999  0.43973  0.08722  1.0000
  H   H44       1.0  0.9251699999999999  0.40403  0.92198  1.0000
  H   H45       1.0  0.05904000000000002  0.4863799999999999  0.9593299999999999  1.0000
  C   C153      1.0  0.04294  0.04864  0.00465  1.0000
  C   C154      1.0  0.10655999999999999  0.032909999999999995  0.99808  1.0000
  C   C155      1.0  0.13179  0.01776999999999999  0.94679  1.0000
  Br  Br16      1.0  0.21959000000000006  0.9987199999999998  0.9377799999999998  1.0000
  C   C156      1.0  0.09345000000000002  0.01744999999999999  0.90182  1.0000
  C   C157      1.0  0.02865000000000001  0.03131  0.9078099999999999  1.0000
  C   C158      1.0  0.9862200000000001  0.030999999999999917  0.85925  1.0000
  F   F61       1.0  0.95387  0.06634  0.85959  1.0000
  F   F62       1.0  0.022450000000000053  0.02421999999999969  0.81066  1.0000
  C   C159      1.0  0.93675  0.0015399999999998787  0.8606499999999999  1.0000
  F   F63       1.0  0.89564  0.00638999999999967  0.8188799999999999  1.0000
  F   F64       1.0  0.90075  0.007479999999999487  0.9093199999999998  1.0000
  C   C160      1.0  0.0040000000000000036  0.047210000000000016  0.95953  1.0000
  H   H46       1.0  0.13739  0.03354  0.03228  1.0000
  H   H47       1.0  0.11459  0.0064099999999999895  0.8623899999999999  1.0000
  H   H48       1.0  0.95472  0.05909999999999992  0.96435  1.0000
