data_image0
_chemical_formula_structural       Mn5CN8C2N8CN16Cl2C12OC7OH8C8OC7OH8
_chemical_formula_sum              "Mn5 C38 N32 Cl2 O4 H16"
_cell_length_a       15.0634
_cell_length_b       10.7947
_cell_length_c       10.9946
_cell_angle_alpha    103.7369
_cell_angle_beta     70.3087
_cell_angle_gamma    109.6149

_space_group_name_H-M_alt    "P 1"
_space_group_IT_number       1

loop_
  _space_group_symop_operation_xyz
  'x, y, z'

loop_
  _atom_site_type_symbol
  _atom_site_label
  _atom_site_symmetry_multiplicity
  _atom_site_fract_x
  _atom_site_fract_y
  _atom_site_fract_z
  _atom_site_occupancy
  Mn  Mn1       1.0  0.38243999999999995  0.3286299999999999  0.1613  1.0000
  Mn  Mn2       1.0  0.26213  0.06264000000000003  0.9886900000000001  1.0000
  Mn  Mn3       1.0  0.6188999999999999  0.73787  0.95553  1.0000
  Mn  Mn4       1.0  0.76679  0.04664999999999999  0.046519999999999895  1.0000
  Mn  Mn5       1.0  0.00887  0.027989999999999994  0.01752  1.0000
  C   C1        1.0  0.44676  0.10251  0.18609  1.0000
  N   N1        1.0  0.37106  0.13919999999999996  0.17954  1.0000
  N   N2        1.0  0.32999  0.04031000000000007  0.10137  1.0000
  N   N3        1.0  0.38273999999999997  0.95512  0.05088  1.0000
  N   N4        1.0  0.45613  0.9909399999999999  0.10227000000000001  1.0000
  N   N5        1.0  0.14859  0.85468  0.15838000000000002  1.0000
  N   N6        1.0  0.14226000000000003  0.9059  0.06347  1.0000
  N   N7        1.0  0.04784000000000001  0.89322  0.07997000000000001  1.0000
  N   N8        1.0  0.9937599999999999  0.83414  0.18514  1.0000
  C   C2        1.0  0.05621999999999997  0.8080999999999999  0.23349  1.0000
  C   C3        1.0  0.22908999999999996  0.9524899999999998  0.69704  1.0000
  N   N9        1.0  0.21244  0.0948899999999999  0.8607300000000001  1.0000
  N   N10       1.0  0.2771799999999999  0.06726999999999973  0.75193  1.0000
  N   N11       1.0  0.09908  0.17779  0.13006  1.0000
  N   N12       1.0  0.19098  0.18039  0.11456000000000002  1.0000
  N   N13       1.0  0.23635000000000003  0.28426  0.18222  1.0000
  N   N14       1.0  0.17557  0.35491  0.25135  1.0000
  N   N15       1.0  0.12483000000000001  0.019379999999999998  0.85881  1.0000
  N   N16       1.0  0.13279999999999995  0.9193599999999998  0.7626800000000001  1.0000
  C   C4        1.0  0.08882000000000001  0.28735  0.2241  1.0000
  N   N17       1.0  0.6455  0.89802  0.8726900000000002  1.0000
  N   N18       1.0  0.7029699999999997  0.015000000000000005  0.9051500000000002  1.0000
  N   N19       1.0  0.69268  0.10681000000000002  0.8544900000000001  1.0000
  N   N20       1.0  0.63229  0.04809  0.78075  1.0000
  N   N21       1.0  0.89465  0.22803000000000004  0.8603300000000002  1.0000
  N   N22       1.0  0.89157  0.16803  0.9533500000000001  1.0000
  N   N23       1.0  0.9809399999999999  0.1674  0.9468900000000001  1.0000
  N   N24       1.0  0.04475999999999999  0.22688999999999995  0.84637  1.0000
  N   N25       1.0  0.85162  0.9435  0.27221  1.0000
  N   N26       1.0  0.88678  0.0211  0.17915  1.0000
  N   N27       1.0  0.82193  0.08246000000000002  0.19158000000000003  1.0000
  N   N28       1.0  0.75205  0.06380999999999999  0.30057  1.0000
  N   N29       1.0  0.91491  0.8928299999999999  0.90912  1.0000
  N   N30       1.0  0.82056  0.88508  0.96425  1.0000
  N   N31       1.0  0.7655700000000001  0.77748  0.91148  1.0000
  N   N32       1.0  0.82026  0.72353  0.80594  1.0000
  Cl  Cl1       1.0  0.39161  0.24715  0.9454000000000001  1.0000
  Cl  Cl2       1.0  0.63015  0.8896999999999999  0.13717000000000001  1.0000
  C   C5        1.0  0.60265  0.9171799999999999  0.793  1.0000
  C   C6        1.0  0.98999  0.26503  0.79443  1.0000
  C   C7        1.0  0.76778  0.97363  0.34820000000000007  1.0000
  C   C8        1.0  0.9135699999999999  0.79902  0.7977600000000001  1.0000
  C   C9        1.0  0.026499999999999982  0.3156599999999999  0.6645  1.0000
  C   C10       1.0  0.94141  0.32388  0.61801  1.0000
  C   C11       1.0  0.89726  0.19578  0.5365800000000001  1.0000
  C   C12       1.0  0.96073  0.18916  0.39872  1.0000
  C   C13       1.0  0.0008500000000000174  0.29525  0.33515  1.0000
  C   C14       1.0  0.99389  0.42876999999999993  0.41398  1.0000
  C   C15       1.0  0.9728200000000001  0.44186  0.5458400000000001  1.0000
  C   C16       1.0  0.97978  0.57233  0.62621  1.0000
  O   O1        1.0  0.98155  0.58399  0.73869  1.0000
  C   C17       1.0  0.98886  0.68914  0.57139  1.0000
  C   C18       1.0  0.97812  0.8078  0.6579400000000001  1.0000
  C   C19       1.0  0.003379999999999961  0.92259  0.6014400000000001  1.0000
  C   C20       1.0  0.034629999999999994  0.91929  0.465  1.0000
  C   C21       1.0  0.033479999999999975  0.79972  0.37765000000000004  1.0000
  C   C22       1.0  0.012419999999999994  0.68144  0.43235  1.0000
  C   C23       1.0  0.016960000000000086  0.5490899999999999  0.35072  1.0000
  O   O2        1.0  0.03816999999999998  0.53816  0.23221000000000003  1.0000
  H   H1        1.0  0.06765999999999997  0.24976999999999994  0.59036  1.0000
  H   H2        1.0  0.08027  0.41456999999999994  0.67477  1.0000
  H   H3        1.0  0.87948  0.34053999999999995  0.7042900000000001  1.0000
  H   H4        1.0  0.8884499999999999  0.10708999999999999  0.57889  1.0000
  H   H5        1.0  0.82326  0.19528  0.53689  1.0000
  H   H6        1.0  0.98225  0.09959999999999997  0.35548  1.0000
  H   H7        1.0  0.9959500000000001  0.014629999999999919  0.66306  1.0000
  H   H8        1.0  0.05906999999999999  0.012000000000000009  0.42712  1.0000
  C   C24       1.0  0.46889999999999993  0.11796000000000001  0.31239000000000006  1.0000
  C   C25       1.0  0.42358999999999997  0.98076  0.36374000000000006  1.0000
  C   C26       1.0  0.31096  0.92974  0.37976  1.0000
  C   C27       1.0  0.25415999999999994  0.84199  0.4825000000000001  1.0000
  C   C28       1.0  0.28236000000000006  0.87182  0.58981  1.0000
  C   C29       1.0  0.38919  0.90551  0.5752300000000001  1.0000
  C   C30       1.0  0.4539199999999999  0.9748099999999997  0.4796200000000001  1.0000
  C   C31       1.0  0.559  0.014780000000000015  0.47364000000000006  1.0000
  O   O3        1.0  0.60647  0.13031999999999996  0.46663  1.0000
  C   C32       1.0  0.5964500000000001  0.92239  0.51018  1.0000
  C   C33       1.0  0.69272  0.9032399999999998  0.45505  1.0000
  C   C34       1.0  0.7141999999999998  0.8094799999999999  0.5020500000000001  1.0000
  C   C35       1.0  0.65032  0.7578400000000001  0.61579  1.0000
  C   C36       1.0  0.57315  0.8139799999999999  0.68852  1.0000
  C   C37       1.0  0.5313100000000001  0.85677  0.61604  1.0000
  C   C38       1.0  0.4267699999999999  0.8602299999999999  0.6614900000000001  1.0000
  O   O4        1.0  0.3718599999999999  0.8195099999999998  0.76284  1.0000
  H   H9        1.0  0.43834  0.19518  0.38477  1.0000
  H   H10       1.0  0.54991  0.14981  0.29162  1.0000
  H   H11       1.0  0.45434  0.90603  0.28864  1.0000
  H   H12       1.0  0.27968  0.015560000000000011  0.40589  1.0000
  H   H13       1.0  0.29645  0.8737  0.28659  1.0000
  H   H14       1.0  0.17687999999999998  0.8098  0.4929400000000001  1.0000
  H   H15       1.0  0.78313  0.7843999999999999  0.45765  1.0000
  H   H16       1.0  0.67557  0.70294  0.66171  1.0000
