data_image0
_chemical_formula_structural       Mn5CN8C2N8CN16Cl2C7FCFC6POC15FCFH16C3FCFC6POC15FCFH16
_chemical_formula_sum              "Mn5 C60 N32 Cl2 F8 P2 O2 H32"
_cell_length_a       22.4395
_cell_length_b       20.1237
_cell_length_c       9.4721
_cell_angle_alpha    60.629
_cell_angle_beta     130.1598
_cell_angle_gamma    135.0436

_space_group_name_H-M_alt    "P 1"
_space_group_IT_number       1

loop_
  _space_group_symop_operation_xyz
  'x, y, z'

loop_
  _atom_site_type_symbol
  _atom_site_label
  _atom_site_symmetry_multiplicity
  _atom_site_fract_x
  _atom_site_fract_y
  _atom_site_fract_z
  _atom_site_occupancy
  Mn  Mn1       1.0  0.8209  0.14694  0.58194  1.0000
  Mn  Mn2       1.0  0.054510000000000065  0.21831  0.86531  1.0000
  Mn  Mn3       1.0  0.29429999999999995  0.8790599999999998  0.77594  1.0000
  Mn  Mn4       1.0  0.0877499999999999  0.8551999999999998  0.58947  1.0000
  Mn  Mn5       1.0  0.07282999999999999  0.03826  0.22981  1.0000
  C   C1        1.0  0.90104  0.26571999999999996  0.8337  1.0000
  N   N1        1.0  0.9222199999999999  0.25538  0.745  1.0000
  N   N2        1.0  0.01391999999999995  0.28731999999999996  0.85191  1.0000
  N   N3        1.0  0.05055999999999999  0.32288  0.99696  1.0000
  N   N4        1.0  0.9818799999999999  0.30917  0.99097  1.0000
  N   N5        1.0  0.21073  0.32292  0.20253  1.0000
  N   N6        1.0  0.15516  0.24253  0.13328  1.0000
  N   N7        1.0  0.16453  0.17868  0.26742  1.0000
  N   N8        1.0  0.22388999999999995  0.21516999999999997  0.43006  1.0000
  C   C2        1.0  0.2536599999999999  0.30569  0.38661  1.0000
  C   C3        1.0  0.0764  0.056799999999999996  0.78661  1.0000
  N   N9        1.0  0.08047000000000006  0.13812  0.87509  1.0000
  N   N10       1.0  0.08136000000000009  0.13501999999999995  0.7402  1.0000
  N   N11       1.0  0.9582399999999999  0.04359000000000001  0.07619  1.0000
  N   N12       1.0  0.94959  0.10087999999999998  0.92714  1.0000
  N   N13       1.0  0.85945  0.07271000000000005  0.8184400000000001  1.0000
  N   N14       1.0  0.80508  0.99663  0.8931  1.0000
  N   N15       1.0  0.07356999999999997  0.06495  0.9947  1.0000
  N   N16       1.0  0.07139000000000004  0.012350000000000083  0.94429  1.0000
  C   C4        1.0  0.86756  0.97867  0.05519  1.0000
  N   N17       1.0  0.16184999999999997  0.76709  0.62868  1.0000
  N   N18       1.0  0.08428000000000001  0.7574  0.5685  1.0000
  N   N19       1.0  0.005379999999999944  0.67952  0.48016  1.0000
  N   N20       1.0  0.029849999999999977  0.6371  0.47685  1.0000
  N   N21       1.0  0.89448  0.74983  0.27455  1.0000
  N   N22       1.0  0.9763799999999999  0.83347  0.33212  1.0000
  N   N23       1.0  0.9774499999999998  0.89794  0.19344  1.0000
  N   N24       1.0  0.89481  0.85826  0.038790000000000005  1.0000
  N   N25       1.0  0.07089999999999999  0.06174000000000001  0.51285  1.0000
  N   N26       1.0  0.07642999999999997  0.01389  0.46907  1.0000
  N   N27       1.0  0.08939999999999998  0.95253  0.60661  1.0000
  N   N28       1.0  0.08993000000000001  0.95636  0.74273  1.0000
  N   N29       1.0  0.18452999999999997  0.029019999999999994  0.376  1.0000
  N   N30       1.0  0.18330999999999997  0.95733  0.49556  1.0000
  N   N31       1.0  0.26096999999999987  0.9653199999999998  0.56377  1.0000
  N   N32       1.0  0.31499  0.04127  0.48814  1.0000
  Cl  Cl1       1.0  0.9423799999999998  0.19226  0.56839  1.0000
  Cl  Cl2       1.0  0.22121999999999983  0.88018  0.86889  1.0000
  C   C5        1.0  0.12732000000000004  0.69184  0.5680700000000001  1.0000
  C   C6        1.0  0.84487  0.76607  0.09251  1.0000
  C   C7        1.0  0.07928000000000002  0.02531  0.68244  1.0000
  C   C8        1.0  0.26693  0.08083  0.37036  1.0000
  C   C9        1.0  0.83989  0.90406  0.19996  1.0000
  C   C10       1.0  0.7892499999999999  0.9122  0.23692  1.0000
  C   C11       1.0  0.82966  0.0005200000000000762  0.26914  1.0000
  F   F1        1.0  0.91878  0.07648  0.28918  1.0000
  C   C12       1.0  0.7733099999999999  0.014459999999999917  0.25424  1.0000
  F   F2        1.0  0.8065399999999998  0.10356  0.24461  1.0000
  C   C13       1.0  0.6801899999999999  0.93921  0.2302  1.0000
  C   C14       1.0  0.6210699999999998  0.9609499999999997  0.2031  1.0000
  C   C15       1.0  0.55532  0.88719  0.28683  1.0000
  C   C16       1.0  0.58813  0.8496  0.46968  1.0000
  C   C17       1.0  0.52288  0.77496  0.53713  1.0000
  C   C18       1.0  0.42490999999999995  0.73782  0.4224  1.0000
  P   P1        1.0  0.3341899999999999  0.62536  0.48972  1.0000
  O   O1        1.0  0.2550599999999999  0.5905  0.29075000000000006  1.0000
  C   C19       1.0  0.27023999999999987  0.63622  0.53  1.0000
  C   C20       1.0  0.3178999999999998  0.6786699999999998  0.68732  1.0000
  C   C21       1.0  0.27381  0.69935  0.70255  1.0000
  C   C22       1.0  0.18133999999999997  0.67685  0.56114  1.0000
  C   C23       1.0  0.13455000000000011  0.63394  0.40642  1.0000
  C   C24       1.0  0.1776799999999998  0.6133699999999999  0.39135  1.0000
  C   C25       1.0  0.34152000000000005  0.52531  0.5726  1.0000
  C   C26       1.0  0.26318999999999987  0.4338299999999999  0.58517  1.0000
  C   C27       1.0  0.24228000000000002  0.35611  0.55501  1.0000
  C   C28       1.0  0.29969  0.36944  0.51222  1.0000
  C   C29       1.0  0.38498  0.459  0.52536  1.0000
  C   C30       1.0  0.40514999999999995  0.53634  0.55331  1.0000
  C   C31       1.0  0.39459000000000005  0.7822  0.24726  1.0000
  C   C32       1.0  0.45903999999999995  0.85556  0.17916  1.0000
  C   C33       1.0  0.6417199999999998  0.84893  0.21078  1.0000
  F   F3        1.0  0.55013  0.77469  0.17857999999999996  1.0000
  C   C34       1.0  0.69622  0.83547  0.21541  1.0000
  F   F4        1.0  0.65825  0.74782  0.19778  1.0000
  H   H1        1.0  0.79265  0.83419  0.15074  1.0000
  H   H2        1.0  0.9021899999999998  0.9080399999999998  0.33142  1.0000
  H   H3        1.0  0.66976  0.028190000000000003  0.26528  1.0000
  H   H4        1.0  0.57912  0.97212  0.051960000000000006  1.0000
  H   H5        1.0  0.66292  0.87503  0.55679  1.0000
  H   H6        1.0  0.54783  0.74332  0.67495  1.0000
  H   H7        1.0  0.3897699999999999  0.69773  0.79542  1.0000
  H   H8        1.0  0.31073999999999996  0.73102  0.82488  1.0000
  H   H9        1.0  0.06389999999999994  0.61683  0.29409  1.0000
  H   H10       1.0  0.13857000000000003  0.58244  0.26584  1.0000
  H   H11       1.0  0.21204999999999993  0.42336  0.59723  1.0000
  H   H12       1.0  0.17387  0.28847  0.53693  1.0000
  H   H13       1.0  0.43014  0.47086  0.49221  1.0000
  H   H14       1.0  0.4647699999999998  0.6055999999999998  0.53806  1.0000
  H   H15       1.0  0.31985000000000013  0.75692  0.15861999999999998  1.0000
  H   H16       1.0  0.43298999999999993  0.8857  0.039979999999999905  1.0000
  C   C35       1.0  0.8023999999999998  0.18951999999999997  0.81889  1.0000
  C   C36       1.0  0.75372  0.20806  0.84013  1.0000
  C   C37       1.0  0.65202  0.1527  0.73847  1.0000
  F   F5        1.0  0.60297  0.10661  0.59196  1.0000
  C   C38       1.0  0.59868  0.13614  0.79606  1.0000
  F   F6        1.0  0.50118  0.07582  0.7029399999999999  1.0000
  C   C39       1.0  0.64511  0.17368  0.95761  1.0000
  C   C40       1.0  0.58856  0.13381  0.04824  1.0000
  C   C41       1.0  0.58195  0.20273  0.04821  1.0000
  C   C42       1.0  0.52059  0.22625  0.8850700000000001  1.0000
  C   C43       1.0  0.50481  0.28018  0.89172  1.0000
  C   C44       1.0  0.54988  0.31062  0.06108000000000001  1.0000
  P   P2        1.0  0.52774  0.38217  0.06441  1.0000
  O   O2        1.0  0.59991  0.407  0.27032  1.0000
  C   C45       1.0  0.4142499999999998  0.30556  0.07072  1.0000
  C   C46       1.0  0.40901  0.32606  0.18304  1.0000
  C   C47       1.0  0.35065  0.25254  0.26651  1.0000
  C   C48       1.0  0.29567999999999994  0.15832  0.23487  1.0000
  C   C49       1.0  0.29339999999999994  0.13979  0.1062  1.0000
  C   C50       1.0  0.35023  0.21276  0.021440000000000004  1.0000
  C   C51       1.0  0.58983  0.50104  0.9596  1.0000
  C   C52       1.0  0.66107  0.52707  0.93975  1.0000
  C   C53       1.0  0.74091  0.62051  0.95233  1.0000
  C   C54       1.0  0.74817  0.68967  0.97574  1.0000
  C   C55       1.0  0.6677199999999999  0.66653  0.9559300000000001  1.0000
  C   C56       1.0  0.59052  0.57158  0.95754  1.0000
  C   C57       1.0  0.61269  0.28864  0.22334  1.0000
  C   C58       1.0  0.6287  0.23525  0.21672  1.0000
  C   C59       1.0  0.74616  0.23705999999999997  0.04859  1.0000
  F   F7        1.0  0.79284  0.27511  0.20445  1.0000
  C   C60       1.0  0.8002899999999998  0.25412000000000007  0.99096  1.0000
  F   F8        1.0  0.89742  0.30753  0.09534  1.0000
  H   H17       1.0  0.80491  0.13133  0.92099  1.0000
  H   H18       1.0  0.7544799999999999  0.16065999999999997  0.68214  1.0000
  H   H19       1.0  0.51434  0.06996  0.98164  1.0000
  H   H20       1.0  0.62281  0.10937  0.19278  1.0000
  H   H21       1.0  0.48302  0.20032  0.75471  1.0000
  H   H22       1.0  0.4561499999999999  0.29690999999999995  0.7656999999999999  1.0000
  H   H23       1.0  0.4582599999999999  0.39734  0.22329  1.0000
  H   H24       1.0  0.35701999999999995  0.26870000000000005  0.37074000000000007  1.0000
  H   H25       1.0  0.25425999999999993  0.06790999999999997  0.08322  1.0000
  H   H26       1.0  0.35313  0.19449  0.9369  1.0000
  H   H27       1.0  0.66251  0.47461  0.93955  1.0000
  H   H28       1.0  0.80233  0.63653  0.96855  1.0000
  H   H29       1.0  0.67038  0.71987  0.9652499999999999  1.0000
  H   H30       1.0  0.53663  0.55312  0.97387  1.0000
  H   H31       1.0  0.6488799999999999  0.31151  0.35583  1.0000
  H   H32       1.0  0.6763799999999999  0.21783  0.34400000000000003  1.0000
