data_image0
_chemical_formula_structural       Mn5CN8C2N8CN16Cl2C5OC2IC8POC16IH20COC2IC8POC16IH20
_chemical_formula_sum              "Mn5 C62 N32 Cl2 O4 I4 P2 H40"
_cell_length_a       22.6869
_cell_length_b       19.1121
_cell_length_c       9.745
_cell_angle_alpha    65.336
_cell_angle_beta     119.2821
_cell_angle_gamma    134.5845

_symmetry_space_group_name_H-M    'P 1'
_symmetry_Int_Tables_number       1

loop_
  _symmetry_equiv_pos_as_xyz
  'x,y,z'

loop_
  _atom_site_type_symbol
  _atom_site_label
  _atom_site_symmetry_multiplicity
  _atom_site_fract_x
  _atom_site_fract_y
  _atom_site_fract_z
  _atom_site_occupancy
  Mn  Mn1       1.0  0.7906000000000001  0.06228  0.84518  1.0000
  Mn  Mn2       1.0  0.9917699999999999  0.12618000000000001  0.9628199999999999  1.0000
  Mn  Mn3       1.0  0.22350000000000006  0.82197  0.72254  1.0000
  Mn  Mn4       1.0  0.032780000000000115  0.7790800000000002  0.61483  1.0000
  Mn  Mn5       1.0  0.02570000000000001  0.9707000000000001  0.31055  1.0000
  C   C1        1.0  0.91637  0.28102000000000005  0.89111  1.0000
  N   N1        1.0  0.9009899999999998  0.19666  0.90842  1.0000
  N   N2        1.0  0.97778  0.21896000000000004  0.96656  1.0000
  N   N3        1.0  0.039290000000000116  0.3141400000000001  0.9843399999999999  1.0000
  N   N4        1.0  0.0026499999999999605  0.35494  0.9401799999999999  1.0000
  N   N5        1.0  0.15468  0.26827  0.18659  1.0000
  N   N6        1.0  0.09865000000000002  0.17492000000000002  0.16173  1.0000
  N   N7        1.0  0.11178  0.12049000000000003  0.29339  1.0000
  N   N8        1.0  0.17385  0.17652000000000007  0.4103499999999999  1.0000
  C   C2        1.0  0.20146000000000003  0.26908  0.33978  1.0000
  C   C3        1.0  0.00797000000000004  0.9570700000000001  0.87118  1.0000
  N   N9        1.0  0.0010900000000000224  0.03484000000000002  0.9551699999999999  1.0000
  N   N10       1.0  0.9957300000000004  0.02357  0.82443  1.0000
  N   N11       1.0  0.93534  0.99171  0.23043  1.0000
  N   N12       1.0  0.9045700000000001  0.012450000000000003  0.0787  1.0000
  N   N13       1.0  0.8395100000000001  0.0083  0.05301  1.0000
  N   N14       1.0  0.84087  0.008860000000000092  0.18867  1.0000
  N   N15       1.0  0.014189999999999958  0.97764  0.07844000000000007  1.0000
  N   N16       1.0  0.018860000000000005  0.9262900000000001  0.02967999999999993  1.0000
  C   C4        1.0  0.90804  0.01051000000000002  0.29773  1.0000
  N   N17       1.0  0.10781999999999986  0.70198  0.61713  1.0000
  N   N18       1.0  0.03433000000000006  0.6854100000000001  0.57303  1.0000
  N   N19       1.0  0.97051  0.60911  0.49039  1.0000
  N   N20       1.0  0.0022800000000000676  0.57404  0.48062999999999995  1.0000
  N   N21       1.0  0.85459  0.66712  0.40074  1.0000
  N   N22       1.0  0.9335300000000001  0.7534800000000001  0.41879  1.0000
  N   N23       1.0  0.9312800000000002  0.8228400000000002  0.31094  1.0000
  N   N24       1.0  0.85086  0.7838500000000002  0.21858  1.0000
  N   N25       1.0  0.021790000000000025  0.9838100000000001  0.61273  1.0000
  N   N26       1.0  0.033839999999999926  0.9469600000000001  0.54944  1.0000
  N   N27       1.0  0.03582000000000013  0.8763900000000002  0.65561  1.0000
  N   N28       1.0  0.027790000000000044  0.8677700000000002  0.78905  1.0000
  N   N29       1.0  0.12080000000000009  0.9585100000000001  0.39032  1.0000
  N   N30       1.0  0.12003999999999995  0.88767  0.49867000000000006  1.0000
  N   N31       1.0  0.19365  0.9045900000000001  0.54158  1.0000
  N   N32       1.0  0.24609999999999993  0.98726  0.46415  1.0000
  Cl  Cl1       1.0  0.86997  0.06925000000000002  0.75739  1.0000
  Cl  Cl2       1.0  0.14821000000000006  0.8098900000000001  0.83325  1.0000
  C   C5        1.0  0.08810999999999997  0.63301  0.55932  1.0000
  C   C6        1.0  0.8040500000000002  0.68715  0.27462  1.0000
  C   C7        1.0  0.019560000000000178  0.9358400000000001  0.7607099999999999  1.0000
  C   C8        1.0  0.20012  0.02  0.36926  1.0000
  C   C9        1.0  0.97334  0.09629  0.39436  1.0000
  O   O1        1.0  0.94238  0.07824  0.51201  1.0000
  C   C10       1.0  0.87732  0.08760000000000003  0.44756  1.0000
  C   C11       1.0  0.78869  0.0034600000000000204  0.41382  1.0000
  I   I1        1.0  0.7484700000000002  0.8576800000000002  0.4801000000000001  1.0000
  C   C12       1.0  0.7250100000000002  0.014199999999999989  0.35165  1.0000
  C   C13       1.0  0.7481900000000002  0.10656000000000021  0.33566  1.0000
  C   C14       1.0  0.67898  0.1144400000000001  0.29035  1.0000
  C   C15       1.0  0.6455600000000002  0.0764600000000002  0.43006  1.0000
  C   C16       1.0  0.5793900000000001  0.9648500000000001  0.4539699999999999  1.0000
  C   C17       1.0  0.6024600000000001  0.9088300000000001  0.57878  1.0000
  C   C18       1.0  0.5392100000000002  0.8068100000000002  0.61081  1.0000
  C   C19       1.0  0.45179000000000025  0.7595800000000003  0.51922  1.0000
  P   P1        1.0  0.36464  0.63345  0.58697  1.0000
  O   O2        1.0  0.4091599999999999  0.62416  0.76751  1.0000
  C   C20       1.0  0.27918  0.62753  0.58338  1.0000
  C   C21       1.0  0.19434000000000018  0.5701100000000002  0.48174000000000006  1.0000
  C   C22       1.0  0.13107000000000002  0.5694800000000001  0.47653  1.0000
  C   C23       1.0  0.15244000000000005  0.6273800000000002  0.57144  1.0000
  C   C24       1.0  0.23736  0.68354  0.67449  1.0000
  C   C25       1.0  0.30021000000000003  0.6838700000000001  0.67983  1.0000
  C   C26       1.0  0.32471  0.52366  0.52633  1.0000
  C   C27       1.0  0.35396000000000005  0.5334300000000001  0.41694  1.0000
  C   C28       1.0  0.3176  0.44931  0.36312  1.0000
  C   C29       1.0  0.25390999999999997  0.35439999999999994  0.42249  1.0000
  C   C30       1.0  0.2268400000000001  0.3449500000000001  0.53577  1.0000
  C   C31       1.0  0.2610300000000001  0.42912000000000017  0.5849299999999998  1.0000
  C   C32       1.0  0.42933000000000016  0.8143900000000002  0.39062  1.0000
  C   C33       1.0  0.4923900000000001  0.91633  0.35834  1.0000
  C   C34       1.0  0.8365300000000001  0.18916  0.3795799999999999  1.0000
  C   C35       1.0  0.90077  0.17929  0.43880999999999987  1.0000
  I   I2        1.0  0.026610000000000064  0.2869000000000001  0.57589  1.0000
  H   H1        1.0  0.03868000000000002  0.11674999999999999  0.44715  1.0000
  H   H2        1.0  0.98732  0.16483  0.31427  1.0000
  H   H3        1.0  0.6572600000000002  0.9495000000000002  0.32374  1.0000
  H   H4        1.0  0.62442  0.07373000000000007  0.18730999999999995  1.0000
  H   H5        1.0  0.7069900000000002  0.1933900000000002  0.25343  1.0000
  H   H6        1.0  0.6152400000000001  0.10864000000000008  0.40833  1.0000
  H   H7        1.0  0.70152  0.10440000000000005  0.5400999999999999  1.0000
  H   H8        1.0  0.66911  0.94482  0.65342  1.0000
  H   H9        1.0  0.5578100000000003  0.7656600000000002  0.71132  1.0000
  H   H10       1.0  0.17737000000000008  0.5266600000000001  0.4058699999999999  1.0000
  H   H11       1.0  0.06612999999999998  0.52564  0.3959  1.0000
  H   H12       1.0  0.2555400000000001  0.7275300000000001  0.7509  1.0000
  H   H13       1.0  0.36556000000000016  0.7286200000000003  0.75873  1.0000
  H   H14       1.0  0.40321000000000007  0.6059300000000001  0.37088  1.0000
  H   H15       1.0  0.3375300000000002  0.45822000000000024  0.27207  1.0000
  H   H16       1.0  0.17500000000000007  0.2730200000000001  0.57752  1.0000
  H   H17       1.0  0.23679000000000014  0.42078000000000015  0.66724  1.0000
  H   H18       1.0  0.36182000000000003  0.77939  0.32064  1.0000
  H   H19       1.0  0.47223000000000015  0.9578300000000002  0.26427  1.0000
  H   H20       1.0  0.85542  0.25914000000000004  0.38052  1.0000
  C   C36       1.0  0.8489499999999999  0.29389000000000004  0.812  1.0000
  O   O3        1.0  0.8357200000000001  0.30429  0.92866  1.0000
  C   C37       1.0  0.78702  0.33638  0.8645  1.0000
  C   C38       1.0  0.8297700000000001  0.4377000000000001  0.8455299999999999  1.0000
  I   I3        1.0  0.96694  0.5413100000000001  0.91647  1.0000
  C   C39       1.0  0.78218  0.47083000000000014  0.78766  1.0000
  C   C40       1.0  0.6917300000000002  0.4030400000000001  0.75677  1.0000
  C   C41       1.0  0.6450100000000002  0.4395300000000001  0.72928  1.0000
  C   C42       1.0  0.5584  0.39724000000000004  0.59365  1.0000
  C   C43       1.0  0.49688000000000015  0.3846400000000001  0.6401  1.0000
  C   C44       1.0  0.50473  0.46713000000000005  0.62406  1.0000
  C   C45       1.0  0.46902  0.46522000000000013  0.7099299999999998  1.0000
  C   C46       1.0  0.42518  0.38098000000000004  0.81247  1.0000
  P   P2        1.0  0.4162  0.39558  0.97443  1.0000
  O   O4        1.0  0.38091  0.4535200000000001  0.89633  1.0000
  C   C47       1.0  0.34108000000000005  0.2858200000000001  0.08383999999999991  1.0000
  C   C48       1.0  0.35652000000000006  0.28877000000000014  0.23965999999999998  1.0000
  C   C49       1.0  0.30534000000000006  0.20227000000000006  0.3297  1.0000
  C   C50       1.0  0.23723000000000005  0.11275000000000002  0.26383  1.0000
  C   C51       1.0  0.22171  0.11098000000000001  0.10698000000000008  1.0000
  C   C52       1.0  0.27117  0.19768  0.015419999999999988  1.0000
  C   C53       1.0  0.52764  0.4820200000000001  0.09471999999999992  1.0000
  C   C54       1.0  0.57409  0.44730000000000014  0.19927000000000006  1.0000
  C   C55       1.0  0.6642300000000001  0.51406  0.26293  1.0000
  C   C56       1.0  0.7087600000000002  0.6162100000000003  0.21831  1.0000
  C   C57       1.0  0.6614600000000003  0.6506600000000002  0.1173900000000001  1.0000
  C   C58       1.0  0.57141  0.58387  0.056910000000000016  1.0000
  C   C59       1.0  0.41183  0.29619  0.8194599999999997  1.0000
  C   C60       1.0  0.44674000000000014  0.2976700000000001  0.73255  1.0000
  C   C61       1.0  0.64936  0.30116  0.7801  1.0000
  C   C62       1.0  0.6963000000000001  0.26790000000000014  0.82945  1.0000
  I   I4        1.0  0.6282999999999999  0.11412  0.8516999999999999  1.0000
  H   H21       1.0  0.87143  0.36058  0.72235  1.0000
  H   H22       1.0  0.78728  0.22752  0.75148  1.0000
  H   H23       1.0  0.8165400000000002  0.5492900000000002  0.77595  1.0000
  H   H24       1.0  0.68748  0.52173  0.70566  1.0000
  H   H25       1.0  0.63439  0.4201  0.84399  1.0000
  H   H26       1.0  0.52847  0.32547  0.56624  1.0000
  H   H27       1.0  0.5698200000000002  0.4495600000000001  0.4836500000000001  1.0000
  H   H28       1.0  0.54479  0.53574  0.55604  1.0000
  H   H29       1.0  0.48275  0.53258  0.70749  1.0000
  H   H30       1.0  0.41023  0.35699  0.29298  1.0000
  H   H31       1.0  0.3213700000000001  0.20382  0.45308  1.0000
  H   H32       1.0  0.17639  0.041740000000000006  0.05935000000000001  1.0000
  H   H33       1.0  0.25786000000000003  0.19468000000000002  0.89441  1.0000
  H   H34       1.0  0.54094  0.3686500000000001  0.2259500000000001  1.0000
  H   H35       1.0  0.6994000000000001  0.4858800000000001  0.3416  1.0000
  H   H36       1.0  0.6943300000000001  0.7292200000000001  0.08240000000000003  1.0000
  H   H37       1.0  0.53694  0.61199  0.9728800000000001  1.0000
  H   H38       1.0  0.3820700000000001  0.2321700000000001  0.90331  1.0000
  H   H39       1.0  0.44153  0.23411  0.7486499999999999  1.0000
  H   H40       1.0  0.5803  0.24718000000000004  0.76384  1.0000
