data_image0
_chemical_formula_structural       Mn5CN8C2N8CN16Cl2C33H19C29H19
_chemical_formula_sum              "Mn5 C66 N32 Cl2 H38"
_cell_length_a       21.6339
_cell_length_b       19.436299999999996
_cell_length_c       9.6407
_cell_angle_alpha    62.24360000000001
_cell_angle_beta     112.9627
_cell_angle_gamma    136.6066

_symmetry_space_group_name_H-M    'P 1'
_symmetry_Int_Tables_number       1

loop_
  _symmetry_equiv_pos_as_xyz
  'x,y,z'

loop_
  _atom_site_type_symbol
  _atom_site_label
  _atom_site_symmetry_multiplicity
  _atom_site_fract_x
  _atom_site_fract_y
  _atom_site_fract_z
  _atom_site_occupancy
  Mn  Mn1       1.0  0.8051999999999999  0.12047000000000008  0.7924399999999998  1.0000
  Mn  Mn2       1.0  0.021719999999999743  0.21634999999999996  0.87867  1.0000
  Mn  Mn3       1.0  0.24270000000000008  0.9091000000000001  0.6119699999999999  1.0000
  Mn  Mn4       1.0  0.04294999999999985  0.84867  0.56734  1.0000
  Mn  Mn5       1.0  0.034289999999999994  0.03776000000000001  0.23044999999999996  1.0000
  C   C1        1.0  0.91946  0.3280100000000001  0.87025  1.0000
  N   N1        1.0  0.9121599999999999  0.2575  0.85297  1.0000
  N   N2        1.0  0.9955899999999999  0.2961  0.87938  1.0000
  N   N3        1.0  0.05294999999999987  0.3873400000000001  0.90835  1.0000
  N   N4        1.0  0.006450000000000038  0.4085  0.90577  1.0000
  N   N5        1.0  0.15956000000000006  0.34551000000000004  0.08795  1.0000
  N   N6        1.0  0.11744000000000007  0.2588700000000001  0.06156  1.0000
  N   N7        1.0  0.12308999999999999  0.19564000000000004  0.19189  1.0000
  N   N8        1.0  0.16627999999999998  0.2396  0.30781  1.0000
  C   C2        1.0  0.18940000000000004  0.33341000000000004  0.24019  1.0000
  C   C3        1.0  0.036659999999999984  0.0491  0.79099  1.0000
  N   N9        1.0  0.039239999999999935  0.13179  0.87661  1.0000
  N   N10       1.0  0.040519999999999674  0.12835  0.74505  1.0000
  N   N11       1.0  0.9341299999999999  0.04179000000000001  0.17009  1.0000
  N   N12       1.0  0.92428  0.0896  0.02419  1.0000
  N   N13       1.0  0.8394099999999999  0.04456999999999999  0.98416  1.0000
  N   N14       1.0  0.7904499999999999  0.96405  0.10329  1.0000
  N   N15       1.0  0.03364999999999996  0.058120000000000005  0.99874  1.0000
  N   N16       1.0  0.03270999999999998  0.003960000000000013  0.9493599999999999  1.0000
  C   C4        1.0  0.85204  0.9732600000000002  0.22618  1.0000
  N   N17       1.0  0.12275999999999995  0.77647  0.56193  1.0000
  N   N18       1.0  0.04606000000000007  0.7516800000000001  0.54964  1.0000
  N   N19       1.0  0.9769199999999999  0.65652  0.53292  1.0000
  N   N20       1.0  0.008359999999999979  0.61852  0.53038  1.0000
  N   N21       1.0  0.8653299999999998  0.7155  0.39786  1.0000
  N   N22       1.0  0.9406099999999998  0.8123400000000002  0.39869  1.0000
  N   N23       1.0  0.94076  0.8798100000000001  0.26987  1.0000
  N   N24       1.0  0.86575  0.829  0.17858  1.0000
  N   N25       1.0  0.03710999999999996  0.06376  0.5216  1.0000
  N   N26       1.0  0.03839999999999999  0.014309999999999996  0.46536  1.0000
  N   N27       1.0  0.04333999999999999  0.9468500000000001  0.58461  1.0000
  N   N28       1.0  0.044200000000000045  0.9484500000000001  0.72064  1.0000
  N   N29       1.0  0.13481999999999997  0.03622999999999999  0.28675  1.0000
  N   N30       1.0  0.13505000000000003  0.96665  0.41008  1.0000
  N   N31       1.0  0.21024  0.98758  0.4261  1.0000
  N   N32       1.0  0.26058999999999993  0.06862000000000003  0.31043  1.0000
  Cl  Cl1       1.0  0.9095099999999998  0.16558000000000003  0.67951  1.0000
  Cl  Cl2       1.0  0.16383000000000006  0.8924700000000001  0.74769  1.0000
  C   C5        1.0  0.09936999999999993  0.6937300000000001  0.54887  1.0000
  C   C6        1.0  0.8196699999999998  0.72716  0.26105  1.0000
  C   C7        1.0  0.04076  0.02173999999999998  0.6797  1.0000
  C   C8        1.0  0.21255  0.09758999999999998  0.2224  1.0000
  C   C9        1.0  0.20959999999999998  0.39584  0.32291  1.0000
  C   C10       1.0  0.29584000000000005  0.46210000000000007  0.39587  1.0000
  C   C11       1.0  0.32512999999999986  0.54849  0.41975  1.0000
  C   C12       1.0  0.2698499999999998  0.5724399999999998  0.36453  1.0000
  C   C13       1.0  0.30756  0.68056  0.34347  1.0000
  C   C14       1.0  0.2639900000000001  0.6831500000000003  0.43149  1.0000
  C   C15       1.0  0.18923  0.59203  0.51997  1.0000
  C   C16       1.0  0.1374100000000001  0.5962400000000001  0.56283  1.0000
  C   C17       1.0  0.16170000000000018  0.6918700000000001  0.52626  1.0000
  C   C18       1.0  0.24045000000000008  0.7841100000000001  0.4502399999999999  1.0000
  C   C19       1.0  0.2898799999999999  0.77938  0.4010499999999999  1.0000
  C   C20       1.0  0.41071999999999986  0.76294  0.35554  1.0000
  C   C21       1.0  0.4549299999999999  0.79562  0.23466  1.0000
  C   C22       1.0  0.5483899999999999  0.8610800000000001  0.24744000000000002  1.0000
  C   C23       1.0  0.60073  0.89826  0.37935  1.0000
  C   C24       1.0  0.69803  0.9539  0.39737  1.0000
  C   C25       1.0  0.75132  0.04177999999999994  0.27336  1.0000
  C   C26       1.0  0.8295499999999999  0.07289999999999996  0.25085  1.0000
  C   C27       1.0  0.8434599999999998  0.001600000000000048  0.33205  1.0000
  C   C28       1.0  0.80212  0.9266500000000002  0.47251999999999994  1.0000
  C   C29       1.0  0.8317199999999998  0.87433  0.57766  1.0000
  C   C30       1.0  0.8042099999999998  0.81618  0.72905  1.0000
  C   C31       1.0  0.73508  0.7951600000000001  0.76801  1.0000
  C   C32       1.0  0.69474  0.83382  0.65584  1.0000
  C   C33       1.0  0.73117  0.90524  0.5099599999999999  1.0000
  C   C34       1.0  0.5579300000000001  0.8736100000000002  0.4942599999999999  1.0000
  C   C35       1.0  0.4634199999999999  0.80392  0.485  1.0000
  C   C36       1.0  0.18043  0.49931000000000003  0.3053599999999999  1.0000
  C   C37       1.0  0.14928  0.40946  0.29109  1.0000
  H   H1        1.0  0.34367  0.45389  0.41961  1.0000
  H   H2        1.0  0.39391  0.601  0.46882  1.0000
  H   H3        1.0  0.28768000000000005  0.7061100000000001  0.21814  1.0000
  H   H4        1.0  0.1664799999999999  0.5164199999999999  0.54715  1.0000
  H   H5        1.0  0.07582000000000003  0.52399  0.61789  1.0000
  H   H6        1.0  0.2596400000000002  0.8588000000000001  0.41742  1.0000
  H   H7        1.0  0.3459999999999999  0.8510000000000001  0.33098  1.0000
  H   H8        1.0  0.41623  0.76566  0.13358  1.0000
  H   H9        1.0  0.57968  0.87937  0.15676  1.0000
  H   H10       1.0  0.7261500000000001  0.07850000000000024  0.18646999999999994  1.0000
  H   H11       1.0  0.8636199999999999  0.13475000000000006  0.14472  1.0000
  H   H12       1.0  0.88143  0.8849100000000001  0.54764  1.0000
  H   H13       1.0  0.8382499999999996  0.7897300000000002  0.8151999999999998  1.0000
  H   H14       1.0  0.7116300000000001  0.7484000000000002  0.88447  1.0000
  H   H15       1.0  0.6392200000000001  0.8119400000000003  0.6896999999999998  1.0000
  H   H16       1.0  0.59717  0.90472  0.5942599999999999  1.0000
  H   H17       1.0  0.43186999999999987  0.78068  0.58041  1.0000
  H   H18       1.0  0.13558  0.5139  0.26364  1.0000
  H   H19       1.0  0.08041000000000004  0.3560900000000001  0.24034  1.0000
  C   C38       1.0  0.73617  0.63905  0.20161  1.0000
  C   C39       1.0  0.7388600000000001  0.6216700000000002  0.0800099999999999  1.0000
  C   C40       1.0  0.66233  0.53406  0.028299999999999992  1.0000
  C   C41       1.0  0.5847  0.45417000000000013  0.11218  1.0000
  C   C42       1.0  0.51121  0.3458100000000001  0.08601  1.0000
  C   C43       1.0  0.42193  0.31834  0.00264  1.0000
  C   C44       1.0  0.39241  0.35309  0.03922999999999999  1.0000
  C   C45       1.0  0.30372999999999994  0.28243  0.07824  1.0000
  C   C46       1.0  0.2434  0.17966  0.07104  1.0000
  C   C47       1.0  0.26346  0.16234  0.9749300000000001  1.0000
  C   C48       1.0  0.35390999999999995  0.22607000000000008  0.95446  1.0000
  C   C49       1.0  0.55231  0.32212  0.03684  1.0000
  C   C50       1.0  0.6173  0.31997  0.14569  1.0000
  C   C51       1.0  0.6725499999999999  0.32156  0.10252  1.0000
  C   C52       1.0  0.65854  0.31279  0.9537599999999999  1.0000
  C   C53       1.0  0.7191099999999998  0.31169  0.91545  1.0000
  C   C54       1.0  0.7541299999999997  0.2697300000000001  0.04234  1.0000
  C   C55       1.0  0.8200299999999998  0.27824  0.02472  1.0000
  C   C56       1.0  0.84406  0.31367  0.87679  1.0000
  C   C57       1.0  0.8053899999999998  0.34797999999999996  0.74356  1.0000
  C   C58       1.0  0.82769  0.3817600000000001  0.59225  1.0000
  C   C59       1.0  0.7979999999999998  0.4267000000000001  0.46184999999999987  1.0000
  C   C60       1.0  0.74898  0.44213  0.4811599999999999  1.0000
  C   C61       1.0  0.7259699999999999  0.4096300000000001  0.62958  1.0000
  C   C62       1.0  0.74782  0.35491  0.76276  1.0000
  C   C63       1.0  0.58645  0.3033200000000001  0.8498099999999997  1.0000
  C   C64       1.0  0.5389299999999999  0.31634000000000007  0.8859199999999998  1.0000
  C   C65       1.0  0.58374  0.46986  0.24019  1.0000
  C   C66       1.0  0.65754  0.5634700000000002  0.28034  1.0000
  H   H20       1.0  0.80201  0.6719800000000001  0.03319000000000005  1.0000
  H   H21       1.0  0.66736  0.52453  0.93227  1.0000
  H   H22       1.0  0.49024999999999996  0.2894200000000001  0.20535  1.0000
  H   H23       1.0  0.43992  0.4261500000000001  0.06805  1.0000
  H   H24       1.0  0.29040999999999995  0.30150000000000005  0.14589  1.0000
  H   H25       1.0  0.21552999999999994  0.08585000000000002  0.95631  1.0000
  H   H26       1.0  0.36955  0.1933  0.92442  1.0000
  H   H27       1.0  0.62992  0.32526  0.26206  1.0000
  H   H28       1.0  0.72742  0.33132  0.18723  1.0000
  H   H29       1.0  0.73285  0.23190000000000002  0.15973  1.0000
  H   H30       1.0  0.8528299999999999  0.25662  0.12862  1.0000
  H   H31       1.0  0.8694099999999999  0.37527  0.57406  1.0000
  H   H32       1.0  0.8162299999999999  0.45369000000000004  0.34605  1.0000
  H   H33       1.0  0.72895  0.47972  0.37988  1.0000
  H   H34       1.0  0.69426  0.43174  0.63723  1.0000
  H   H35       1.0  0.5674599999999999  0.28805000000000003  0.7391199999999998  1.0000
  H   H36       1.0  0.4930599999999999  0.32315  0.7948199999999997  1.0000
  H   H37       1.0  0.52676  0.40845000000000004  0.31155  1.0000
  H   H38       1.0  0.65568  0.57314  0.38011  1.0000
