data_image0
_chemical_formula_structural       Mn5CN8C2N8CN16Cl2C7FCFC6SC4SC4SCFCFH7C3FCFC6SC4SC4SCFCFH7
_chemical_formula_sum              "Mn5 C48 N32 Cl2 F8 S6 H14"
_cell_length_a       19.8466
_cell_length_b       16.44
_cell_length_c       9.591900000000003
_cell_angle_alpha    59.391000000000005
_cell_angle_beta     117.2309
_cell_angle_gamma    135.1787

_symmetry_space_group_name_H-M    'P 1'
_symmetry_Int_Tables_number       1

loop_
  _symmetry_equiv_pos_as_xyz
  'x,y,z'

loop_
  _atom_site_type_symbol
  _atom_site_label
  _atom_site_symmetry_multiplicity
  _atom_site_fract_x
  _atom_site_fract_y
  _atom_site_fract_z
  _atom_site_occupancy
  Mn  Mn1       1.0  0.7920399999999999  0.18666999999999997  0.74311  1.0000
  Mn  Mn2       1.0  0.016189999999999673  0.25231999999999993  0.86014  1.0000
  Mn  Mn3       1.0  0.22049999999999992  0.8198099999999999  0.70811  1.0000
  Mn  Mn4       1.0  0.003670000000000083  0.7704100000000002  0.56812  1.0000
  Mn  Mn5       1.0  0.015490000000000004  0.013320000000000005  0.21107  1.0000
  C   C1        1.0  0.9204999999999999  0.39071  0.9009700000000002  1.0000
  N   N1        1.0  0.9092499999999999  0.32002  0.84686  1.0000
  N   N2        1.0  0.9962000000000001  0.35107999999999995  0.88068  1.0000
  N   N3        1.0  0.059610000000000156  0.4394700000000001  0.94906  1.0000
  N   N4        1.0  0.014540000000000018  0.46737  0.9614000000000001  1.0000
  N   N5        1.0  0.1802899999999999  0.3791799999999999  0.09909000000000003  1.0000
  N   N6        1.0  0.11709  0.27665  0.06291  1.0000
  N   N7        1.0  0.11548999999999998  0.19048000000000004  0.19255  1.0000
  N   N8        1.0  0.17592999999999998  0.23388000000000003  0.31855  1.0000
  C   C2        1.0  0.21688999999999997  0.35209  0.25798  1.0000
  C   C3        1.0  0.01729000000000004  0.03829  0.76271  1.0000
  N   N9        1.0  0.025789999999999997  0.14104000000000005  0.84853  1.0000
  N   N10       1.0  0.02214000000000004  0.13525999999999996  0.71231  1.0000
  N   N11       1.0  0.90732  0.025050000000000024  0.12048  1.0000
  N   N12       1.0  0.90604  0.10572999999999996  0.9841100000000002  1.0000
  N   N13       1.0  0.8199299999999999  0.07824999999999992  0.93784  1.0000
  N   N14       1.0  0.76252  0.98082  0.04607  1.0000
  N   N15       1.0  0.022779999999999807  0.05186  0.97578  1.0000
  N   N16       1.0  0.016739999999999963  0.98488  0.92605  1.0000
  C   C4        1.0  0.81759  0.94745  0.15989  1.0000
  N   N17       1.0  0.09923999999999993  0.6799999999999999  0.61921  1.0000
  N   N18       1.0  0.01581999999999998  0.65984  0.56528  1.0000
  N   N19       1.0  0.95279  0.57221  0.49552999999999997  1.0000
  N   N20       1.0  0.9949499999999999  0.53303  0.50432  1.0000
  N   N21       1.0  0.8197899999999999  0.64187  0.34443  1.0000
  N   N22       1.0  0.90495  0.74668  0.3612  1.0000
  N   N23       1.0  0.9130299999999999  0.835  0.22742  1.0000
  N   N24       1.0  0.83407  0.79067  0.11699  1.0000
  N   N25       1.0  0.016269999999999993  0.04887  0.49181  1.0000
  N   N26       1.0  0.009140000000000117  0.9796500000000001  0.44457  1.0000
  N   N27       1.0  0.00018000000000001308  0.88776  0.57168  1.0000
  N   N28       1.0  0.0016000000000000666  0.8936200000000001  0.7055  1.0000
  N   N29       1.0  0.12208000000000002  0.99643  0.30706  1.0000
  N   N30       1.0  0.11547000000000002  0.9089699999999997  0.4417500000000001  1.0000
  N   N31       1.0  0.19841999999999999  0.92771  0.49722  1.0000
  N   N32       1.0  0.26231  0.02664000000000001  0.40006  1.0000
  Cl  Cl1       1.0  0.9006200000000001  0.22944  0.63972  1.0000
  Cl  Cl2       1.0  0.11826000000000005  0.79764  0.7965  1.0000
  C   C5        1.0  0.08643999999999993  0.60175  0.58088  1.0000
  C   C6        1.0  0.7770199999999999  0.67065  0.19108000000000006  1.0000
  C   C7        1.0  0.011209999999999864  0.9940199999999999  0.65393  1.0000
  C   C8        1.0  0.21499000000000004  0.07009000000000001  0.28217  1.0000
  C   C9        1.0  0.79083  0.86171  0.32682  1.0000
  C   C10       1.0  0.79585  0.9144  0.42679  1.0000
  C   C11       1.0  0.7526599999999999  0.83701  0.56927  1.0000
  F   F1        1.0  0.72508  0.72378  0.63501  1.0000
  C   C12       1.0  0.72789  0.8717700000000002  0.63272  1.0000
  F   F2        1.0  0.6791199999999998  0.7924399999999998  0.76239  1.0000
  C   C13       1.0  0.73633  0.97769  0.5418700000000001  1.0000
  C   C14       1.0  0.66969  0.9882299999999999  0.55441  1.0000
  C   C15       1.0  0.5651099999999999  0.8835699999999997  0.51568  1.0000
  C   C16       1.0  0.49083  0.84758  0.56824  1.0000
  C   C17       1.0  0.4061  0.73968  0.54051  1.0000
  C   C18       1.0  0.3145999999999999  0.67639  0.57125  1.0000
  S   S1        1.0  0.2843899999999998  0.7290299999999997  0.62738  1.0000
  C   C19       1.0  0.16528999999999996  0.60683  0.59231  1.0000
  C   C20       1.0  0.15062000000000003  0.5267100000000001  0.54827  1.0000
  C   C21       1.0  0.23676  0.5676  0.5353  1.0000
  C   C22       1.0  0.24993999999999988  0.5184599999999999  0.47526  1.0000
  S   S2        1.0  0.16214000000000003  0.38645  0.4260000000000001  1.0000
  C   C23       1.0  0.24796  0.41886  0.3593900000000001  1.0000
  C   C24       1.0  0.33901  0.52705  0.37158  1.0000
  C   C25       1.0  0.33972  0.58352  0.43984  1.0000
  C   C26       1.0  0.41740999999999995  0.6960699999999999  0.4684  1.0000
  S   S3        1.0  0.52916  0.78974  0.42046  1.0000
  C   C27       1.0  0.79538  0.06328  0.41994  1.0000
  F   F3        1.0  0.81576  0.17275  0.34165  1.0000
  C   C28       1.0  0.83126  0.03498000000000001  0.3723  1.0000
  F   F4        1.0  0.89669  0.12483000000000001  0.26803  1.0000
  H   H1        1.0  0.71468  0.78084  0.30676  1.0000
  H   H2        1.0  0.83284  0.82833  0.39581  1.0000
  H   H3        1.0  0.68182  0.07447999999999999  0.4680200000000001  1.0000
  H   H4        1.0  0.6844600000000001  0.9873999999999999  0.68143  1.0000
  H   H5        1.0  0.49951  0.89524  0.62932  1.0000
  H   H6        1.0  0.08041000000000001  0.44855000000000006  0.5143  1.0000
  H   H7        1.0  0.3998300000000001  0.5638600000000002  0.32747  1.0000
  C   C29       1.0  0.84405  0.38967000000000007  0.9008900000000001  1.0000
  C   C30       1.0  0.7397499999999999  0.2961599999999999  0.8379  1.0000
  C   C31       1.0  0.70841  0.3146400000000001  0.66779  1.0000
  F   F5        1.0  0.77286  0.38848000000000005  0.56428  1.0000
  C   C32       1.0  0.61236  0.26987999999999995  0.6017700000000002  1.0000
  F   F6        1.0  0.5866499999999998  0.30012999999999995  0.43637  1.0000
  C   C33       1.0  0.54637  0.20473000000000005  0.7057599999999999  1.0000
  C   C34       1.0  0.45654000000000006  0.19583999999999996  0.64027  1.0000
  C   C35       1.0  0.46264  0.26425000000000004  0.71287  1.0000
  C   C36       1.0  0.38623999999999997  0.21744000000000002  0.7732600000000001  1.0000
  C   C37       1.0  0.41538000000000014  0.2883100000000001  0.85625  1.0000
  C   C38       1.0  0.36151999999999995  0.26083000000000006  0.95185  1.0000
  S   S4        1.0  0.24646  0.13178999999999996  0.9835200000000001  1.0000
  C   C39       1.0  0.2587599999999999  0.1693  0.13629  1.0000
  C   C40       1.0  0.34737  0.27983  0.15541  1.0000
  C   C41       1.0  0.40675  0.33115  0.05168  1.0000
  C   C42       1.0  0.50676  0.42962000000000006  0.05816  1.0000
  S   S5        1.0  0.57743  0.51237  0.19429999999999992  1.0000
  C   C43       1.0  0.67743  0.58373  0.11961  1.0000
  C   C44       1.0  0.65676  0.5468500000000001  0.9944200000000001  1.0000
  C   C45       1.0  0.55891  0.4578  0.9601999999999999  1.0000
  C   C46       1.0  0.5128399999999999  0.3877999999999999  0.85694  1.0000
  S   S6        1.0  0.56925  0.40021  0.7478000000000001  1.0000
  C   C47       1.0  0.57259  0.16491999999999998  0.8757  1.0000
  F   F7        1.0  0.50816  0.09511999999999997  0.97849  1.0000
  C   C48       1.0  0.66904  0.21222  0.94184  1.0000
  F   F8        1.0  0.69459  0.19001000000000004  0.10644  1.0000
  H   H8        1.0  0.86335  0.48043000000000013  0.82614  1.0000
  H   H9        1.0  0.85046  0.38025000000000003  0.02876  1.0000
  H   H10       1.0  0.39186999999999994  0.09934000000000003  0.66952  1.0000
  H   H11       1.0  0.44811  0.23499000000000006  0.50512  1.0000
  H   H12       1.0  0.31507  0.13132  0.7669600000000001  1.0000
  H   H13       1.0  0.37185  0.31223000000000006  0.2557799999999999  1.0000
  H   H14       1.0  0.71123  0.57923  0.9379800000000001  1.0000
