data_image0
_chemical_formula_structural       Mn5CN8C2N8CN16Cl2C7FCFC2NC4NC4NC5FCFH10C3FCFC2NC4NC4NC5FCFH10
_chemical_formula_sum              "Mn5 C48 N38 Cl2 F8 H20"
_cell_length_a       19.2352
_cell_length_b       17.6252
_cell_length_c       9.656
_cell_angle_alpha    67.5603
_cell_angle_beta     113.9474
_cell_angle_gamma    136.2997

_symmetry_space_group_name_H-M    'P 1'
_symmetry_Int_Tables_number       1

loop_
  _symmetry_equiv_pos_as_xyz
  'x,y,z'

loop_
  _atom_site_type_symbol
  _atom_site_label
  _atom_site_symmetry_multiplicity
  _atom_site_fract_x
  _atom_site_fract_y
  _atom_site_fract_z
  _atom_site_occupancy
  Mn  Mn1       1.0  0.80794  0.16091  0.77406  1.0000
  Mn  Mn2       1.0  0.047870000000000065  0.24851999999999996  0.91328  1.0000
  Mn  Mn3       1.0  0.27370999999999995  0.89928  0.59867  1.0000
  Mn  Mn4       1.0  0.04719999999999999  0.83979  0.50939  1.0000
  Mn  Mn5       1.0  0.04866999999999999  0.04710999999999999  0.21893  1.0000
  C   C1        1.0  0.94276  0.39659999999999995  0.8165699999999999  1.0000
  N   N1        1.0  0.92833  0.30485  0.86084  1.0000
  N   N2        1.0  0.020140000000000012  0.3374199999999999  0.9241399999999999  1.0000
  N   N3        1.0  0.08963999999999989  0.44584  0.9254499999999999  1.0000
  N   N4        1.0  0.04350999999999972  0.48506999999999995  0.8598499999999999  1.0000
  N   N5        1.0  0.1952  0.37406  0.17064  1.0000
  N   N6        1.0  0.14752999999999997  0.28509999999999996  0.11615999999999999  1.0000
  N   N7        1.0  0.15108999999999997  0.21412  0.22737  1.0000
  N   N8        1.0  0.20227999999999993  0.25661  0.3577  1.0000
  C   C2        1.0  0.23051999999999995  0.35676  0.32004  1.0000
  C   C3        1.0  0.061509999999999995  0.06818999999999999  0.78624  1.0000
  N   N9        1.0  0.06735000000000003  0.15729000000000004  0.8926  1.0000
  N   N10       1.0  0.06841999999999993  0.15377  0.75943  1.0000
  N   N11       1.0  0.93075  0.04614  0.13987  1.0000
  N   N12       1.0  0.9318999999999998  0.11588999999999999  0.01978  1.0000
  N   N13       1.0  0.8417299999999999  0.08672000000000002  0.9709699999999999  1.0000
  N   N14       1.0  0.7777199999999999  0.9979799999999999  0.05861999999999999  1.0000
  N   N15       1.0  0.05881000000000003  0.07740999999999999  0.9967399999999998  1.0000
  N   N16       1.0  0.05513999999999998  0.019010000000000003  0.9340499999999999  1.0000
  C   C4        1.0  0.83333  0.97331  0.16502999999999995  1.0000
  N   N17       1.0  0.13914999999999986  0.7631099999999997  0.50204  1.0000
  N   N18       1.0  0.05389999999999986  0.7440299999999997  0.45993999999999996  1.0000
  N   N19       1.0  0.97968  0.65792  0.3837  1.0000
  N   N20       1.0  0.014989999999999972  0.61658  0.37885999999999986  1.0000
  N   N21       1.0  0.8456799999999999  0.70689  0.30072999999999994  1.0000
  N   N22       1.0  0.9369999999999999  0.80714  0.3233699999999999  1.0000
  N   N23       1.0  0.94378  0.88221  0.20921  1.0000
  N   N24       1.0  0.8571699999999999  0.83327  0.10616999999999997  1.0000
  N   N25       1.0  0.04598999999999996  0.07092  0.5139199999999998  1.0000
  N   N26       1.0  0.041269999999999994  0.01406  0.44627  1.0000
  N   N27       1.0  0.04612999999999991  0.9421299999999999  0.55169  1.0000
  N   N28       1.0  0.054809999999999935  0.94996  0.6897399999999998  1.0000
  N   N29       1.0  0.16477  0.047539999999999985  0.29281  1.0000
  N   N30       1.0  0.16000999999999993  0.96957  0.3962  1.0000
  N   N31       1.0  0.24624000000000004  0.99174  0.4278799999999999  1.0000
  N   N32       1.0  0.31038  0.08393000000000002  0.34276999999999996  1.0000
  Cl  Cl1       1.0  0.92769  0.20048  0.69185  1.0000
  Cl  Cl2       1.0  0.17591000000000004  0.8759600000000001  0.71529  1.0000
  C   C5        1.0  0.11407000000000007  0.6824199999999999  0.45354  1.0000
  C   C6        1.0  0.7973299999999998  0.7252699999999997  0.16515999999999997  1.0000
  C   C7        1.0  0.054529999999999995  0.03026  0.66486  1.0000
  C   C8        1.0  0.25873  0.11787999999999997  0.25904  1.0000
  C   C9        1.0  0.7842000000000001  0.86997  0.27934999999999993  1.0000
  C   C10       1.0  0.75846  0.87774  0.3985399999999999  1.0000
  C   C11       1.0  0.79684  0.85997  0.55372  1.0000
  F   F1        1.0  0.84514  0.82244  0.59803  1.0000
  C   C12       1.0  0.77959  0.87288  0.66597  1.0000
  F   F2        1.0  0.82253  0.8605  0.8127099999999998  1.0000
  C   C13       1.0  0.71526  0.8931100000000001  0.6278399999999997  1.0000
  C   C14       1.0  0.67997  0.88394  0.75172  1.0000
  N   N33       1.0  0.57015  0.78631  0.74305  1.0000
  C   C15       1.0  0.52178  0.68602  0.71559  1.0000
  C   C16       1.0  0.41753999999999986  0.6234299999999998  0.67836  1.0000
  C   C17       1.0  0.3351  0.527  0.5931599999999998  1.0000
  C   C18       1.0  0.33896  0.47072  0.53247  1.0000
  N   N34       1.0  0.25112  0.41132999999999986  0.42809  1.0000
  C   C19       1.0  0.19257999999999997  0.43023999999999996  0.42014  1.0000
  C   C20       1.0  0.24255999999999991  0.50088  0.5223899999999998  1.0000
  C   C21       1.0  0.2259199999999999  0.5679999999999998  0.5335799999999999  1.0000
  C   C22       1.0  0.14806000000000002  0.5686  0.46336  1.0000
  N   N35       1.0  0.17655999999999997  0.6565699999999999  0.49846999999999997  1.0000
  C   C23       1.0  0.2716599999999999  0.7123199999999997  0.58859  1.0000
  C   C24       1.0  0.30317999999999984  0.6579999999999999  0.61239  1.0000
  C   C25       1.0  0.4024099999999998  0.6874399999999999  0.68601  1.0000
  C   C26       1.0  0.4976799999999998  0.78764  0.7259799999999997  1.0000
  C   C27       1.0  0.6708199999999997  0.9038099999999998  0.47354  1.0000
  F   F3        1.0  0.60287  0.9161  0.43434  1.0000
  C   C28       1.0  0.69142  0.8952899999999999  0.3595899999999999  1.0000
  F   F4        1.0  0.6389199999999999  0.8946099999999999  0.21413999999999994  1.0000
  H   H1        1.0  0.7121799999999999  0.79875  0.21769  1.0000
  H   H2        1.0  0.8358999999999999  0.8541399999999999  0.3352999999999999  1.0000
  H   H3        1.0  0.72197  0.8756  0.86708  1.0000
  H   H4        1.0  0.6955699999999999  0.9606199999999999  0.73672  1.0000
  H   H5        1.0  0.5600199999999999  0.6661699999999999  0.7016699999999999  1.0000
  H   H6        1.0  0.40483  0.48120999999999997  0.55122  1.0000
  H   H7        1.0  0.12213999999999994  0.40149999999999997  0.33684  1.0000
  H   H8        1.0  0.07629999999999999  0.50999  0.3904499999999999  1.0000
  H   H9        1.0  0.3152399999999999  0.78758  0.63236  1.0000
  H   H10       1.0  0.51353  0.86054  0.72537  1.0000
  C   C29       1.0  0.8784699999999999  0.40688  0.6719899999999998  1.0000
  C   C30       1.0  0.7932000000000001  0.38892  0.69093  1.0000
  C   C31       1.0  0.79794  0.47815  0.64498  1.0000
  F   F5        1.0  0.88815  0.58408  0.62666  1.0000
  C   C32       1.0  0.7082399999999998  0.45864  0.6032899999999998  1.0000
  F   F6        1.0  0.71363  0.54505  0.5299399999999997  1.0000
  C   C33       1.0  0.61327  0.35030999999999995  0.62436  1.0000
  C   C34       1.0  0.5150199999999998  0.32881999999999995  0.5650999999999999  1.0000
  N   N36       1.0  0.4993799999999999  0.35546999999999995  0.66959  1.0000
  C   C35       1.0  0.56482  0.4556099999999999  0.71552  1.0000
  C   C36       1.0  0.5248799999999998  0.44865  0.8131699999999997  1.0000
  C   C37       1.0  0.57558  0.52415  0.9194999999999999  1.0000
  C   C38       1.0  0.6774999999999999  0.61632  0.95385  1.0000
  N   N37       1.0  0.69653  0.64037  0.08824999999999994  1.0000
  C   C39       1.0  0.6077  0.56357  0.14112999999999995  1.0000
  C   C40       1.0  0.52977  0.49059999999999987  0.03481000000000001  1.0000
  C   C41       1.0  0.42505  0.37886  0.0436700000000001  1.0000
  C   C42       1.0  0.3711999999999999  0.31586  0.16024  1.0000
  N   N38       1.0  0.29583  0.20816999999999997  0.1370499999999999  1.0000
  C   C43       1.0  0.30147  0.20216999999999993  0.006769999999999943  1.0000
  C   C44       1.0  0.37892  0.3067  0.9447499999999999  1.0000
  C   C45       1.0  0.43176999999999993  0.34235  0.82713  1.0000
  C   C46       1.0  0.4169399999999999  0.28519  0.73663  1.0000
  C   C47       1.0  0.6104500000000002  0.2618400000000001  0.6870899999999999  1.0000
  F   F7        1.0  0.5205699999999999  0.15644  0.7104  1.0000
  C   C48       1.0  0.69942  0.28072  0.71726  1.0000
  F   F8        1.0  0.6925200000000001  0.19280000000000003  0.7621599999999997  1.0000
  H   H11       1.0  0.9306399999999998  0.48948  0.6071099999999999  1.0000
  H   H12       1.0  0.8441399999999998  0.34705  0.5983399999999998  1.0000
  H   H13       1.0  0.52008  0.38141  0.4533499999999999  1.0000
  H   H14       1.0  0.44748  0.24124999999999996  0.54443  1.0000
  H   H15       1.0  0.6390099999999999  0.52818  0.6872499999999998  1.0000
  H   H16       1.0  0.7357999999999998  0.6562999999999998  0.89311  1.0000
  H   H17       1.0  0.60146  0.5578  0.25188  1.0000
  H   H18       1.0  0.39195  0.34436  0.26282  1.0000
  H   H19       1.0  0.26163999999999993  0.12571999999999994  0.9707  1.0000
  H   H20       1.0  0.35268  0.19800999999999996  0.72451  1.0000
