data_image0
_chemical_formula_structural       Mn5CN8C2N8CN16Cl2C15NCNCNC5NCNC5NC10H35C11NCNCNC5NCNC5NC10H35
_chemical_formula_sum              "Mn5 C76 N44 Cl2 H70"
_cell_length_a       24.8267
_cell_length_b       21.0826
_cell_length_c       9.5769
_cell_angle_alpha    65.3788
_cell_angle_beta     114.4648
_cell_angle_gamma    135.4261

_symmetry_space_group_name_H-M    'P 1'
_symmetry_Int_Tables_number       1

loop_
  _symmetry_equiv_pos_as_xyz
  'x,y,z'

loop_
  _atom_site_type_symbol
  _atom_site_label
  _atom_site_symmetry_multiplicity
  _atom_site_fract_x
  _atom_site_fract_y
  _atom_site_fract_z
  _atom_site_occupancy
  Mn  Mn1       1.0  0.8895  0.17547999999999997  0.90835  1.0000
  Mn  Mn2       1.0  0.0552600000000003  0.2032499999999999  0.07078999999999991  1.0000
  Mn  Mn3       1.0  0.13522999999999988  0.8154199999999999  0.7848799999999998  1.0000
  Mn  Mn4       1.0  0.9791699999999998  0.8074099999999997  0.6674199999999999  1.0000
  Mn  Mn5       1.0  0.021759999999999995  0.014869999999999984  0.39029  1.0000
  C   C1        1.0  0.017999999999999933  0.3764599999999999  0.9628099999999998  1.0000
  N   N1        1.0  0.99329  0.29163  0.98841  1.0000
  N   N2        1.0  0.05542  0.2997399999999999  0.06375  1.0000
  N   N3        1.0  0.11715000000000006  0.38690999999999987  0.07982  1.0000
  N   N4        1.0  0.09482999999999976  0.43600999999999995  0.02236  1.0000
  N   N5        1.0  0.17092  0.29402  0.343  1.0000
  N   N6        1.0  0.12389999999999993  0.21758999999999995  0.28819  1.0000
  N   N7        1.0  0.1148  0.14951  0.40391  1.0000
  N   N8        1.0  0.15541  0.18011  0.53711  1.0000
  C   C2        1.0  0.19074  0.27033  0.49726  1.0000
  C   C3        1.0  0.022319999999999958  0.01657000000000002  0.9578299999999998  1.0000
  N   N9        1.0  0.050440000000000026  0.10936999999999997  0.06031999999999993  1.0000
  N   N10       1.0  0.04418999999999996  0.09900000000000002  0.92683  1.0000
  N   N11       1.0  0.9569099999999997  0.055330000000000004  0.3084099999999999  1.0000
  N   N12       1.0  0.9565699999999998  0.09836  0.16295  1.0000
  N   N13       1.0  0.89591  0.09258  0.11208  1.0000
  N   N14       1.0  0.8608199999999998  0.05435999999999974  0.23081999999999994  1.0000
  N   N15       1.0  0.029140000000000024  0.035140000000000005  0.16728999999999994  1.0000
  N   N16       1.0  0.011279999999999991  0.97419  0.10739999999999994  1.0000
  C   C4        1.0  0.9088499999999999  0.04746999999999968  0.35934  1.0000
  N   N17       1.0  0.03249999999999987  0.7213999999999998  0.6628899999999999  1.0000
  N   N18       1.0  0.9716099999999999  0.7154999999999998  0.62071  1.0000
  N   N19       1.0  0.9120199999999999  0.6463399999999998  0.54411  1.0000
  N   N20       1.0  0.9343699999999997  0.6064899999999998  0.53514  1.0000
  N   N21       1.0  0.84347  0.7354599999999998  0.40366  1.0000
  N   N22       1.0  0.90905  0.8087099999999998  0.4637399999999999  1.0000
  N   N23       1.0  0.9247899999999998  0.88408  0.36646  1.0000
  N   N24       1.0  0.8705499999999998  0.86309  0.23923  1.0000
  N   N25       1.0  0.024809999999999964  0.032389999999999995  0.69108  1.0000
  N   N26       1.0  0.011089999999999985  0.9804799999999999  0.6175199999999998  1.0000
  N   N27       1.0  0.99222  0.9029099999999999  0.71519  1.0000
  N   N28       1.0  0.9923899999999998  0.9016199999999999  0.85476  1.0000
  N   N29       1.0  0.09148999999999992  0.9829899999999999  0.46853999999999996  1.0000
  N   N30       1.0  0.07520999999999989  0.9088799999999999  0.57149  1.0000
  N   N31       1.0  0.13453999999999997  0.9118099999999999  0.61443  1.0000
  N   N32       1.0  0.19118999999999992  0.9864699999999998  0.5372  1.0000
  Cl  Cl1       1.0  0.97425  0.18754999999999997  0.8393  1.0000
  Cl  Cl2       1.0  0.06234999999999988  0.80705  0.89057  1.0000
  C   C5        1.0  0.010149999999999958  0.65486  0.6081099999999998  1.0000
  C   C6        1.0  0.82008  0.7705599999999998  0.26368  1.0000
  C   C7        1.0  0.01209999999999992  0.9824299999999999  0.8368899999999998  1.0000
  C   C8        1.0  0.16367999999999994  0.030639999999999994  0.44521  1.0000
  C   C9        1.0  0.94581  0.11630999999999998  0.45198  1.0000
  C   C10       1.0  0.9174799999999997  0.08112000000000003  0.5871699999999997  1.0000
  C   C11       1.0  0.8554500000000002  0.07394999999999996  0.57676  1.0000
  C   C12       1.0  0.8076399999999998  0.013430000000000056  0.69022  1.0000
  C   C13       1.0  0.7367899999999998  0.9922599999999999  0.66157  1.0000
  C   C14       1.0  0.713  0.030920000000000065  0.51884  1.0000
  C   C15       1.0  0.6353699999999998  0.9947999999999998  0.47286  1.0000
  C   C16       1.0  0.60849  0.023819999999999952  0.32015  1.0000
  C   C17       1.0  0.5218399999999997  0.9648199999999998  0.2497  1.0000
  C   C18       1.0  0.47433999999999976  0.9523799999999998  0.338  1.0000
  C   C19       1.0  0.3870999999999999  0.8899299999999998  0.26499  1.0000
  N   N33       1.0  0.36062999999999984  0.8026899999999998  0.25753999999999994  1.0000
  C   C20       1.0  0.2993299999999999  0.7153499999999998  0.33699  1.0000
  N   N34       1.0  0.2528  0.70938  0.38998  1.0000
  C   C21       1.0  0.1980199999999998  0.6294399999999998  0.47332  1.0000
  N   N35       1.0  0.1555  0.62864  0.54171  1.0000
  C   C22       1.0  0.08014000000000003  0.5426899999999999  0.58644  1.0000
  C   C23       1.0  0.023870000000000027  0.55896  0.55004  1.0000
  C   C24       1.0  0.06328999999999999  0.6395  0.62395  1.0000
  C   C25       1.0  0.13605  0.72693  0.55265  1.0000
  C   C26       1.0  0.19346999999999973  0.7124699999999997  0.5905  1.0000
  N   N36       1.0  0.18933999999999998  0.55358  0.50272  1.0000
  C   C27       1.0  0.2356199999999998  0.5581999999999998  0.4498499999999999  1.0000
  N   N37       1.0  0.2280599999999999  0.4786899999999999  0.48206  1.0000
  C   C28       1.0  0.28526999999999997  0.48846999999999996  0.44187  1.0000
  C   C29       1.0  0.30513999999999997  0.42995  0.56758  1.0000
  C   C30       1.0  0.23257  0.32974  0.61553  1.0000
  C   C31       1.0  0.17683999999999983  0.32696999999999987  0.6557399999999998  1.0000
  C   C32       1.0  0.15673999999999993  0.38494  0.527  1.0000
  N   N38       1.0  0.2904899999999999  0.63966  0.36775999999999986  1.0000
  C   C33       1.0  0.40246999999999994  0.80889  0.17326999999999998  1.0000
  C   C34       1.0  0.4898399999999999  0.8706799999999999  0.24255  1.0000
  C   C35       1.0  0.6627199999999999  0.0993999999999997  0.22256  1.0000
  C   C36       1.0  0.7403499999999997  0.1359399999999997  0.26655  1.0000
  C   C37       1.0  0.7905199999999998  0.19985999999999993  0.15789  1.0000
  C   C38       1.0  0.86202  0.22225000000000003  0.18759  1.0000
  C   C39       1.0  0.8872499999999999  0.18527999999999986  0.33003  1.0000
  C   C40       1.0  0.9500799999999999  0.19078999999999996  0.34976  1.0000
  C   C41       1.0  0.83756  0.12287000000000002  0.44277999999999995  1.0000
  C   C42       1.0  0.7649  0.09936999999999994  0.41219  1.0000
  H   H1        1.0  0.9407099999999999  0.05581000000000001  0.6935999999999999  1.0000
  H   H2        1.0  0.8220399999999998  0.97722  0.79468  1.0000
  H   H3        1.0  0.6979499999999996  0.9398899999999998  0.74533  1.0000
  H   H4        1.0  0.5938999999999999  0.9374299999999998  0.54952  1.0000
  H   H5        1.0  0.5138699999999999  0.9991299999999997  0.12749  1.0000
  H   H6        1.0  0.48139  0.92039  0.46262  1.0000
  H   H7        1.0  0.49495999999999996  0.02040999999999981  0.33286  1.0000
  H   H8        1.0  0.37755  0.92484  0.14447  1.0000
  H   H9        1.0  0.35403  0.87908  0.33514  1.0000
  H   H10       1.0  0.0902299999999999  0.5170599999999997  0.71362  1.0000
  H   H11       1.0  0.05283000000000006  0.4891  0.52344  1.0000
  H   H12       1.0  0.0075999999999999904  0.57559  0.42101  1.0000
  H   H13       1.0  0.9694299999999998  0.4959299999999998  0.59446  1.0000
  H   H14       1.0  0.08189999999999999  0.62281  0.75192  1.0000
  H   H15       1.0  0.16562999999999997  0.7870299999999999  0.6015  1.0000
  H   H16       1.0  0.11950999999999985  0.7429099999999997  0.42373  1.0000
  H   H17       1.0  0.21621000000000004  0.70619  0.71845  1.0000
  H   H18       1.0  0.2439399999999997  0.7749999999999998  0.5318399999999998  1.0000
  H   H19       1.0  0.34089  0.56089  0.43157  1.0000
  H   H20       1.0  0.26212999999999986  0.4691399999999999  0.32634  1.0000
  H   H21       1.0  0.34093  0.46141  0.67393  1.0000
  H   H22       1.0  0.34144  0.43115  0.52512  1.0000
  H   H23       1.0  0.25367999999999996  0.2994999999999999  0.7244899999999999  1.0000
  H   H24       1.0  0.20528999999999992  0.35421999999999987  0.76556  1.0000
  H   H25       1.0  0.12198999999999996  0.25477999999999995  0.6794799999999998  1.0000
  H   H26       1.0  0.12277999999999989  0.3857099999999999  0.57235  1.0000
  H   H27       1.0  0.11888999999999984  0.3523099999999999  0.42209  1.0000
  H   H28       1.0  0.38057999999999986  0.74017  0.17835  1.0000
  H   H29       1.0  0.3933699999999999  0.8388099999999997  0.04789  1.0000
  H   H30       1.0  0.5217499999999998  0.8816999999999998  0.169  1.0000
  H   H31       1.0  0.49863999999999986  0.8341999999999998  0.3611  1.0000
  H   H32       1.0  0.64277  0.12341  0.10567999999999997  1.0000
  H   H33       1.0  0.7704499999999996  0.22555999999999973  0.043469999999999995  1.0000
  H   H34       1.0  0.8883199999999998  0.25556  0.08922999999999999  1.0000
  H   H35       1.0  0.96994  0.21147  0.24534  1.0000
  C   C43       1.0  0.96602  0.3969599999999999  0.89817  1.0000
  C   C44       1.0  0.8965  0.34498  0.7928  1.0000
  C   C45       1.0  0.83621  0.34455  0.7647  1.0000
  C   C46       1.0  0.7639799999999999  0.28521999999999986  0.67418  1.0000
  C   C47       1.0  0.7012499999999999  0.2773099999999999  0.66072  1.0000
  C   C48       1.0  0.7092699999999998  0.32653  0.7419  1.0000
  C   C49       1.0  0.64542  0.31517  0.73588  1.0000
  C   C50       1.0  0.65244  0.3595999999999998  0.82629  1.0000
  C   C51       1.0  0.5838099999999998  0.34710999999999986  0.82335  1.0000
  C   C52       1.0  0.51171  0.24539999999999998  0.87067  1.0000
  C   C53       1.0  0.43835  0.23293999999999995  0.84008  1.0000
  N   N39       1.0  0.46  0.32290999999999986  0.80274  1.0000
  C   C54       1.0  0.45858999999999983  0.35065999999999986  0.91422  1.0000
  N   N40       1.0  0.39240999999999976  0.2967799999999999  0.9707899999999999  1.0000
  C   C55       1.0  0.3897599999999999  0.3246699999999999  0.07158  1.0000
  N   N41       1.0  0.31975  0.26653  0.13293  1.0000
  C   C56       1.0  0.32063  0.28462  0.26709000000000005  1.0000
  C   C57       1.0  0.28650999999999993  0.19782999999999998  0.3957900000000001  1.0000
  C   C58       1.0  0.20560999999999988  0.11660999999999999  0.32525  1.0000
  C   C59       1.0  0.21321999999999997  0.09980999999999997  0.19555  1.0000
  C   C60       1.0  0.24558  0.18564999999999998  0.06620000000000004  1.0000
  N   N42       1.0  0.45496999999999993  0.4064799999999999  0.11782  1.0000
  C   C61       1.0  0.52201  0.4585299999999999  0.06660999999999999  1.0000
  N   N43       1.0  0.59211  0.53931  0.12779  1.0000
  C   C62       1.0  0.65734  0.54184  0.22456  1.0000
  C   C63       1.0  0.7308699999999999  0.6253599999999999  0.15389000000000005  1.0000
  C   C64       1.0  0.7519299999999999  0.7165299999999998  0.1414200000000001  1.0000
  C   C65       1.0  0.68236  0.70334  0.1439299999999999  1.0000
  C   C66       1.0  0.60431  0.62442  0.06369  1.0000
  N   N44       1.0  0.52392  0.4304  0.9654399999999999  1.0000
  C   C67       1.0  0.49954  0.3905799999999999  0.6692100000000001  1.0000
  C   C68       1.0  0.5605999999999998  0.3902799999999999  0.6626799999999999  1.0000
  C   C69       1.0  0.72506  0.4181199999999999  0.9198999999999999  1.0000
  C   C70       1.0  0.79012  0.43373  0.92092  1.0000
  C   C71       1.0  0.8625799999999999  0.49316  0.01215  1.0000
  C   C72       1.0  0.92602  0.50358  0.02102  1.0000
  C   C73       1.0  0.9178999999999999  0.4543999999999999  0.93945  1.0000
  C   C74       1.0  0.9780699999999999  0.45521999999999996  0.9641399999999999  1.0000
  C   C75       1.0  0.84591  0.3968799999999999  0.8428599999999999  1.0000
  C   C76       1.0  0.78207  0.3868  0.83328  1.0000
  H   H36       1.0  0.8876899999999999  0.2998199999999999  0.74326  1.0000
  H   H37       1.0  0.7552899999999999  0.24347  0.61567  1.0000
  H   H38       1.0  0.6455  0.2297599999999999  0.59175  1.0000
  H   H39       1.0  0.5903899999999997  0.27206999999999976  0.66032  1.0000
  H   H40       1.0  0.6022299999999999  0.38480999999999993  0.90969  1.0000
  H   H41       1.0  0.49754  0.20051999999999998  0.80624  1.0000
  H   H42       1.0  0.52585  0.2213199999999999  0.9972100000000002  1.0000
  H   H43       1.0  0.4091799999999999  0.18858999999999995  0.94349  1.0000
  H   H44       1.0  0.39599  0.19750999999999994  0.7395700000000001  1.0000
  H   H45       1.0  0.2855399999999999  0.3048199999999999  0.2298199999999997  1.0000
  H   H46       1.0  0.38032999999999995  0.34203999999999996  0.31628999999999996  1.0000
  H   H47       1.0  0.3260499999999999  0.18304999999999988  0.44277  1.0000
  H   H48       1.0  0.28202999999999984  0.20975999999999997  0.4915399999999998  1.0000
  H   H49       1.0  0.17061999999999994  0.13769999999999996  0.2694099999999999  1.0000
  H   H50       1.0  0.15576  0.03932999999999998  0.14722  1.0000
  H   H51       1.0  0.25299  0.08543999999999997  0.24185  1.0000
  H   H52       1.0  0.20332999999999996  0.19649999999999992  0.013679999999999913  1.0000
  H   H53       1.0  0.25102  0.17446999999999996  0.9711899999999999  1.0000
  H   H54       1.0  0.64425  0.4779499999999999  0.23241  1.0000
  H   H55       1.0  0.6672999999999998  0.54739  0.34486  1.0000
  H   H56       1.0  0.71901  0.61701  0.03465999999999991  1.0000
  H   H57       1.0  0.77977  0.62569  0.2229699999999999  1.0000
  H   H58       1.0  0.7700999999999999  0.7594999999999998  0.026399999999999976  1.0000
  H   H59       1.0  0.6924699999999996  0.7683899999999998  0.08383000000000007  1.0000
  H   H60       1.0  0.67802  0.68814  0.26664  1.0000
  H   H61       1.0  0.6036799999999998  0.6438199999999997  0.93611  1.0000
  H   H62       1.0  0.55631  0.61356  0.08017999999999997  1.0000
  H   H63       1.0  0.45549  0.37363  0.5594099999999999  1.0000
  H   H64       1.0  0.52876  0.46098  0.6756499999999999  1.0000
  H   H65       1.0  0.6131599999999998  0.4623  0.6269199999999999  1.0000
  H   H66       1.0  0.5358399999999999  0.3507999999999999  0.5728399999999999  1.0000
  H   H67       1.0  0.7311  0.4534699999999999  0.9886099999999999  1.0000
  H   H68       1.0  0.8698799999999995  0.5309399999999997  0.07766  1.0000
  H   H69       1.0  0.9808499999999998  0.54841  0.09448999999999998  1.0000
  H   H70       1.0  0.030790000000000074  0.4932799999999999  0.04837  1.0000
