data_image0
_chemical_formula_structural       Mn5CN8C2N8CN16Cl2C8PC21H18C4PC21H18
_chemical_formula_sum              "Mn5 C58 N32 Cl2 P2 H36"
_cell_length_a       19.4061
_cell_length_b       19.0665
_cell_length_c       9.5499
_cell_angle_alpha    59.6788
_cell_angle_beta     116.07410000000002
_cell_angle_gamma    132.5456

_symmetry_space_group_name_H-M    'P 1'
_symmetry_Int_Tables_number       1

loop_
  _symmetry_equiv_pos_as_xyz
  'x,y,z'

loop_
  _atom_site_type_symbol
  _atom_site_label
  _atom_site_symmetry_multiplicity
  _atom_site_fract_x
  _atom_site_fract_y
  _atom_site_fract_z
  _atom_site_occupancy
  Mn  Mn1       1.0  0.83847  0.12578000000000006  0.68638  1.0000
  Mn  Mn2       1.0  0.06791999999999998  0.21429  0.87494  1.0000
  Mn  Mn3       1.0  0.2662800000000001  0.82733  0.7252  1.0000
  Mn  Mn4       1.0  0.0601500000000003  0.8085700000000002  0.5996100000000002  1.0000
  Mn  Mn5       1.0  0.07362000000000003  0.020760000000000004  0.24639000000000003  1.0000
  C   C1        1.0  0.8969100000000001  0.28961  0.791  1.0000
  N   N1        1.0  0.9197000000000001  0.24150000000000005  0.77587  1.0000
  N   N2        1.0  0.007750000000000138  0.27611  0.85136  1.0000
  N   N3        1.0  0.039300000000000154  0.3434700000000001  0.9128499999999999  1.0000
  N   N4        1.0  0.97144  0.35392000000000007  0.87633  1.0000
  N   N5        1.0  0.18656000000000003  0.31391  0.13409000000000004  1.0000
  N   N6        1.0  0.14783  0.23523  0.09519  1.0000
  N   N7        1.0  0.16039000000000003  0.16885000000000003  0.22446000000000005  1.0000
  N   N8        1.0  0.20678000000000002  0.20244  0.35178  1.0000
  C   C2        1.0  0.22304000000000013  0.2926200000000001  0.29414  1.0000
  C   C3        1.0  0.09264  0.043829999999999945  0.8109200000000002  1.0000
  N   N9        1.0  0.11016000000000004  0.13885  0.89476  1.0000
  N   N10       1.0  0.10688000000000006  0.13163  0.7613800000000002  1.0000
  N   N11       1.0  0.96436  0.034419999999999895  0.13754000000000005  1.0000
  N   N12       1.0  0.95874  0.08264  0.98006  1.0000
  N   N13       1.0  0.8705300000000001  0.04861000000000002  0.91216  1.0000
  N   N14       1.0  0.81567  0.9805  0.0266  1.0000
  N   N15       1.0  0.09615999999999998  0.057560000000000014  0.020359999999999937  1.0000
  N   N16       1.0  0.08578999999999992  0.9962899999999999  0.97238  1.0000
  C   C4        1.0  0.8748100000000001  0.97364  0.17012  1.0000
  N   N17       1.0  0.14437999999999998  0.71776  0.6318  1.0000
  N   N18       1.0  0.06527000000000019  0.7092200000000002  0.58976  1.0000
  N   N19       1.0  0.99408  0.62901  0.54231  1.0000
  N   N20       1.0  0.026279999999999967  0.58391  0.55046  1.0000
  N   N21       1.0  0.8950900000000003  0.71294  0.36419  1.0000
  N   N22       1.0  0.9675100000000002  0.7987100000000003  0.39325  1.0000
  N   N23       1.0  0.97943  0.87439  0.2583900000000001  1.0000
  N   N24       1.0  0.91418  0.8403200000000002  0.13552  1.0000
  N   N25       1.0  0.06572000000000003  0.042019999999999974  0.5319200000000002  1.0000
  N   N26       1.0  0.05594000000000003  0.9831900000000001  0.47881  1.0000
  N   N27       1.0  0.05678000000000012  0.9091300000000002  0.60689  1.0000
  N   N28       1.0  0.06664999999999997  0.91682  0.74532  1.0000
  N   N29       1.0  0.18187  0.003880000000000009  0.35457  1.0000
  N   N30       1.0  0.17067000000000013  0.9222800000000001  0.4758500000000001  1.0000
  N   N31       1.0  0.24892  0.9282800000000001  0.52365  1.0000
  N   N32       1.0  0.31394  0.012430000000000007  0.43316  1.0000
  Cl  Cl1       1.0  0.9764600000000001  0.18852  0.63408  1.0000
  Cl  Cl2       1.0  0.17251000000000005  0.8194200000000003  0.82642  1.0000
  C   C5        1.0  0.12005000000000018  0.6398900000000002  0.60535  1.0000
  C   C6        1.0  0.8627700000000001  0.7395400000000002  0.2037  1.0000
  C   C7        1.0  0.07241000000000011  0.9998200000000002  0.69701  1.0000
  C   C8        1.0  0.27187  0.05914000000000001  0.3272  1.0000
  C   C9        1.0  0.25515  0.3478  0.40129  1.0000
  C   C10       1.0  0.26221  0.43679  0.33707  1.0000
  C   C11       1.0  0.29113  0.4865  0.44234  1.0000
  C   C12       1.0  0.31424000000000013  0.44799  0.6125500000000003  1.0000
  P   P1        1.0  0.37555000000000016  0.5191700000000002  0.75852  1.0000
  C   C13       1.0  0.30252000000000007  0.56462  0.68916  1.0000
  C   C14       1.0  0.20437000000000005  0.50101  0.64297  1.0000
  C   C15       1.0  0.14618000000000003  0.52781  0.61011  1.0000
  C   C16       1.0  0.18395999999999998  0.6162099999999999  0.6317500000000003  1.0000
  C   C17       1.0  0.2817100000000002  0.6798000000000002  0.67909  1.0000
  C   C18       1.0  0.34041  0.65416  0.70784  1.0000
  C   C19       1.0  0.48378000000000027  0.6341100000000001  0.6620600000000002  1.0000
  C   C20       1.0  0.5067200000000001  0.64244  0.53091  1.0000
  C   C21       1.0  0.5885800000000001  0.7287900000000002  0.46423  1.0000
  C   C22       1.0  0.6535800000000002  0.80679  0.53359  1.0000
  C   C23       1.0  0.7402400000000002  0.8984000000000002  0.46072000000000013  1.0000
  C   C24       1.0  0.7873900000000003  0.8920700000000003  0.3943300000000001  1.0000
  C   C25       1.0  0.8584100000000001  0.9787400000000003  0.29985  1.0000
  C   C26       1.0  0.88577  0.07281  0.27861  1.0000
  C   C27       1.0  0.8377500000000001  0.08000000000000003  0.33945  1.0000
  C   C28       1.0  0.85122  0.17763000000000004  0.27942  1.0000
  C   C29       1.0  0.7666800000000001  0.9929100000000001  0.4339500000000001  1.0000
  C   C30       1.0  0.6344900000000002  0.7965200000000002  0.67125  1.0000
  C   C31       1.0  0.5512000000000001  0.7102300000000001  0.73616  1.0000
  C   C32       1.0  0.29694  0.35449  0.67573  1.0000
  C   C33       1.0  0.2717200000000001  0.30673999999999996  0.57178  1.0000
  H   H1        1.0  0.24727999999999997  0.46882999999999997  0.20591  1.0000
  H   H2        1.0  0.3011700000000002  0.5576300000000002  0.39065  1.0000
  H   H3        1.0  0.1716600000000001  0.42898000000000014  0.63601  1.0000
  H   H4        1.0  0.07093000000000003  0.47720000000000007  0.57347  1.0000
  H   H5        1.0  0.31274000000000024  0.7486200000000002  0.69598  1.0000
  H   H6        1.0  0.41462000000000016  0.7038400000000002  0.74886  1.0000
  H   H7        1.0  0.4651100000000001  0.58224  0.48129  1.0000
  H   H8        1.0  0.6013800000000001  0.73356  0.35916  1.0000
  H   H9        1.0  0.76377  0.81973  0.4041300000000001  1.0000
  H   H10       1.0  0.9359300000000002  0.13976  0.19602  1.0000
  H   H11       1.0  0.8246700000000001  0.17857  0.36026  1.0000
  H   H12       1.0  0.9274900000000001  0.24131000000000002  0.27595  1.0000
  H   H13       1.0  0.81155  0.18822  0.15309  1.0000
  H   H14       1.0  0.72639  0.9981600000000002  0.47395  1.0000
  H   H15       1.0  0.6848700000000002  0.8541400000000002  0.7306800000000002  1.0000
  H   H16       1.0  0.5406200000000001  0.70204  0.84718  1.0000
  H   H17       1.0  0.30521000000000004  0.3195799999999999  0.8064600000000002  1.0000
  H   H18       1.0  0.26385000000000003  0.23668  0.6254900000000002  1.0000
  C   C34       1.0  0.78508  0.6664599999999999  0.11469000000000018  1.0000
  C   C35       1.0  0.7326100000000002  0.5634200000000003  0.20163  1.0000
  C   C36       1.0  0.65716  0.4934300000000001  0.1191  1.0000
  C   C37       1.0  0.6335  0.52588  0.94804  1.0000
  P   P2        1.0  0.5277700000000001  0.44229000000000007  0.82797  1.0000
  C   C38       1.0  0.45431000000000005  0.32687  0.98625  1.0000
  C   C39       1.0  0.43231000000000014  0.33276000000000006  0.10028000000000015  1.0000
  C   C40       1.0  0.36783  0.24546000000000004  0.20679  1.0000
  C   C41       1.0  0.31935  0.15143999999999996  0.19293999999999992  1.0000
  C   C42       1.0  0.33787000000000006  0.14595000000000002  0.07376999999999989  1.0000
  C   C43       1.0  0.40409  0.2327400000000001  0.9707  1.0000
  C   C44       1.0  0.58507  0.40399  0.79948  1.0000
  C   C45       1.0  0.6261  0.35661999999999994  0.9312200000000003  1.0000
  C   C46       1.0  0.66509  0.32591999999999993  0.9008500000000003  1.0000
  C   C47       1.0  0.66288  0.34186  0.73892  1.0000
  C   C48       1.0  0.6892700000000003  0.2958500000000001  0.7049  1.0000
  C   C49       1.0  0.77964  0.31571  0.76465  1.0000
  C   C50       1.0  0.80234  0.27062  0.72903  1.0000
  C   C51       1.0  0.73306  0.20567000000000002  0.63338  1.0000
  C   C52       1.0  0.6423600000000003  0.18361000000000002  0.5773900000000002  1.0000
  C   C53       1.0  0.5674500000000001  0.11088000000000031  0.48129  1.0000
  C   C54       1.0  0.6211200000000001  0.22921000000000005  0.61274  1.0000
  C   C55       1.0  0.62336  0.39089000000000007  0.6082  1.0000
  C   C56       1.0  0.5854500000000001  0.4222700000000001  0.6384400000000002  1.0000
  C   C57       1.0  0.69038  0.62768  0.86109  1.0000
  C   C58       1.0  0.7646400000000003  0.6979700000000002  0.9431900000000002  1.0000
  H   H19       1.0  0.74954  0.53706  0.33381  1.0000
  H   H20       1.0  0.6178700000000001  0.4149  0.18976  1.0000
  H   H21       1.0  0.46586000000000005  0.4049  0.10813  1.0000
  H   H22       1.0  0.35879000000000005  0.25128  0.3035  1.0000
  H   H23       1.0  0.3029700000000001  0.07379000000000002  0.06394000000000011  1.0000
  H   H24       1.0  0.41487  0.22622999999999996  0.87704  1.0000
  H   H25       1.0  0.6243600000000002  0.3395000000000001  0.0566  1.0000
  H   H26       1.0  0.6926700000000001  0.2855  0.00321  1.0000
  H   H27       1.0  0.8319700000000001  0.36658  0.83693  1.0000
  H   H28       1.0  0.74848  0.17181  0.6007  1.0000
  H   H29       1.0  0.54239  0.14850999999999992  0.35973  1.0000
  H   H30       1.0  0.5944500000000003  0.08138000000000026  0.46055  1.0000
  H   H31       1.0  0.5065100000000001  0.04662000000000012  0.54937  1.0000
  H   H32       1.0  0.5506700000000001  0.21175999999999998  0.5697700000000002  1.0000
  H   H33       1.0  0.6193000000000001  0.4022900000000001  0.4825800000000001  1.0000
  H   H34       1.0  0.55405  0.45872  0.53584  1.0000
  H   H35       1.0  0.6763600000000002  0.65272  0.72881  1.0000
  H   H36       1.0  0.8059300000000003  0.7765900000000002  0.87272  1.0000
