data_image0
_chemical_formula_structural       Mn5CN8C2N8CN16Cl2C6ClCClC4ClCClC2ClCClC2ClCClC12ClCClCClCClH7C2ClCClC4ClCClC2ClCClC2ClCClC12ClCClCClCClH7
_chemical_formula_sum              "Mn5 C66 N32 Cl26 H14"
_cell_length_a       21.6396
_cell_length_b       19.3287
_cell_length_c       9.5159
_cell_angle_alpha    70.3898
_cell_angle_beta     93.2961
_cell_angle_gamma    133.24549999999996

_symmetry_space_group_name_H-M    'P 1'
_symmetry_Int_Tables_number       1

loop_
  _symmetry_equiv_pos_as_xyz
  'x,y,z'

loop_
  _atom_site_type_symbol
  _atom_site_label
  _atom_site_symmetry_multiplicity
  _atom_site_fract_x
  _atom_site_fract_y
  _atom_site_fract_z
  _atom_site_occupancy
  Mn  Mn1       1.0  0.8593599999999999  0.18251999999999993  0.92354  1.0000
  Mn  Mn2       1.0  0.04919000000000006  0.23937  0.89998  1.0000
  Mn  Mn3       1.0  0.19199999999999992  0.8914699999999999  0.43141  1.0000
  Mn  Mn4       1.0  0.004299999999999668  0.8360599999999996  0.47801  1.0000
  Mn  Mn5       1.0  0.02496999999999998  0.03951999999999997  0.20059  1.0000
  C   C1        1.0  0.98999  0.3889000000000001  0.9613100000000001  1.0000
  N   N1        1.0  0.97079  0.31126000000000004  0.94075  1.0000
  N   N2        1.0  0.043129999999999696  0.33268000000000003  0.93571  1.0000
  N   N3        1.0  0.10584999999999974  0.4211199999999999  0.95092  1.0000
  N   N4        1.0  0.07410999999999991  0.45764999999999995  0.9695100000000001  1.0000
  N   N5        1.0  0.18379  0.35545  0.05433  1.0000
  N   N6        1.0  0.13168  0.26735  0.03681  1.0000
  N   N7        1.0  0.11636999999999996  0.19430999999999995  0.15861  1.0000
  N   N8        1.0  0.15438  0.23252  0.2622  1.0000
  C   C2        1.0  0.19818999999999998  0.3335799999999999  0.19387000000000004  1.0000
  C   C3        1.0  0.03287999999999997  0.05485999999999995  0.7599400000000001  1.0000
  N   N9        1.0  0.050980000000000025  0.14629999999999999  0.86239  1.0000
  N   N10       1.0  0.04557999999999995  0.13726999999999995  0.7299200000000001  1.0000
  N   N11       1.0  0.9317199999999998  0.044209999999999965  0.19774000000000003  1.0000
  N   N12       1.0  0.9434699999999999  0.11623999999999997  0.07931000000000003  1.0000
  N   N13       1.0  0.87457  0.10143999999999999  0.09157  1.0000
  N   N14       1.0  0.81669  0.02351999999999998  0.22229000000000004  1.0000
  N   N15       1.0  0.04147999999999997  0.07318999999999994  0.9694300000000001  1.0000
  N   N16       1.0  0.029980000000000007  0.013550000000000006  0.90881  1.0000
  C   C4        1.0  0.85255  0.9890299999999997  0.29134  1.0000
  N   N17       1.0  0.07946999999999997  0.76596  0.41192000000000006  1.0000
  N   N18       1.0  0.007630000000000005  0.74512  0.4241900000000001  1.0000
  N   N19       1.0  0.9440099999999999  0.6585599999999999  0.40479  1.0000
  N   N20       1.0  0.97424  0.62154  0.37983  1.0000
  N   N21       1.0  0.85589  0.72192  0.34718000000000004  1.0000
  N   N22       1.0  0.9220799999999998  0.8132599999999998  0.34838  1.0000
  N   N23       1.0  0.93164  0.88555  0.23877  1.0000
  N   N24       1.0  0.87095  0.84193  0.16109  1.0000
  N   N25       1.0  0.015089999999999989  0.053059999999999996  0.50165  1.0000
  N   N26       1.0  0.00791999999999999  0.9997999999999999  0.4324  1.0000
  N   N27       1.0  0.0047599999999999405  0.9293999999999999  0.53058  1.0000
  N   N28       1.0  0.010269999999999974  0.93485  0.66626  1.0000
  N   N29       1.0  0.12066  0.03900999999999999  0.20303  1.0000
  N   N30       1.0  0.10515999999999996  0.9573299999999999  0.29521  1.0000
  N   N31       1.0  0.17514999999999994  0.9749399999999999  0.27402  1.0000
  N   N32       1.0  0.23918999999999999  0.06862  0.16751  1.0000
  Cl  Cl1       1.0  0.9486400000000003  0.2023899999999999  0.7608600000000002  1.0000
  Cl  Cl2       1.0  0.10578999999999994  0.8670899999999998  0.6106000000000003  1.0000
  C   C5        1.0  0.05907  0.68972  0.38457  1.0000
  C   C6        1.0  0.82344  0.7388599999999997  0.23154  1.0000
  C   C7        1.0  0.016759999999999994  0.012149999999999992  0.64608  1.0000
  C   C8        1.0  0.20667  0.11022000000000001  0.12425  1.0000
  C   C9        1.0  0.11846999999999999  0.67682  0.37981  1.0000
  C   C10       1.0  0.15537  0.67302  0.50468  1.0000
  Cl  Cl3       1.0  0.12000999999999992  0.6685799999999998  0.67427  1.0000
  C   C11       1.0  0.2178799999999998  0.6694299999999996  0.49857000000000007  1.0000
  Cl  Cl4       1.0  0.25903  0.66585  0.66365  1.0000
  C   C12       1.0  0.2436  0.66753  0.36562  1.0000
  C   C13       1.0  0.31151  0.66311  0.3487  1.0000
  C   C14       1.0  0.27893  0.56406  0.34185  1.0000
  C   C15       1.0  0.18896999999999992  0.46756999999999993  0.3887100000000001  1.0000
  Cl  Cl5       1.0  0.10695000000000005  0.44056  0.5  1.0000
  C   C16       1.0  0.16259999999999997  0.38833999999999996  0.34860000000000013  1.0000
  Cl  Cl6       1.0  0.049690000000000005  0.27741  0.37924  1.0000
  C   C17       1.0  0.22529  0.39899  0.27708  1.0000
  C   C18       1.0  0.31421999999999994  0.4860799999999999  0.25401  1.0000
  Cl  Cl7       1.0  0.39209  0.49026  0.1914  1.0000
  C   C19       1.0  0.34142  0.5704  0.27772  1.0000
  Cl  Cl8       1.0  0.4549999999999999  0.68683  0.21260000000000007  1.0000
  C   C20       1.0  0.3817500000000001  0.71053  0.43905  1.0000
  C   C21       1.0  0.45588999999999985  0.8199499999999998  0.37672  1.0000
  Cl  Cl9       1.0  0.45808  0.9040599999999998  0.22017  1.0000
  C   C22       1.0  0.5302499999999999  0.8634699999999997  0.4355400000000001  1.0000
  Cl  Cl10      1.0  0.62729  0.99752  0.33761  1.0000
  C   C23       1.0  0.5289799999999998  0.8000699999999998  0.56619  1.0000
  C   C24       1.0  0.6127399999999997  0.8433299999999998  0.6089200000000002  1.0000
  C   C25       1.0  0.6549899999999999  0.9215399999999998  0.6635000000000001  1.0000
  C   C26       1.0  0.74462  0.9884199999999999  0.65476  1.0000
  C   C27       1.0  0.7940899999999999  0.9811999999999999  0.58524  1.0000
  C   C28       1.0  0.7526199999999997  0.9000599999999999  0.5377200000000001  1.0000
  C   C29       1.0  0.8025299999999997  0.9005899999999997  0.4459700000000001  1.0000
  C   C30       1.0  0.75942  0.80456  0.44573  1.0000
  C   C31       1.0  0.6683199999999998  0.7258799999999997  0.47891000000000006  1.0000
  C   C32       1.0  0.61896  0.73982  0.5248  1.0000
  C   C33       1.0  0.65998  0.82575  0.56035  1.0000
  C   C34       1.0  0.45074  0.6945799999999999  0.64303  1.0000
  Cl  Cl11      1.0  0.44305  0.6193000000000001  0.82154  1.0000
  C   C35       1.0  0.3789999999999999  0.6482899999999998  0.57677  1.0000
  Cl  Cl12      1.0  0.28516  0.51285  0.67389  1.0000
  C   C36       1.0  0.20370999999999992  0.6692899999999999  0.24148000000000003  1.0000
  Cl  Cl13      1.0  0.22998999999999992  0.6653299999999998  0.07302  1.0000
  C   C37       1.0  0.14176  0.67367  0.24930000000000002  1.0000
  Cl  Cl14      1.0  0.0956499999999999  0.67951  0.0914  1.0000
  H   H1        1.0  0.34971999999999975  0.7187799999999998  0.22768  1.0000
  H   H2        1.0  0.6196799999999999  0.9352699999999999  0.70294  1.0000
  H   H3        1.0  0.77671  0.05021999999999999  0.6931  1.0000
  H   H4        1.0  0.8645899999999999  0.038569999999999986  0.5688  1.0000
  H   H5        1.0  0.79542  0.79211  0.41139  1.0000
  H   H6        1.0  0.6362699999999999  0.65543  0.46459  1.0000
  H   H7        1.0  0.5489199999999997  0.6802699999999998  0.54025  1.0000
  C   C38       1.0  0.27202999999999994  0.22315  0.08205  1.0000
  C   C39       1.0  0.3272  0.28825  0.93178  1.0000
  Cl  Cl15      1.0  0.28031999999999996  0.26217  0.77584  1.0000
  C   C40       1.0  0.4192899999999998  0.36264999999999975  0.90914  1.0000
  Cl  Cl16      1.0  0.48689  0.43625  0.72073  1.0000
  C   C41       1.0  0.45573999999999987  0.3732099999999999  0.03813  1.0000
  C   C42       1.0  0.54327  0.4050999999999999  0.04218  1.0000
  C   C43       1.0  0.61095  0.49178  0.09736  1.0000
  C   C44       1.0  0.63372  0.58621  0.04577999999999993  1.0000
  Cl  Cl17      1.0  0.5818199999999999  0.6084599999999999  0.91714  1.0000
  C   C45       1.0  0.70306  0.66759  0.08731000000000001  1.0000
  Cl  Cl18      1.0  0.7330700000000001  0.7868199999999999  0.008550000000000058  1.0000
  C   C46       1.0  0.7462199999999999  0.65283  0.19145  1.0000
  C   C47       1.0  0.7146799999999999  0.5527699999999998  0.25838  1.0000
  Cl  Cl19      1.0  0.7454599999999999  0.51393  0.41891  1.0000
  C   C48       1.0  0.6533499999999998  0.4769599999999999  0.20347  1.0000
  Cl  Cl20      1.0  0.6313299999999998  0.36240999999999995  0.27051  1.0000
  C   C49       1.0  0.5851199999999999  0.3999  0.92472  1.0000
  C   C50       1.0  0.54872  0.30118999999999996  0.94354  1.0000
  Cl  Cl21      1.0  0.43671  0.18784  0.03422  1.0000
  C   C51       1.0  0.6025199999999998  0.29125  0.89938  1.0000
  Cl  Cl22      1.0  0.5577  0.16677  0.93666  1.0000
  C   C52       1.0  0.69312  0.37920999999999994  0.83794  1.0000
  C   C53       1.0  0.75331  0.36844999999999994  0.81653  1.0000
  C   C54       1.0  0.75728  0.34835  0.69064  1.0000
  C   C55       1.0  0.81785  0.3463399999999998  0.6585300000000002  1.0000
  C   C56       1.0  0.87479  0.36301000000000005  0.75238  1.0000
  C   C57       1.0  0.8705599999999998  0.3793799999999999  0.8838700000000002  1.0000
  C   C58       1.0  0.9272899999999998  0.39538000000000006  0.98233  1.0000
  C   C59       1.0  0.92422  0.41758999999999996  0.10630000000000003  1.0000
  C   C60       1.0  0.86454  0.42108  0.13673  1.0000
  C   C61       1.0  0.8072099999999999  0.4032299999999998  0.043470000000000016  1.0000
  C   C62       1.0  0.8096299999999997  0.38331999999999994  0.91526  1.0000
  C   C63       1.0  0.72722  0.47824999999999995  0.80008  1.0000
  Cl  Cl23      1.0  0.8408299999999997  0.5899999999999997  0.72309  1.0000
  C   C64       1.0  0.67234  0.48872000000000004  0.8332  1.0000
  Cl  Cl24      1.0  0.7152299999999999  0.61443  0.75442  1.0000
  C   C65       1.0  0.39977000000000007  0.3276800000000001  0.18129  1.0000
  Cl  Cl25      1.0  0.44187  0.34944  0.344  1.0000
  C   C66       1.0  0.30852  0.2519  0.2037  1.0000
  Cl  Cl26      1.0  0.2428  0.1705  0.39647  1.0000
  H   H8        1.0  0.5161699999999999  0.3347699999999999  0.14416000000000007  1.0000
  H   H9        1.0  0.71408  0.33574  0.61552  1.0000
  H   H10       1.0  0.82127  0.3327  0.55917  1.0000
  H   H11       1.0  0.92268  0.36434999999999984  0.71913  1.0000
  H   H12       1.0  0.9676899999999999  0.43089  0.18132000000000006  1.0000
  H   H13       1.0  0.86248  0.4373999999999999  0.23373  1.0000
  H   H14       1.0  0.7614299999999999  0.40589  0.07215  1.0000
