data_image0
_chemical_formula_structural       Mn5CN8C2N8CN16Cl2C11NCNCNC5NCNC5NC4OC2OH33C7NCNCNC5NCNC5NC4OC2OH33
_chemical_formula_sum              "Mn5 C60 N44 Cl2 O4 H66"
_cell_length_a       21.9974
_cell_length_b       22.0459
_cell_length_c       9.4587
_cell_angle_alpha    69.5106
_cell_angle_beta     117.89679999999998
_cell_angle_gamma    136.2667

_space_group_name_H-M_alt    "P 1"
_space_group_IT_number       1

loop_
  _space_group_symop_operation_xyz
  'x, y, z'

loop_
  _atom_site_type_symbol
  _atom_site_label
  _atom_site_symmetry_multiplicity
  _atom_site_fract_x
  _atom_site_fract_y
  _atom_site_fract_z
  _atom_site_occupancy
  Mn  Mn1       1.0  0.8955700000000001  0.21138  0.83027  1.0000
  Mn  Mn2       1.0  0.09230999999999989  0.24323000000000006  0.01733999999999991  1.0000
  Mn  Mn3       1.0  0.21797000000000005  0.90222  0.71736  1.0000
  Mn  Mn4       1.0  0.024489999999999974  0.87738  0.55104  1.0000
  Mn  Mn5       1.0  0.058030000000000005  0.06033  0.28609  1.0000
  C   C1        1.0  0.03613999999999989  0.38637  0.9949300000000001  1.0000
  N   N1        1.0  0.012699999999999913  0.31357  0.97565  1.0000
  N   N2        1.0  0.08980000000000009  0.32832  0.04426  1.0000
  N   N3        1.0  0.16097999999999993  0.40949  0.10096  1.0000
  N   N4        1.0  0.12850000000000006  0.44639  0.07588  1.0000
  N   N5        1.0  0.2150100000000001  0.3213900000000001  0.33226  1.0000
  N   N6        1.0  0.17051000000000005  0.25485  0.24909  1.0000
  N   N7        1.0  0.15961000000000006  0.18953  0.34686  1.0000
  N   N8        1.0  0.19943000000000002  0.2137  0.49641  1.0000
  C   C2        1.0  0.2345700000000001  0.29615000000000014  0.48627  1.0000
  C   C3        1.0  0.05547000000000003  0.07079  0.84759  1.0000
  N   N9        1.0  0.08618000000000017  0.15531  0.9762699999999999  1.0000
  N   N10       1.0  0.07353999999999994  0.14487  0.83312  1.0000
  N   N11       1.0  0.96148  0.07479000000000002  0.17798  1.0000
  N   N12       1.0  0.9789400000000003  0.1435  0.08323  1.0000
  N   N13       1.0  0.9042000000000001  0.13258  0.01054  1.0000
  N   N14       1.0  0.83348  0.05607000000000007  0.04901  1.0000
  N   N15       1.0  0.07515  0.09019  0.07285000000000008  1.0000
  N   N16       1.0  0.05629000000000001  0.03567000000000001  0.99645  1.0000
  C   C4        1.0  0.86926  0.02103999999999995  0.15584  1.0000
  N   N17       1.0  0.09745000000000005  0.80264  0.5679  1.0000
  N   N18       1.0  0.023419999999999996  0.79317  0.50548  1.0000
  N   N19       1.0  0.9528600000000002  0.7230100000000002  0.41525  1.0000
  N   N20       1.0  0.9804600000000003  0.6858400000000002  0.41557  1.0000
  N   N21       1.0  0.8678800000000001  0.79059  0.25383  1.0000
  N   N22       1.0  0.93958  0.86602  0.32836  1.0000
  N   N23       1.0  0.95515  0.9314600000000002  0.22802  1.0000
  N   N24       1.0  0.89451  0.9008800000000002  0.08332  1.0000
  N   N25       1.0  0.04356  0.07333000000000002  0.57289  1.0000
  N   N26       1.0  0.037660000000000006  0.02671  0.5009  1.0000
  N   N27       1.0  0.028789999999999986  0.9623800000000001  0.59779  1.0000
  N   N28       1.0  0.030070000000000055  0.9653400000000001  0.73626  1.0000
  N   N29       1.0  0.15637  0.04749000000000001  0.39013  1.0000
  N   N30       1.0  0.13861000000000012  0.9790400000000001  0.48543000000000003  1.0000
  N   N31       1.0  0.2113200000000001  0.9865700000000001  0.54905  1.0000
  N   N32       1.0  0.27932  0.05870000000000001  0.49635  1.0000
  Cl  Cl1       1.0  0.99269  0.22594000000000006  0.76375  1.0000
  Cl  Cl2       1.0  0.12624000000000013  0.89066  0.79747  1.0000
  C   C5        1.0  0.07073000000000013  0.7356600000000002  0.51088  1.0000
  C   C6        1.0  0.8404700000000002  0.81311  0.10193  1.0000
  C   C7        1.0  0.03943  0.03476  0.71861  1.0000
  C   C8        1.0  0.24651  0.09733000000000003  0.39676  1.0000
  C   C9        1.0  0.8058200000000003  0.9316400000000002  0.21779  1.0000
  C   C10       1.0  0.79761  0.9261600000000001  0.36073  1.0000
  C   C11       1.0  0.70986  0.87766  0.36752  1.0000
  C   C12       1.0  0.6295200000000002  0.8357800000000002  0.23002  1.0000
  C   C13       1.0  0.5403700000000001  0.8099200000000001  0.21255  1.0000
  C   C14       1.0  0.55169  0.84927  0.34001  1.0000
  C   C15       1.0  0.46085000000000026  0.8253500000000003  0.30535  1.0000
  N   N33       1.0  0.38343  0.73009  0.28836  1.0000
  C   C16       1.0  0.3367500000000002  0.6774500000000002  0.40459  1.0000
  N   N34       1.0  0.31813000000000013  0.6017  0.45889  1.0000
  C   C17       1.0  0.2730900000000003  0.5501100000000002  0.56653  1.0000
  N   N35       1.0  0.25748  0.47219  0.62359  1.0000
  C   C18       1.0  0.33998000000000006  0.4823400000000001  0.71515  1.0000
  C   C19       1.0  0.34126  0.43505  0.63107  1.0000
  C   C20       1.0  0.25415  0.33598  0.61955  1.0000
  C   C21       1.0  0.16774000000000006  0.3158300000000001  0.60492  1.0000
  C   C22       1.0  0.17201000000000005  0.39223000000000013  0.53256  1.0000
  N   N36       1.0  0.2449300000000001  0.57348  0.6203  1.0000
  C   C23       1.0  0.26389  0.65022  0.56745  1.0000
  N   N37       1.0  0.23375  0.67544  0.62279  1.0000
  C   C24       1.0  0.2891  0.76907  0.6379  1.0000
  C   C25       1.0  0.23186  0.78349  0.64633  1.0000
  C   C26       1.0  0.13026000000000007  0.71761  0.53769  1.0000
  C   C27       1.0  0.0844700000000002  0.6224500000000002  0.59987  1.0000
  C   C28       1.0  0.15319  0.60882  0.67949  1.0000
  N   N38       1.0  0.31065000000000015  0.7024200000000003  0.46023  1.0000
  C   C29       1.0  0.36867000000000005  0.68792  0.17097  1.0000
  C   C30       1.0  0.45823  0.70961  0.20744  1.0000
  C   C31       1.0  0.63646  0.8286  0.09679  1.0000
  C   C32       1.0  0.7242300000000002  0.87143  0.09772  1.0000
  O   O1        1.0  0.73119  0.86557  0.9646999999999999  1.0000
  C   C33       1.0  0.6694000000000001  0.86511  0.81566  1.0000
  C   C34       1.0  0.56757  0.79307  0.81355  1.0000
  O   O2        1.0  0.55679  0.78286  0.9608600000000002  1.0000
  H   H1        1.0  0.8584700000000002  0.9708500000000001  0.45607  1.0000
  H   H2        1.0  0.7076200000000001  0.8815500000000001  0.47555  1.0000
  H   H3        1.0  0.5219000000000003  0.8381500000000002  0.09541  1.0000
  H   H4        1.0  0.6094700000000002  0.9219200000000002  0.34166  1.0000
  H   H5        1.0  0.56789  0.82212  0.46035  1.0000
  H   H6        1.0  0.4687900000000001  0.8490000000000001  0.40453  1.0000
  H   H7        1.0  0.44644  0.85827  0.1925  1.0000
  H   H8        1.0  0.40518  0.55273  0.72708  1.0000
  H   H9        1.0  0.33759  0.4544  0.83705  1.0000
  H   H10       1.0  0.40336  0.44287  0.6982  1.0000
  H   H11       1.0  0.34704999999999997  0.46612  0.51197  1.0000
  H   H12       1.0  0.26910000000000006  0.3040700000000001  0.73146  1.0000
  H   H13       1.0  0.10195  0.25509  0.53556  1.0000
  H   H14       1.0  0.1643900000000001  0.30332000000000003  0.72588  1.0000
  H   H15       1.0  0.11030000000000006  0.37458  0.53283  1.0000
  H   H16       1.0  0.17013999999999999  0.40333  0.40793  1.0000
  H   H17       1.0  0.3514200000000001  0.79493  0.74685  1.0000
  H   H18       1.0  0.3129400000000001  0.8066300000000001  0.53279  1.0000
  H   H19       1.0  0.23468  0.77498  0.77172  1.0000
  H   H20       1.0  0.26296  0.8519800000000002  0.60618  1.0000
  H   H21       1.0  0.13207  0.72391  0.41736  1.0000
  H   H22       1.0  0.052290000000000045  0.60354  0.68686  1.0000
  H   H23       1.0  0.027489999999999983  0.57821  0.49632000000000004  1.0000
  H   H24       1.0  0.11551999999999996  0.54153  0.65462  1.0000
  H   H25       1.0  0.17878999999999998  0.61381  0.81135  1.0000
  H   H26       1.0  0.3103400000000001  0.6154900000000002  0.1722  1.0000
  H   H27       1.0  0.3494900000000002  0.7122700000000002  0.04901  1.0000
  H   H28       1.0  0.4729300000000001  0.67915  0.32441000000000003  1.0000
  H   H29       1.0  0.44638  0.68045  0.1127  1.0000
  H   H30       1.0  0.67569  0.85377  0.71966  1.0000
  H   H31       1.0  0.69121  0.93084  0.79263  1.0000
  H   H32       1.0  0.5269300000000002  0.8089700000000002  0.71649  1.0000
  H   H33       1.0  0.53691  0.72935  0.78592  1.0000
  C   C35       1.0  0.96815  0.3934400000000001  0.95351  1.0000
  C   C36       1.0  0.87328  0.32086  0.89239  1.0000
  C   C37       1.0  0.8077800000000002  0.3188  0.88558  1.0000
  C   C38       1.0  0.83431  0.38807000000000014  0.94335  1.0000
  C   C39       1.0  0.7613800000000001  0.3625000000000001  0.9921799999999998  1.0000
  C   C40       1.0  0.6802100000000002  0.3481500000000001  0.84778  1.0000
  C   C41       1.0  0.59803  0.29563  0.90451  1.0000
  N   N39       1.0  0.6277900000000001  0.3384700000000001  0.04096  1.0000
  C   C42       1.0  0.58774  0.37187  0.01988  1.0000
  N   N40       1.0  0.62739  0.45418  0.9605100000000001  1.0000
  C   C43       1.0  0.5868700000000001  0.48518  0.92961  1.0000
  N   N41       1.0  0.6293200000000001  0.57275  0.86417  1.0000
  C   C44       1.0  0.7185  0.63173  0.83495  1.0000
  C   C45       1.0  0.79568  0.7052000000000003  0.95725  1.0000
  C   C46       1.0  0.76702  0.74952  0.96767  1.0000
  C   C47       1.0  0.67099  0.68086  0.99191  1.0000
  C   C48       1.0  0.59826  0.61422  0.85951  1.0000
  N   N42       1.0  0.5067700000000002  0.4329300000000001  0.96315  1.0000
  C   C49       1.0  0.46601000000000004  0.34976  0.020440000000000014  1.0000
  N   N43       1.0  0.38391  0.29613  0.06059999999999999  1.0000
  C   C50       1.0  0.30345000000000005  0.20594  0.003230000000000066  1.0000
  C   C51       1.0  0.28579  0.1407  0.14483000000000001  1.0000
  C   C52       1.0  0.30433  0.17391000000000004  0.29239  1.0000
  C   C53       1.0  0.31033000000000005  0.25139000000000006  0.2549999999999999  1.0000
  C   C54       1.0  0.38457  0.32817  0.17416999999999994  1.0000
  N   N44       1.0  0.5062  0.3190300000000001  0.04711  1.0000
  C   C55       1.0  0.71493  0.3711  0.17523  1.0000
  C   C56       1.0  0.79483  0.42036  0.11375  1.0000
  C   C57       1.0  0.9307100000000001  0.46606  0.99029  1.0000
  C   C58       1.0  0.9968100000000002  0.46885  0.9894  1.0000
  O   O3        1.0  0.09217000000000042  0.5456200000000002  0.02709  1.0000
  C   C59       1.0  0.11786000000000012  0.62307  0.0517  1.0000
  C   C60       1.0  0.055800000000000065  0.60176  0.12705  1.0000
  O   O4        1.0  0.9599200000000002  0.5413600000000002  0.030579999999999996  1.0000
  H   H34       1.0  0.8485800000000001  0.26127  0.86312  1.0000
  H   H35       1.0  0.73545  0.25785  0.85133  1.0000
  H   H36       1.0  0.7328  0.29757  0.05594  1.0000
  H   H37       1.0  0.65842  0.31269  0.7510399999999999  1.0000
  H   H38       1.0  0.70191  0.41258  0.79875  1.0000
  H   H39       1.0  0.54066  0.2893000000000001  0.80335  1.0000
  H   H40       1.0  0.57061  0.2282  0.94072  1.0000
  H   H41       1.0  0.73815  0.59606  0.84172  1.0000
  H   H42       1.0  0.7110200000000001  0.6604600000000003  0.71157  1.0000
  H   H43       1.0  0.86113  0.75574  0.92594  1.0000
  H   H44       1.0  0.81095  0.67598  0.07536  1.0000
  H   H45       1.0  0.76293  0.78634  0.85312  1.0000
  H   H46       1.0  0.67674  0.64696  0.10958000000000001  1.0000
  H   H47       1.0  0.6484800000000002  0.7115000000000002  0.99471  1.0000
  H   H48       1.0  0.5906300000000002  0.6468100000000002  0.74065  1.0000
  H   H49       1.0  0.53078  0.56603  0.88145  1.0000
  H   H50       1.0  0.24178999999999998  0.19844  0.93797  1.0000
  H   H51       1.0  0.3137  0.19184  0.91872  1.0000
  H   H52       1.0  0.21447000000000002  0.07617  0.10721000000000003  1.0000
  H   H53       1.0  0.33269  0.12928  0.17976  1.0000
  H   H54       1.0  0.377  0.20432  0.36751  1.0000
  H   H55       1.0  0.2432  0.23044  0.17005000000000003  1.0000
  H   H56       1.0  0.32842  0.27446  0.36726  1.0000
  H   H57       1.0  0.45435000000000003  0.3665400000000001  0.26920999999999995  1.0000
  H   H58       1.0  0.3703  0.37175  0.1093599999999999  1.0000
  H   H59       1.0  0.73515  0.41547  0.25102  1.0000
  H   H60       1.0  0.70288  0.3142600000000001  0.25165  1.0000
  H   H61       1.0  0.81444  0.48335  0.054910000000000014  1.0000
  H   H62       1.0  0.8563400000000001  0.43467  0.21694  1.0000
  H   H63       1.0  0.11331000000000019  0.6581900000000003  0.93566  1.0000
  H   H64       1.0  0.19157000000000016  0.6675500000000002  0.13113  1.0000
  H   H65       1.0  0.06596000000000034  0.5729900000000002  0.24906  1.0000
  H   H66       1.0  0.07587999999999993  0.6633  0.13945  1.0000
