data_image0
_chemical_formula_structural       EuOCO6COC2EuOCO6COC2EuOCO6COC2EuOCO6COC5OC3F2CF2CH4C3OC3F2CF2CH4C3OC3F2CF2CH4C3OC3F2CF2CH4C3OC3F2CF2CH4C3OC3F2CF2CH4C3OC3F2CF2CH4C3OC3F2CF2CH4
_chemical_formula_sum              "Eu4 O40 C80 F32 H32"
_cell_length_a       24.2982
_cell_length_b       23.6771
_cell_length_c       17.2552
_cell_angle_alpha    84.17230000000002
_cell_angle_beta     83.26120000000002
_cell_angle_gamma    83.7822

_space_group_name_H-M_alt    "P 1"
_space_group_IT_number       1

loop_
  _space_group_symop_operation_xyz
  'x, y, z'

loop_
  _atom_site_type_symbol
  _atom_site_label
  _atom_site_symmetry_multiplicity
  _atom_site_fract_x
  _atom_site_fract_y
  _atom_site_fract_z
  _atom_site_occupancy
  Eu  Eu1       1.0  0.6909299999999998  0.04371999999999999  0.7059  1.0000
  O   O1        1.0  0.8024799999999999  0.08597  0.72083  1.0000
  C   C1        1.0  0.64322  0.03449  0.54948  1.0000
  O   O2        1.0  0.76671  0.93553  0.75422  1.0000
  O   O3        1.0  0.73227  0.013109999999999952  0.81642  1.0000
  O   O4        1.0  0.58278  0.99099  0.73455  1.0000
  O   O5        1.0  0.65304  0.9843699999999999  0.5739  1.0000
  O   O6        1.0  0.65025  0.07745000000000002  0.59585  1.0000
  O   O7        1.0  0.7169199999999998  0.13283  0.71089  1.0000
  C   C2        1.0  0.77402  0.13161999999999996  0.71493  1.0000
  O   O8        1.0  0.6103299999999999  0.06720999999999999  0.78173  1.0000
  C   C3        1.0  0.57209  0.02796  0.77952  1.0000
  C   C4        1.0  0.77195  0.9671599999999999  0.80401  1.0000
  Eu  Eu2       1.0  0.10999000000000002  0.30309  0.54699  1.0000
  O   O9        1.0  0.07722000000000002  0.18181999999999998  0.5654  1.0000
  C   C5        1.0  0.12840999999999997  0.36476000000000003  0.68988  1.0000
  O   O10       1.0  0.20602999999999996  0.30339  0.40975  1.0000
  O   O11       1.0  0.13289999999999993  0.25104  0.44171  1.0000
  O   O12       1.0  0.13841999999999996  0.4253799999999999  0.50521  1.0000
  O   O13       1.0  0.1736  0.36728999999999995  0.65121  1.0000
  O   O14       1.0  0.08329  0.35143  0.65486  1.0000
  O   O15       1.0  0.025660000000000027  0.26724  0.56617  1.0000
  C   C6        1.0  0.03102000000000003  0.2078  0.57003  1.0000
  O   O16       1.0  0.07244999999999999  0.377  0.46835  1.0000
  C   C7        1.0  0.09790999999999998  0.42666000000000004  0.46948999999999996  1.0000
  C   C8        1.0  0.18208999999999997  0.26319  0.39669  1.0000
  Eu  Eu3       1.0  0.3762499999999999  0.98529  0.22186  1.0000
  O   O17       1.0  0.26405000000000006  0.95456  0.30474  1.0000
  C   C9        1.0  0.41421  0.99702  0.38281  1.0000
  O   O18       1.0  0.3349  0.87275  0.21964  1.0000
  O   O19       1.0  0.32501  0.9519  0.13626  1.0000
  O   O20       1.0  0.47864999999999996  0.015940000000000065  0.11673  1.0000
  O   O21       1.0  0.3758499999999999  0.96713  0.39766  1.0000
  O   O22       1.0  0.4293699999999999  0.01711  0.30545  1.0000
  O   O23       1.0  0.30061000000000004  0.038820000000000014  0.27738  1.0000
  C   C10       1.0  0.25692  0.00631  0.30471  1.0000
  O   O24       1.0  0.3929  0.06292  0.13636  1.0000
  C   C11       1.0  0.44867999999999997  0.06042  0.1061  1.0000
  C   C12       1.0  0.3129199999999999  0.8967799999999999  0.16363  1.0000
  Eu  Eu4       1.0  0.03694999999999999  0.65071  0.04883  1.0000
  O   O25       1.0  0.008040000000000033  0.7426  0.9131  1.0000
  C   C13       1.0  0.053739999999999954  0.60146  0.88955  1.0000
  O   O26       1.0  0.12311999999999998  0.73112  0.04524  1.0000
  O   O27       1.0  0.051759999999999994  0.7117400000000002  0.13622  1.0000
  O   O28       1.0  0.05336999999999999  0.53314  0.13891  1.0000
  O   O29       1.0  0.07927999999999999  0.6435400000000001  0.87924  1.0000
  O   O30       1.0  0.023029999999999995  0.58914  0.96136  1.0000
  O   O31       1.0  0.9581800000000001  0.70796  0.023800000000000043  1.0000
  C   C14       1.0  0.9682699999999997  0.75011  0.9627300000000001  1.0000
  O   O32       1.0  0.98193  0.60284  0.14377  1.0000
  C   C15       1.0  0.006080000000000012  0.54857  0.16601999999999997  1.0000
  C   C16       1.0  0.09610999999999997  0.7429800000000001  0.10663  1.0000
  C   C17       1.0  0.51871  0.03191000000000001  0.83056  1.0000
  C   C18       1.0  0.48026999999999986  0.9916800000000001  0.83052  1.0000
  C   C19       1.0  0.42974999999999985  0.99558  0.87867  1.0000
  O   O33       1.0  0.39285000000000003  0.9544  0.87756  1.0000
  C   C20       1.0  0.41721  0.0402  0.92753  1.0000
  C   C21       1.0  0.45531  0.08068000000000002  0.92901  1.0000
  C   C22       1.0  0.44315  0.12788  0.98382  1.0000
  F   F1        1.0  0.463  0.17748  0.9466  1.0000
  F   F2        1.0  0.38615  0.13944  0.00197  1.0000
  C   C23       1.0  0.47114999999999996  0.11198000000000001  0.05989  1.0000
  F   F3        1.0  0.4607999999999999  0.15737  0.1062  1.0000
  F   F4        1.0  0.52842  0.1017999999999999  0.04224  1.0000
  C   C24       1.0  0.50605  0.07601  0.88045  1.0000
  H   H1        1.0  0.4896099999999999  0.9567800000000001  0.79366  1.0000
  H   H2        1.0  0.35904  0.95872  0.91736  1.0000
  H   H3        1.0  0.37815  0.04265999999999999  0.96507  1.0000
  H   H4        1.0  0.5357  0.10691999999999999  0.88169  1.0000
  C   C25       1.0  0.07607  0.48042  0.42699  1.0000
  C   C26       1.0  0.10037  0.53147  0.42882  1.0000
  C   C27       1.0  0.07856999999999997  0.58231  0.38963  1.0000
  O   O34       1.0  0.10212999999999998  0.63338  0.391  1.0000
  C   C28       1.0  0.0323  0.58218  0.34849  1.0000
  C   C29       1.0  0.007419999999999995  0.53159  0.3458  1.0000
  C   C30       1.0  0.9566799999999999  0.53111  0.3024  1.0000
  F   F5        1.0  0.9199299999999999  0.49646  0.34628  1.0000
  F   F6        1.0  0.9289599999999999  0.58537  0.29404  1.0000
  C   C31       1.0  0.97237  0.50856  0.22106  1.0000
  F   F7        1.0  0.9238899999999998  0.50377  0.18825  1.0000
  F   F8        1.0  0.0014699999999999956  0.45494000000000007  0.22843  1.0000
  C   C32       1.0  0.029859999999999977  0.48101000000000005  0.38485  1.0000
  H   H5        1.0  0.13602  0.53185  0.46092  1.0000
  H   H6        1.0  0.13562  0.62975  0.42169  1.0000
  H   H7        1.0  0.01595  0.62173  0.31838  1.0000
  H   H8        1.0  0.010780000000000014  0.44190000000000007  0.38311  1.0000
  C   C33       1.0  0.44476  0.012119999999999997  0.44601  1.0000
  C   C34       1.0  0.42746000000000006  0.99673  0.52515  1.0000
  C   C35       1.0  0.45692999999999995  0.011329999999999998  0.58438  1.0000
  O   O35       1.0  0.44053  0.9960600000000001  0.66318  1.0000
  C   C36       1.0  0.5039  0.04131  0.56443  1.0000
  C   C37       1.0  0.5219799999999999  0.05701  0.48569999999999997  1.0000
  C   C38       1.0  0.57282  0.08977999999999997  0.46421  1.0000
  F   F9        1.0  0.57196  0.11623  0.38887  1.0000
  F   F10       1.0  0.5709199999999999  0.13281  0.51356  1.0000
  C   C39       1.0  0.6277  0.05024000000000001  0.46738  1.0000
  F   F11       1.0  0.67049  0.07834999999999998  0.4258  1.0000
  F   F12       1.0  0.6237199999999999  0.0011699999999998944  0.43147  1.0000
  C   C40       1.0  0.49237  0.0417  0.42689  1.0000
  H   H9        1.0  0.39124  0.97351  0.54122  1.0000
  H   H10       1.0  0.40661  0.97387  0.67214  1.0000
  H   H11       1.0  0.52596  0.05274999999999999  0.61063  1.0000
  H   H12       1.0  0.50676  0.05237000000000001  0.36595  1.0000
  C   C41       1.0  0.0563  0.56311  0.8269399999999999  1.0000
  C   C42       1.0  0.05689000000000002  0.58511  0.74829  1.0000
  C   C43       1.0  0.05900999999999999  0.5482  0.68901  1.0000
  O   O36       1.0  0.05824999999999995  0.56906  0.61046  1.0000
  C   C44       1.0  0.0612  0.4893200000000001  0.70867  1.0000
  C   C45       1.0  0.062019999999999985  0.4662799999999999  0.78708  1.0000
  C   C46       1.0  0.06570999999999995  0.40212  0.80792  1.0000
  F   F13       1.0  0.05940999999999999  0.39021  0.88867  1.0000
  F   F14       1.0  0.022070000000000034  0.38034000000000007  0.77984  1.0000
  C   C47       1.0  0.12245999999999997  0.3716  0.77647  1.0000
  F   F15       1.0  0.12841999999999998  0.31720000000000004  0.81431  1.0000
  F   F16       1.0  0.16537  0.4007  0.79392  1.0000
  C   C48       1.0  0.058629999999999995  0.504  0.84597  1.0000
  H   H13       1.0  0.05483  0.63076  0.73316  1.0000
  H   H14       1.0  0.05647999999999998  0.61217  0.60148  1.0000
  H   H15       1.0  0.06183  0.46171  0.66234  1.0000
  H   H16       1.0  0.05913999999999997  0.48761  0.90681  1.0000
  C   C49       1.0  0.82054  0.9578199999999999  0.84961  1.0000
  C   C50       1.0  0.8325799999999999  0.0008799999999999901  0.89371  1.0000
  C   C51       1.0  0.87973  0.99394  0.93416  1.0000
  O   O37       1.0  0.8908299999999999  0.038149999999999906  0.9762799999999999  1.0000
  C   C52       1.0  0.91544  0.94338  0.93095  1.0000
  C   C53       1.0  0.9041099999999997  0.8995  0.88769  1.0000
  C   C54       1.0  0.94281  0.8449  0.88577  1.0000
  F   F17       1.0  0.93665  0.81725  0.82046  1.0000
  F   F18       1.0  0.9976999999999998  0.85798  0.88002  1.0000
  C   C55       1.0  0.93011  0.80469  0.96042  1.0000
  F   F19       1.0  0.87581  0.79061  0.96503  1.0000
  F   F20       1.0  0.93568  0.83212  0.025919999999999943  1.0000
  C   C56       1.0  0.8564199999999998  0.90709  0.84721  1.0000
  H   H17       1.0  0.80588  0.040510000000000046  0.89592  1.0000
  H   H18       1.0  0.9251700000000003  0.02899000000000007  0.0050600000000000644  1.0000
  H   H19       1.0  0.9521599999999999  0.9382100000000001  0.96205  1.0000
  H   H20       1.0  0.84703  0.87348  0.81399  1.0000
  C   C57       1.0  0.20477  0.22618999999999997  0.33405  1.0000
  C   C58       1.0  0.24646999999999997  0.24264999999999998  0.27523  1.0000
  C   C59       1.0  0.26591  0.20709  0.21539  1.0000
  O   O38       1.0  0.30670999999999987  0.22313  0.15567  1.0000
  C   C60       1.0  0.24391  0.15488  0.21468  1.0000
  C   C61       1.0  0.20265999999999998  0.13743  0.27368  1.0000
  C   C62       1.0  0.17773  0.08111  0.27426  1.0000
  F   F21       1.0  0.12062999999999999  0.09056999999999998  0.29206  1.0000
  F   F22       1.0  0.18689  0.06151  0.20041  1.0000
  C   C63       1.0  0.20118  0.03481  0.33535  1.0000
  F   F23       1.0  0.16381999999999997  0.99383  0.35388  1.0000
  F   F24       1.0  0.20709  0.05824000000000001  0.4037  1.0000
  C   C64       1.0  0.18357000000000004  0.17343  0.33285  1.0000
  H   H21       1.0  0.26334  0.2832  0.27514  1.0000
  H   H22       1.0  0.31972  0.2619  0.1602  1.0000
  H   H23       1.0  0.25943  0.12794  0.16825  1.0000
  H   H24       1.0  0.15149000000000004  0.16015  0.37805  1.0000
  C   C65       1.0  0.9808399999999998  0.17674  0.57682  1.0000
  C   C66       1.0  0.98507  0.11954  0.55976  1.0000
  C   C67       1.0  0.93704  0.0912  0.56157  1.0000
  O   O39       1.0  0.9403899999999997  0.03463  0.54327  1.0000
  C   C68       1.0  0.8847599999999998  0.11999  0.58123  1.0000
  C   C69       1.0  0.87965  0.1766  0.60124  1.0000
  C   C70       1.0  0.8227199999999999  0.20680000000000004  0.62565  1.0000
  F   F25       1.0  0.82579  0.26524  0.62084  1.0000
  F   F26       1.0  0.7857499999999998  0.19736  0.57391  1.0000
  C   C71       1.0  0.8002899999999998  0.18676  0.7106  1.0000
  F   F27       1.0  0.7601399999999999  0.22781000000000007  0.73897  1.0000
  F   F28       1.0  0.84276  0.18048999999999998  0.75877  1.0000
  C   C72       1.0  0.9281399999999997  0.20473  0.59826  1.0000
  H   H25       1.0  0.025460000000000035  0.0974  0.54359  1.0000
  H   H26       1.0  0.97976  0.017339999999999998  0.52847  1.0000
  H   H27       1.0  0.8480199999999998  0.09801  0.58049  1.0000
  H   H28       1.0  0.92497  0.24849  0.61296  1.0000
  C   C73       1.0  0.11024  0.7898  0.14921  1.0000
  C   C74       1.0  0.07998999999999998  0.80175  0.22115  1.0000
  C   C75       1.0  0.09224  0.84645  0.26129  1.0000
  O   O40       1.0  0.06126000000000001  0.85696  0.33268  1.0000
  C   C76       1.0  0.1355  0.87952  0.22988  1.0000
  C   C77       1.0  0.16653  0.86825  0.15801  1.0000
  C   C78       1.0  0.21418  0.9030000000000001  0.12405  1.0000
  F   F29       1.0  0.20608  0.92206  0.04722  1.0000
  F   F30       1.0  0.21195000000000003  0.95137  0.16371  1.0000
  C   C79       1.0  0.2722899999999999  0.86747  0.126  1.0000
  F   F31       1.0  0.29504  0.85919  0.05058  1.0000
  F   F32       1.0  0.26719  0.81417  0.16636  1.0000
  C   C80       1.0  0.15338  0.82335  0.11793  1.0000
  H   H29       1.0  0.046600000000000016  0.7765299999999999  0.24629999999999996  1.0000
  H   H30       1.0  0.07188999999999998  0.89137  0.35622  1.0000
  H   H31       1.0  0.14501999999999998  0.9135900000000001  0.26218  1.0000
  H   H32       1.0  0.17691000000000004  0.8146100000000001  0.06239  1.0000
