data_image0
_chemical_formula_structural       Sc3C6O13Sc3C6O13CN2C2F2CF2N2H2CN2C2F2CF2N2H2CN2C2F2CF2N2H2CN2C2F2CF2N2H2CN2C2F2CF2N2H2CN2C2F2CF2N2H2
_chemical_formula_sum              "Sc6 C36 O26 N24 F24 H12"
_cell_length_a       18.2161
_cell_length_b       19.5119
_cell_length_c       15.1573
_cell_angle_alpha    92.7282
_cell_angle_beta     93.919
_cell_angle_gamma    124.6957

_symmetry_space_group_name_H-M    'P 1'
_symmetry_Int_Tables_number       1

loop_
  _symmetry_equiv_pos_as_xyz
  'x,y,z'

loop_
  _atom_site_type_symbol
  _atom_site_label
  _atom_site_symmetry_multiplicity
  _atom_site_fract_x
  _atom_site_fract_y
  _atom_site_fract_z
  _atom_site_occupancy
  Sc  Sc1       1.0  0.54448  0.30456  0.2539  1.0000
  Sc  Sc2       1.0  0.73917  0.42416  0.23671000000000006  1.0000
  Sc  Sc3       1.0  0.64629  0.24091  0.17297  1.0000
  C   C1        1.0  0.54494  0.15716999999999998  0.3169600000000001  1.0000
  C   C2        1.0  0.66134  0.46287  0.38246  1.0000
  C   C3        1.0  0.76405  0.31369  0.3478  1.0000
  C   C4        1.0  0.60916  0.45765  0.15388000000000004  1.0000
  C   C5        1.0  0.4459699999999999  0.15552  0.11668  1.0000
  C   C6        1.0  0.8185800000000001  0.37131  0.10229  1.0000
  O   O1        1.0  0.54574  0.22251  0.3339  1.0000
  O   O2        1.0  0.73023  0.4877499999999999  0.3409600000000001  1.0000
  O   O3        1.0  0.72713  0.25654  0.283  1.0000
  O   O4        1.0  0.54264  0.38622  0.17366  1.0000
  O   O5        1.0  0.52107  0.16681  0.10082000000000003  1.0000
  O   O6        1.0  0.82785  0.43126  0.15411  1.0000
  O   O7        1.0  0.43960999999999995  0.20024999999999996  0.17757  1.0000
  O   O8        1.0  0.6921  0.48618  0.177  1.0000
  O   O9        1.0  0.7518799999999999  0.2929699999999999  0.0985  1.0000
  O   O10       1.0  0.58534  0.39157  0.36143  1.0000
  O   O11       1.0  0.57337  0.14623  0.247  1.0000
  O   O12       1.0  0.7691099999999998  0.38123  0.34437  1.0000
  O   O13       1.0  0.6322499999999999  0.3294299999999999  0.17651000000000006  1.0000
  Sc  Sc4       1.0  0.4599299999999999  0.7488999999999999  0.75591  1.0000
  Sc  Sc5       1.0  0.2954  0.57324  0.74187  1.0000
  Sc  Sc6       1.0  0.28098  0.71178  0.68672  1.0000
  C   C7        1.0  0.39384  0.84954  0.83242  1.0000
  C   C8        1.0  0.4361499999999998  0.6424399999999998  0.9023100000000002  1.0000
  C   C9        1.0  0.17618999999999982  0.6068599999999997  0.83197  1.0000
  C   C10       1.0  0.46431  0.60283  0.68432  1.0000
  C   C11       1.0  0.45340999999999987  0.8490799999999997  0.61655  1.0000
  C   C12       1.0  0.15412  0.53851  0.59252  1.0000
  O   O14       1.0  0.45073  0.83067  0.83803  1.0000
  O   O15       1.0  0.36106  0.58067  0.8615900000000002  1.0000
  O   O16       1.0  0.19359000000000004  0.66394  0.7816700000000002  1.0000
  O   O17       1.0  0.50744  0.68314  0.70385  1.0000
  O   O18       1.0  0.3664200000000001  0.80612  0.6116200000000003  1.0000
  O   O19       1.0  0.18763  0.509  0.64382  1.0000
  O   O20       1.0  0.5027100000000001  0.8376700000000001  0.6703500000000002  1.0000
  O   O21       1.0  0.38176  0.54872  0.6973600000000002  1.0000
  O   O22       1.0  0.18168000000000004  0.61622  0.59783  1.0000
  O   O23       1.0  0.4826599999999999  0.71407  0.87301  1.0000
  O   O24       1.0  0.3236499999999998  0.8103799999999999  0.7764700000000002  1.0000
  O   O25       1.0  0.21028000000000002  0.56533  0.8263900000000002  1.0000
  O   O26       1.0  0.3521499999999999  0.6710399999999997  0.68422  1.0000
  C   C13       1.0  0.41038999999999975  0.9211699999999998  0.8899600000000002  1.0000
  N   N1        1.0  0.48753  0.97605  0.94279  1.0000
  N   N2        1.0  0.48141999999999996  0.0366  0.97608  1.0000
  C   C14       1.0  0.40085999999999994  0.018659999999999993  0.94335  1.0000
  C   C15       1.0  0.37061  0.07564  0.96253  1.0000
  F   F1        1.0  0.43247  0.15341999999999995  0.9351400000000002  1.0000
  F   F2        1.0  0.28884  0.04445999999999998  0.91355  1.0000
  C   C16       1.0  0.36029  0.08488  0.06237  1.0000
  F   F3        1.0  0.3317  0.01095  0.09888  1.0000
  F   F4        1.0  0.29466000000000003  0.09946  0.06941  1.0000
  N   N3        1.0  0.35499999999999987  0.9461499999999998  0.88927  1.0000
  N   N4        1.0  0.26891  0.90452  0.84191  1.0000
  H   H1        1.0  0.26966  0.94437  0.7976300000000001  1.0000
  H   H2        1.0  0.2235000000000001  0.89252  0.88779  1.0000
  C   C17       1.0  0.50871  0.56952  0.64052  1.0000
  N   N5        1.0  0.4820499999999999  0.48966  0.6434  1.0000
  N   N6        1.0  0.5181  0.4733099999999999  0.57997  1.0000
  C   C18       1.0  0.5662699999999999  0.5430599999999998  0.5381700000000003  1.0000
  C   C19       1.0  0.60208  0.54195  0.4513500000000001  1.0000
  F   F5        1.0  0.52809  0.48420999999999986  0.39128  1.0000
  F   F6        1.0  0.64296  0.61898  0.41808  1.0000
  C   C20       1.0  0.67093  0.5185899999999998  0.46168  1.0000
  F   F7        1.0  0.6605600000000001  0.4761600000000001  0.5357300000000003  1.0000
  F   F8        1.0  0.75732  0.59241  0.47316000000000014  1.0000
  N   N7        1.0  0.56192  0.60476  0.5757  1.0000
  N   N8        1.0  0.59149  0.68272  0.54573  1.0000
  H   H3        1.0  0.5611  0.67207  0.4807300000000001  1.0000
  H   H4        1.0  0.6612599999999997  0.7168399999999998  0.5453  1.0000
  C   C21       1.0  0.8867199999999998  0.39286  0.041690000000000005  1.0000
  N   N9        1.0  0.90554  0.3389399999999999  0.01223  1.0000
  N   N10       1.0  0.9578  0.37275  0.9480700000000002  1.0000
  C   C22       1.0  0.9696099999999999  0.44667  0.93781  1.0000
  C   C23       1.0  0.017529999999999962  0.49893999999999994  0.86374  1.0000
  F   F9        1.0  0.030890000000000015  0.45023999999999986  0.80643  1.0000
  F   F10       1.0  0.9620599999999999  0.51459  0.81582  1.0000
  C   C24       1.0  0.10888999999999996  0.58293  0.8978300000000001  1.0000
  F   F11       1.0  0.14417000000000008  0.5755  0.9778  1.0000
  F   F12       1.0  0.0967299999999998  0.6463199999999998  0.91195  1.0000
  N   N11       1.0  0.9261399999999999  0.4611299999999999  0.9964400000000001  1.0000
  N   N12       1.0  0.9127  0.52522  0.0013399999999998968  1.0000
  H   H5        1.0  0.88274  0.52384  0.93941  1.0000
  H   H6        1.0  0.97548  0.58273  0.014960000000000001  1.0000
  C   C25       1.0  0.5015099999999999  0.9155799999999997  0.55828  1.0000
  N   N13       1.0  0.5916999999999998  0.9714799999999998  0.56994  1.0000
  N   N14       1.0  0.61361  0.018929999999999992  0.5035  1.0000
  C   C26       1.0  0.53671  0.9913599999999999  0.45138  1.0000
  C   C27       1.0  0.53604  0.02985000000000001  0.36778  1.0000
  F   F13       1.0  0.6213699999999999  0.06931999999999983  0.34111  1.0000
  F   F14       1.0  0.47580999999999996  0.9680699999999998  0.30075  1.0000
  C   C28       1.0  0.51248  0.094  0.3840100000000001  1.0000
  F   F15       1.0  0.55055  0.13751  0.46784  1.0000
  F   F16       1.0  0.42033  0.05212  0.38081  1.0000
  N   N15       1.0  0.46504  0.92661  0.4846800000000001  1.0000
  N   N16       1.0  0.3743399999999999  0.8765999999999998  0.44822  1.0000
  H   H7        1.0  0.37051  0.85112  0.3844000000000001  1.0000
  H   H8        1.0  0.3522299999999998  0.9154499999999998  0.4430800000000001  1.0000
  C   C29       1.0  0.47345  0.63145  0.98521  1.0000
  N   N17       1.0  0.54669  0.69559  0.03653  1.0000
  N   N18       1.0  0.5689999999999997  0.6628999999999998  0.09864  1.0000
  C   C30       1.0  0.50947  0.5789  0.08460000000000023  1.0000
  C   C31       1.0  0.51971  0.51983  0.13585000000000005  1.0000
  F   F17       1.0  0.54849  0.55343  0.22396  1.0000
  F   F18       1.0  0.4376399999999999  0.44304  0.13251999999999997  1.0000
  C   C32       1.0  0.5895  0.50869  0.09839  1.0000
  F   F19       1.0  0.6687999999999998  0.5867799999999997  0.09483  1.0000
  F   F20       1.0  0.5576999999999999  0.4684999999999999  0.012760000000000004  1.0000
  N   N19       1.0  0.44836  0.55762  0.013949999999999909  1.0000
  N   N20       1.0  0.38009  0.47723  0.97249  1.0000
  H   H9        1.0  0.33417999999999987  0.44539  0.018119999999999914  1.0000
  H   H10       1.0  0.4091099999999999  0.4454899999999999  0.95754  1.0000
  C   C33       1.0  0.08175999999999999  0.4814099999999999  0.52141  1.0000
  N   N21       1.0  0.06575999999999999  0.50741  0.44621  1.0000
  N   N22       1.0  0.9928499999999999  0.4411099999999999  0.39978  1.0000
  C   C34       1.0  0.9651700000000001  0.37524  0.44707  1.0000
  C   C35       1.0  0.87724  0.2910099999999999  0.42292  1.0000
  F   F21       1.0  0.87469  0.2617299999999999  0.33674  1.0000
  F   F22       1.0  0.87206  0.23405  0.47821  1.0000
  C   C36       1.0  0.79669  0.2970499999999999  0.4326800000000001  1.0000
  F   F23       1.0  0.81904  0.35855  0.50024  1.0000
  F   F24       1.0  0.72595  0.22193000000000002  0.45709000000000005  1.0000
  N   N23       1.0  0.02029999999999994  0.3986099999999999  0.52323  1.0000
  N   N24       1.0  0.004890000000000016  0.3515399999999998  0.59581  1.0000
  H   H11       1.0  0.0633300000000001  0.35521  0.6149  1.0000
  H   H12       1.0  0.9919699999999999  0.37907  0.64749  1.0000
