data_image0
_chemical_formula_structural       C9N2CN2CH9C9N2CN2CH9C9N2CN2CH9C9N2CN2CH9C9N2CN2CH9C9N2CN2CH9C9N2CN2CH9C9N2CN2CH9NdONdOC3O4COCO3CO2NdONdOC3O4COCO3CO2NdONdOC3O4COCO3CO2NdONdOC3O4COCO3CO2
_chemical_formula_sum              "C112 N32 H72 Nd8 O48"
_cell_length_a       15.1
_cell_length_b       14.0624
_cell_length_c       40.53329999999999
_cell_angle_alpha    105.8838
_cell_angle_beta     86.5298
_cell_angle_gamma    93.2666

_symmetry_space_group_name_H-M    'P 1'
_symmetry_Int_Tables_number       1

loop_
  _symmetry_equiv_pos_as_xyz
  'x,y,z'

loop_
  _atom_site_type_symbol
  _atom_site_label
  _atom_site_symmetry_multiplicity
  _atom_site_fract_x
  _atom_site_fract_y
  _atom_site_fract_z
  _atom_site_occupancy
  C   C1        1.0  0.5011100000000003  0.3004600000000001  0.51644  1.0000
  C   C2        1.0  0.5343599999999997  0.22799000000000005  0.48346  1.0000
  C   C3        1.0  0.52734  0.12392000000000006  0.47666  1.0000
  C   C4        1.0  0.56261  0.06244000000000001  0.44534  1.0000
  C   C5        1.0  0.5716700000000002  0.9522200000000002  0.4418000000000001  1.0000
  C   C6        1.0  0.6033200000000001  0.10780000000000013  0.4208100000000001  1.0000
  C   C7        1.0  0.6079  0.21149000000000012  0.42681  1.0000
  C   C8        1.0  0.65508  0.2597  0.40085  1.0000
  C   C9        1.0  0.6097  0.34978000000000015  0.3977000000000001  1.0000
  N   N1        1.0  0.5233  0.34267000000000003  0.3894900000000001  1.0000
  N   N2        1.0  0.48195  0.42245000000000005  0.38815000000000005  1.0000
  C   C10       1.0  0.5247  0.51297  0.3949  1.0000
  N   N3        1.0  0.6116800000000002  0.5202300000000001  0.40263  1.0000
  N   N4        1.0  0.65331  0.44008000000000025  0.40383000000000013  1.0000
  C   C11       1.0  0.57509  0.27011  0.45844  1.0000
  H   H1        1.0  0.55648  0.3541700000000001  0.52655  1.0000
  H   H2        1.0  0.4491500000000001  0.34426  0.50971  1.0000
  H   H3        1.0  0.4978600000000001  0.091  0.4961900000000001  1.0000
  H   H4        1.0  0.5314700000000002  0.9292000000000002  0.4623100000000001  1.0000
  H   H5        1.0  0.64165  0.94325  0.44711  1.0000
  H   H6        1.0  0.63495  0.06337000000000005  0.39755  1.0000
  H   H7        1.0  0.7240400000000002  0.2813900000000001  0.4089  1.0000
  H   H8        1.0  0.6595700000000002  0.20552000000000004  0.37509  1.0000
  H   H9        1.0  0.58194  0.3500600000000001  0.46388000000000007  1.0000
  C   C12       1.0  0.6258100000000002  0.9188800000000003  0.2823000000000001  1.0000
  C   C13       1.0  0.66004  0.8667500000000002  0.24654000000000004  1.0000
  C   C14       1.0  0.74298  0.89553  0.23397  1.0000
  C   C15       1.0  0.77551  0.8478800000000002  0.20076000000000002  1.0000
  C   C16       1.0  0.8634  0.88462  0.18792000000000003  1.0000
  C   C17       1.0  0.72541  0.76775  0.18062000000000003  1.0000
  C   C18       1.0  0.6422400000000003  0.7392300000000003  0.19262  1.0000
  C   C19       1.0  0.5894000000000004  0.6539500000000003  0.17046  1.0000
  C   C20       1.0  0.50583  0.68565  0.15925  1.0000
  N   N5        1.0  0.48925  0.7828400000000002  0.16413  1.0000
  N   N6        1.0  0.41297  0.8092200000000003  0.15516  1.0000
  C   C21       1.0  0.35105  0.73924  0.14048  1.0000
  N   N7        1.0  0.36826  0.6423  0.13510000000000005  1.0000
  N   N8        1.0  0.44431  0.61596  0.1441  1.0000
  C   C22       1.0  0.6090199999999999  0.7900400000000002  0.22536000000000003  1.0000
  H   H10       1.0  0.6751900000000002  0.97657  0.29526  1.0000
  H   H11       1.0  0.56416  0.9566200000000002  0.28074000000000005  1.0000
  H   H12       1.0  0.78224  0.9555900000000005  0.24999000000000002  1.0000
  H   H13       1.0  0.91719  0.8688700000000005  0.20291000000000006  1.0000
  H   H14       1.0  0.86272  0.9661200000000002  0.19227  1.0000
  H   H15       1.0  0.75028  0.7270100000000003  0.15547000000000005  1.0000
  H   H16       1.0  0.62899  0.6159000000000002  0.14703000000000005  1.0000
  H   H17       1.0  0.57256  0.59874  0.18517000000000003  1.0000
  H   H18       1.0  0.54388  0.7691200000000001  0.23449000000000003  1.0000
  C   C23       1.0  0.92427  0.28720000000000007  0.019500000000000073  1.0000
  C   C24       1.0  0.009929999999999998  0.3362700000000001  0.03414  1.0000
  C   C25       1.0  0.030050000000000004  0.43548000000000003  0.03527  1.0000
  C   C26       1.0  0.10833000000000002  0.4826400000000001  0.04915  1.0000
  C   C27       1.0  0.13057000000000002  0.5872100000000002  0.04815  1.0000
  C   C28       1.0  0.16443999999999992  0.43247000000000013  0.06447  1.0000
  C   C29       1.0  0.14342000000000008  0.3346200000000001  0.06538  1.0000
  C   C30       1.0  0.20337000000000008  0.28653  0.08449  1.0000
  C   C31       1.0  0.16396999999999995  0.19192  0.09062  1.0000
  N   N9        1.0  0.20290999999999995  0.10452  0.07622  1.0000
  N   N10       1.0  0.16154000000000002  0.019350000000000003  0.07778  1.0000
  C   C32       1.0  0.07973  0.01909000000000001  0.09351  1.0000
  N   N11       1.0  0.04251000000000001  0.10656000000000006  0.1091  1.0000
  N   N12       1.0  0.08443  0.19165000000000004  0.10807000000000001  1.0000
  C   C33       1.0  0.06716999999999995  0.2857600000000001  0.04882000000000001  1.0000
  H   H19       1.0  0.91706  0.20948000000000006  0.021139999999999937  1.0000
  H   H20       1.0  0.8680900000000001  0.32770000000000005  0.03506000000000009  1.0000
  H   H21       1.0  0.98488  0.4765100000000001  0.025240000000000005  1.0000
  H   H22       1.0  0.10245  0.6030900000000002  0.02567  1.0000
  H   H23       1.0  0.20383  0.5980200000000002  0.04493  1.0000
  H   H24       1.0  0.2238100000000003  0.4703500000000001  0.07625  1.0000
  H   H25       1.0  0.26782  0.27253  0.06962  1.0000
  H   H26       1.0  0.2168300000000001  0.3388500000000001  0.10993  1.0000
  H   H27       1.0  0.05075999999999992  0.20912000000000008  0.04771  1.0000
  C   C34       1.0  0.5733500000000004  0.19606000000000004  0.74284  1.0000
  C   C35       1.0  0.6065000000000002  0.22973  0.77844  1.0000
  C   C36       1.0  0.67698  0.17983000000000013  0.7861000000000001  1.0000
  C   C37       1.0  0.69234  0.18446000000000015  0.82011  1.0000
  C   C38       1.0  0.7602600000000003  0.12137000000000012  0.8281  1.0000
  C   C39       1.0  0.6383699999999999  0.24179000000000014  0.84668  1.0000
  C   C40       1.0  0.57154  0.29630000000000006  0.8396000000000001  1.0000
  C   C41       1.0  0.50576  0.34212999999999993  0.86797  1.0000
  C   C42       1.0  0.42288000000000014  0.27714  0.8660900000000001  1.0000
  N   N13       1.0  0.40673000000000004  0.20140000000000005  0.8377000000000001  1.0000
  N   N14       1.0  0.32842000000000005  0.15263000000000007  0.8342  1.0000
  C   C43       1.0  0.2641400000000001  0.17593000000000014  0.85946  1.0000
  N   N15       1.0  0.28198  0.24759000000000003  0.88867  1.0000
  N   N16       1.0  0.35995000000000016  0.2974000000000002  0.89198  1.0000
  C   C44       1.0  0.5557800000000003  0.29062  0.80537  1.0000
  H   H28       1.0  0.5156700000000001  0.14348000000000014  0.74305  1.0000
  H   H29       1.0  0.62488  0.1542400000000001  0.72467  1.0000
  H   H30       1.0  0.7150100000000003  0.13040000000000007  0.76558  1.0000
  H   H31       1.0  0.80879  0.09526000000000001  0.80615  1.0000
  H   H32       1.0  0.7258100000000002  0.05579000000000012  0.8341900000000001  1.0000
  H   H33       1.0  0.64594  0.24106000000000002  0.8729900000000002  1.0000
  H   H34       1.0  0.53417  0.35247  0.89344  1.0000
  H   H35       1.0  0.48944  0.4163900000000002  0.8660000000000001  1.0000
  H   H36       1.0  0.49834000000000017  0.32542000000000015  0.8000300000000001  1.0000
  C   C45       1.0  0.89857  0.68774  0.97172  1.0000
  C   C46       1.0  0.9790500000000004  0.6612500000000002  0.94778  1.0000
  C   C47       1.0  0.019419999999999986  0.5720600000000002  0.94478  1.0000
  C   C48       1.0  0.07879  0.5339900000000001  0.91701  1.0000
  C   C49       1.0  0.11712999999999998  0.43575000000000025  0.9122800000000001  1.0000
  C   C50       1.0  0.09909000000000012  0.5856000000000002  0.8924200000000001  1.0000
  C   C51       1.0  0.06208000000000012  0.67641  0.89546  1.0000
  C   C52       1.0  0.08598000000000015  0.7253700000000002  0.8670000000000002  1.0000
  C   C53       1.0  0.053199999999999935  0.8272400000000002  0.8741300000000001  1.0000
  N   N17       1.0  0.9650700000000003  0.8420800000000002  0.87437  1.0000
  N   N18       1.0  0.9354899999999999  0.9333500000000002  0.8839100000000001  1.0000
  C   C54       1.0  0.9931999999999999  0.012430000000000108  0.8930200000000001  1.0000
  N   N19       1.0  0.08132000000000007  0.9977000000000003  0.8919100000000002  1.0000
  N   N20       1.0  0.11087000000000005  0.9065000000000002  0.8828  1.0000
  C   C55       1.0  0.0027900000000000793  0.7149900000000002  0.92378  1.0000
  H   H37       1.0  0.86375  0.7483700000000002  0.96589  1.0000
  H   H38       1.0  0.85087  0.62275  0.96655  1.0000
  H   H39       1.0  0.001170000000000025  0.53007  0.96306  1.0000
  H   H40       1.0  0.11232  0.41477000000000014  0.9368800000000002  1.0000
  H   H41       1.0  0.18879000000000004  0.43892000000000025  0.9044600000000003  1.0000
  H   H42       1.0  0.14392999999999992  0.55454  0.87067  1.0000
  H   H43       1.0  0.15961000000000006  0.7295300000000002  0.86353  1.0000
  H   H44       1.0  0.05966999999999989  0.6787900000000001  0.8424800000000001  1.0000
  H   H45       1.0  0.97187  0.78447  0.92686  1.0000
  C   C56       1.0  0.09691000000000002  0.6286400000000001  0.21024000000000004  1.0000
  C   C57       1.0  0.14428  0.67893  0.24270000000000005  1.0000
  C   C58       1.0  0.2262200000000001  0.6460500000000001  0.24933  1.0000
  C   C59       1.0  0.2674  0.6894000000000002  0.2805  1.0000
  C   C60       1.0  0.356  0.6526300000000003  0.28707  1.0000
  C   C61       1.0  0.22514000000000012  0.7670800000000002  0.30495  1.0000
  C   C62       1.0  0.14268  0.7984300000000003  0.29909000000000013  1.0000
  C   C63       1.0  0.09796  0.8803900000000002  0.32597  1.0000
  C   C64       1.0  0.009640000000000091  0.8483000000000002  0.33956  1.0000
  N   N21       1.0  0.98152  0.7515200000000001  0.33221  1.0000
  N   N22       1.0  0.89937  0.7260400000000002  0.34152  1.0000
  C   C65       1.0  0.84271  0.7962200000000003  0.35884  1.0000
  N   N23       1.0  0.8718800000000002  0.8925000000000002  0.3672500000000001  1.0000
  N   N24       1.0  0.9540600000000002  0.9179700000000002  0.35803  1.0000
  C   C66       1.0  0.10306000000000001  0.7548900000000002  0.26780000000000004  1.0000
  H   H46       1.0  0.13024  0.5598200000000001  0.19614000000000006  1.0000
  H   H47       1.0  0.02805  0.6064500000000002  0.21727000000000002  1.0000
  H   H48       1.0  0.25782  0.5864  0.23034  1.0000
  H   H49       1.0  0.41006  0.6857700000000001  0.2734  1.0000
  H   H50       1.0  0.3570200000000001  0.57085  0.2769  1.0000
  H   H51       1.0  0.25577000000000005  0.804  0.32882  1.0000
  H   H52       1.0  0.14076  0.91164  0.34809  1.0000
  H   H53       1.0  0.08737999999999999  0.9409900000000003  0.3140300000000001  1.0000
  H   H54       1.0  0.03926  0.77943  0.26323  1.0000
  C   C67       1.0  0.2947000000000001  0.8733500000000002  0.49943  1.0000
  C   C68       1.0  0.31533000000000005  0.82132  0.52555  1.0000
  C   C69       1.0  0.38198  0.8638300000000002  0.5479  1.0000
  C   C70       1.0  0.3738  0.85972  0.582  1.0000
  C   C71       1.0  0.4270800000000001  0.93348  0.60843  1.0000
  C   C72       1.0  0.30937000000000003  0.7945700000000002  0.5914  1.0000
  C   C73       1.0  0.2516800000000001  0.73658  0.56692  1.0000
  C   C74       1.0  0.18152000000000001  0.6671200000000003  0.57682  1.0000
  C   C75       1.0  0.22088000000000008  0.6005200000000003  0.59476  1.0000
  N   N25       1.0  0.28529  0.5381800000000001  0.5788200000000001  1.0000
  N   N26       1.0  0.3264099999999999  0.48665000000000014  0.5960500000000001  1.0000
  C   C76       1.0  0.30415  0.4956  0.62967  1.0000
  N   N27       1.0  0.23828  0.5558800000000003  0.6453200000000001  1.0000
  N   N28       1.0  0.19718  0.60746  0.6281  1.0000
  C   C77       1.0  0.25358000000000014  0.7524400000000001  0.53412  1.0000
  H   H55       1.0  0.22167000000000006  0.8774700000000002  0.49862  1.0000
  H   H56       1.0  0.32108  0.9514700000000003  0.50705  1.0000
  H   H57       1.0  0.4316900000000001  0.9137900000000002  0.5404500000000001  1.0000
  H   H58       1.0  0.49884999999999996  0.9200700000000003  0.60254  1.0000
  H   H59       1.0  0.41054  0.92453  0.63452  1.0000
  H   H60       1.0  0.30307  0.79006  0.6177  1.0000
  H   H61       1.0  0.13060000000000008  0.7122300000000003  0.59416  1.0000
  H   H62       1.0  0.1475900000000001  0.62102  0.55392  1.0000
  H   H63       1.0  0.20309999999999997  0.71736  0.5163000000000001  1.0000
  C   C78       1.0  0.019699999999999968  0.35542000000000024  0.7626100000000002  1.0000
  C   C79       1.0  0.04280999999999999  0.2927400000000001  0.7266200000000002  1.0000
  C   C80       1.0  0.12952  0.25882000000000005  0.71831  1.0000
  C   C81       1.0  0.15415999999999996  0.20292000000000018  0.6849500000000002  1.0000
  C   C82       1.0  0.2455900000000001  0.15761000000000008  0.67699  1.0000
  C   C83       1.0  0.08908000000000003  0.1796600000000001  0.66006  1.0000
  C   C84       1.0  0.0009099999999999837  0.21123000000000008  0.6677900000000001  1.0000
  C   C85       1.0  0.9353  0.17864  0.639  1.0000
  C   C86       1.0  0.8392300000000003  0.20995  0.6445  1.0000
  N   N29       1.0  0.7752599999999998  0.15604  0.65756  1.0000
  N   N30       1.0  0.6891200000000002  0.16525  0.6538  1.0000
  C   C87       1.0  0.6624500000000001  0.2281700000000001  0.63629  1.0000
  N   N31       1.0  0.72621  0.2820200000000002  0.6234300000000003  1.0000
  N   N32       1.0  0.81201  0.27311000000000013  0.62731  1.0000
  C   C88       1.0  0.9788399999999999  0.2694  0.70117  1.0000
  H   H64       1.0  0.06925000000000006  0.41831000000000007  0.76966  1.0000
  H   H65       1.0  0.9538900000000001  0.3877100000000001  0.76356  1.0000
  H   H66       1.0  0.17766  0.27554  0.73806  1.0000
  H   H67       1.0  0.24983  0.10926  0.65024  1.0000
  H   H68       1.0  0.25279  0.1091300000000001  0.6941400000000001  1.0000
  H   H69       1.0  0.10653000000000003  0.1346800000000002  0.6344300000000003  1.0000
  H   H70       1.0  0.965  0.20447  0.61699  1.0000
  H   H71       1.0  0.93363  0.0963600000000001  0.6301800000000001  1.0000
  H   H72       1.0  0.9121800000000001  0.29545000000000005  0.70748  1.0000
  Nd  Nd1       1.0  0.36459000000000014  0.7562400000000002  0.3958400000000001  1.0000
  O   O1        1.0  0.51974  0.7803100000000002  0.40255  1.0000
  Nd  Nd2       1.0  0.56945  0.7276700000000003  0.3455000000000001  1.0000
  O   O2        1.0  0.59155  0.88804  0.38031  1.0000
  C   C89       1.0  0.47443  0.6005200000000003  0.39565  1.0000
  C   C90       1.0  0.37271  0.6795600000000003  0.32478  1.0000
  C   C91       1.0  0.33035  0.82504  0.46443  1.0000
  O   O3        1.0  0.3941500000000001  0.59777  0.39675  1.0000
  O   O4        1.0  0.50822  0.6966800000000002  0.39713  1.0000
  O   O5        1.0  0.30346000000000006  0.7409300000000002  0.44726000000000005  1.0000
  O   O6        1.0  0.38206000000000007  0.8694300000000001  0.44754  1.0000
  C   C92       1.0  0.7474  0.77168  0.36044000000000004  1.0000
  O   O7        1.0  0.6116300000000002  0.7566000000000003  0.29404  1.0000
  C   C93       1.0  0.60695  0.8499900000000001  0.30454  1.0000
  O   O8        1.0  0.58495  0.8810700000000002  0.33624000000000004  1.0000
  O   O9        1.0  0.68961  0.8351  0.36663  1.0000
  O   O10       1.0  0.7137600000000002  0.68609  0.3505300000000001  1.0000
  C   C94       1.0  0.55418  0.87906  0.40712  1.0000
  O   O11       1.0  0.4226600000000001  0.76141  0.34151  1.0000
  O   O12       1.0  0.3307700000000001  0.6420700000000001  0.3447800000000001  1.0000
  Nd  Nd3       1.0  0.9146300000000003  0.75649  0.07996  1.0000
  O   O13       1.0  0.06967000000000002  0.75413  0.08342  1.0000
  Nd  Nd4       1.0  0.08382  0.80931  0.14245  1.0000
  O   O14       1.0  0.11664000000000005  0.6510700000000001  0.10921  1.0000
  C   C95       1.0  0.026360000000000012  0.9270900000000002  0.08921000000000003  1.0000
  C   C96       1.0  0.8832100000000002  0.8391200000000001  0.15042  1.0000
  C   C97       1.0  0.91609  0.7168700000000002  0.009290000000000001  1.0000
  O   O15       1.0  0.94803  0.9213600000000002  0.08394  1.0000
  O   O16       1.0  0.058  0.83458  0.08814  1.0000
  O   O17       1.0  0.8827300000000001  0.7909000000000003  0.029820000000000003  1.0000
  O   O18       1.0  0.95559  0.66611  0.02454  1.0000
  C   C98       1.0  0.26118  0.7655200000000002  0.13664  1.0000
  O   O19       1.0  0.08874000000000003  0.7868900000000002  0.19631000000000007  1.0000
  C   C99       1.0  0.09251000000000005  0.69342  0.18642  1.0000
  O   O20       1.0  0.09258000000000001  0.6589700000000002  0.15392  1.0000
  O   O21       1.0  0.1991  0.701  0.1297  1.0000
  O   O22       1.0  0.23448000000000005  0.8522800000000001  0.14333000000000004  1.0000
  C   C100      1.0  0.09946999999999999  0.65909  0.08084  1.0000
  O   O23       1.0  0.9355800000000002  0.7599300000000001  0.13741  1.0000
  O   O24       1.0  0.85255  0.8665200000000002  0.12786  1.0000
  Nd  Nd5       1.0  0.8871500000000001  0.29646000000000006  0.9172800000000001  1.0000
  O   O25       1.0  0.03202000000000001  0.2706700000000001  0.89304  1.0000
  Nd  Nd6       1.0  0.005950000000000018  0.19229000000000018  0.8362600000000001  1.0000
  O   O26       1.0  0.06717  0.35361  0.85527  1.0000
  C   C101      1.0  0.9609900000000003  0.11196000000000014  0.90286  1.0000
  C   C102      1.0  0.8080099999999999  0.18062000000000014  0.85843  1.0000
  C   C103      1.0  0.9165700000000001  0.2880100000000002  0.9829000000000002  1.0000
  O   O27       1.0  0.8913400000000002  0.13395000000000004  0.91913  1.0000
  O   O28       1.0  0.005730000000000011  0.19371000000000013  0.89476  1.0000
  O   O29       1.0  0.8802900000000001  0.2184800000000001  0.96089  1.0000
  O   O30       1.0  0.9408  0.3595800000000001  0.97109  1.0000
  C   C104      1.0  0.17203  0.15482000000000012  0.85092  1.0000
  O   O31       1.0  0.9829900000000005  0.20963  0.78321  1.0000
  C   C105      1.0  0.016890000000000002  0.2972000000000003  0.7888200000000001  1.0000
  O   O32       1.0  0.04594999999999997  0.33227000000000023  0.8190700000000001  1.0000
  O   O33       1.0  0.10953000000000002  0.17473999999999998  0.87336  1.0000
  O   O34       1.0  0.14722  0.13983  0.82076  1.0000
  C   C106      1.0  0.06919999999999998  0.35738000000000025  0.8859300000000001  1.0000
  O   O35       1.0  0.86893  0.25526  0.85797  1.0000
  O   O36       1.0  0.79135  0.17402000000000012  0.88717  1.0000
  Nd  Nd7       1.0  0.4631000000000001  0.3760000000000001  0.69072  1.0000
  O   O37       1.0  0.49002  0.22559999999999994  0.64858  1.0000
  Nd  Nd8       1.0  0.3965  0.23136000000000012  0.6060800000000001  1.0000
  O   O38       1.0  0.5495800000000002  0.2316  0.59866  1.0000
  C   C107      1.0  0.32434999999999997  0.23154000000000013  0.6816700000000001  1.0000
  C   C108      1.0  0.35716  0.45003000000000015  0.6498000000000002  1.0000
  C   C109      1.0  0.5440100000000002  0.27562  0.72868  1.0000
  O   O39       1.0  0.32812  0.30686  0.70479  1.0000
  O   O40       1.0  0.4043300000000001  0.21968000000000013  0.6617900000000001  1.0000
  O   O41       1.0  0.5749400000000002  0.2865700000000001  0.70065  1.0000
  O   O42       1.0  0.4774999999999999  0.3266300000000001  0.73986  1.0000
  C   C110      1.0  0.41134  0.03863000000000003  0.60845  1.0000
  O   O43       1.0  0.38224000000000014  0.26480000000000015  0.5547800000000002  1.0000
  C   C111      1.0  0.46426000000000006  0.26197000000000015  0.5458200000000002  1.0000
  O   O44       1.0  0.5127  0.23910000000000006  0.56716  1.0000
  O   O45       1.0  0.42994000000000004  0.1125600000000002  0.6331700000000002  1.0000
  O   O46       1.0  0.38262000000000007  0.06356000000000007  0.5834800000000001  1.0000
  C   C112      1.0  0.56818  0.23020000000000007  0.6275100000000001  1.0000
  O   O47       1.0  0.42954  0.39546000000000014  0.63693  1.0000
  O   O48       1.0  0.3462  0.46239000000000013  0.68046  1.0000
