data_image0
_chemical_formula_structural       Mn5CN8C2N8CN16Cl2C4Mn5CN8C2N8CN16Cl2C4Mn5CN8C2N8CN16Cl2C4Mn5CN8C2N8CN16Cl2C8FCFC2FCFH4C4FCFC2FCFH4C4FCFC2FCFH4C4FCFC2FCFH4C4FCFC2FCFH4C4FCFC2FCFH4C4FCFC2FCFH4C4FCFC2FCFH4C4FCFC2FCFH4C4FCFC2FCFH4C4FCFC2FCFH4C4FCFC2FCFH4C4FCFC2FCFH4C4FCFC2FCFH4C4FCFC2FCFH4C4FCFC2FCFH4
_chemical_formula_sum              "Mn20 C160 N128 Cl8 F64 H64"
_cell_length_a       12.0189
_cell_length_b       29.278
_cell_length_c       30.4536
_cell_angle_alpha    125.2543
_cell_angle_beta     90.6381
_cell_angle_gamma    89.7905

_space_group_name_H-M_alt    "P 1"
_space_group_IT_number       1

loop_
  _space_group_symop_operation_xyz
  'x, y, z'

loop_
  _atom_site_type_symbol
  _atom_site_label
  _atom_site_symmetry_multiplicity
  _atom_site_fract_x
  _atom_site_fract_y
  _atom_site_fract_z
  _atom_site_occupancy
  Mn  Mn1       1.0  0.1018699999999999  0.4285199999999999  0.24361  1.0000
  Mn  Mn2       1.0  0.3307  0.36529  0.16288  1.0000
  Mn  Mn3       1.0  0.40488999999999997  0.060580000000000016  0.82043  1.0000
  Mn  Mn4       1.0  0.18428999999999998  0.15042000000000003  0.88423  1.0000
  Mn  Mn5       1.0  0.2561  0.26224  0.022580000000000003  1.0000
  C   C1        1.0  0.20276  0.35929  0.28248  1.0000
  N   N1        1.0  0.20494  0.37946  0.2523  1.0000
  N   N2        1.0  0.29576  0.3583799999999999  0.22344000000000003  1.0000
  N   N3        1.0  0.35034  0.32824  0.23611  1.0000
  N   N4        1.0  0.29382  0.32778  0.27288  1.0000
  N   N5        1.0  0.44974  0.26579  0.13731  1.0000
  N   N6        1.0  0.38798  0.28758  0.11800000000000002  1.0000
  N   N7        1.0  0.34867  0.24816999999999997  0.07003  1.0000
  N   N8        1.0  0.38247  0.19850999999999994  0.05665  1.0000
  C   C2        1.0  0.44605999999999996  0.21048999999999995  0.09904000000000002  1.0000
  C   C3        1.0  0.41862999999999995  0.4040999999999999  0.06052  1.0000
  N   N9        1.0  0.36448  0.3725499999999999  0.10315  1.0000
  N   N10       1.0  0.41492  0.4163199999999999  0.11029  1.0000
  N   N11       1.0  0.14381999999999998  0.30793  0.08319  1.0000
  N   N12       1.0  0.17477  0.33961  0.13431  1.0000
  N   N13       1.0  0.08773  0.3653299999999999  0.16519  1.0000
  N   N14       1.0  0.9970699999999998  0.3526  0.13565  1.0000
  N   N15       1.0  0.34062  0.33498  0.05169  1.0000
  N   N16       1.0  0.37206  0.35385999999999995  0.02347  1.0000
  C   C4        1.0  0.03201  0.31631  0.08465  1.0000
  N   N17       1.0  0.33622  0.10318999999999996  0.79394  1.0000
  N   N18       1.0  0.25548  0.13977000000000014  0.8188200000000002  1.0000
  N   N19       1.0  0.24387999999999999  0.16901  0.79818  1.0000
  N   N20       1.0  0.31817999999999996  0.15112  0.75945  1.0000
  N   N21       1.0  0.12695  0.25522  0.89347  1.0000
  N   N22       1.0  0.15235  0.23318000000000008  0.91998  1.0000
  N   N23       1.0  0.16935  0.27349000000000007  0.9715700000000003  1.0000
  N   N24       1.0  0.15676  0.32286000000000004  0.9799000000000001  1.0000
  N   N25       1.0  0.14421  0.17456  0.027740000000000004  1.0000
  N   N26       1.0  0.16721999999999998  0.1920100000000001  0.9972100000000002  1.0000
  N   N27       1.0  0.12635000000000002  0.1564700000000002  0.9483600000000002  1.0000
  N   N28       1.0  0.07620000000000002  0.11448999999999988  0.94494  1.0000
  N   N29       1.0  0.36822  0.21538999999999994  0.96217  1.0000
  N   N30       1.0  0.33601  0.1681899999999999  0.91743  1.0000
  N   N31       1.0  0.42163  0.1356900000000001  0.8916800000000001  1.0000
  N   N32       1.0  0.51484  0.16142999999999996  0.9169  1.0000
  Cl  Cl1       1.0  0.25170999999999993  0.44974999999999987  0.2123  1.0000
  Cl  Cl2       1.0  0.22884000000000002  0.05927000000000002  0.84588  1.0000
  C   C5        1.0  0.37482  0.10988000000000006  0.7572500000000001  1.0000
  C   C6        1.0  0.12881  0.31095  0.93129  1.0000
  C   C7        1.0  0.08753999999999999  0.12640000000000004  0.9945800000000001  1.0000
  C   C8        1.0  0.48118999999999995  0.21142000000000014  0.9605900000000003  1.0000
  Mn  Mn6       1.0  0.64141  0.9576499999999998  0.25124  1.0000
  Mn  Mn7       1.0  0.8468799999999999  0.87942  0.16016  1.0000
  Mn  Mn8       1.0  0.8314199999999999  0.58077  0.80464  1.0000
  Mn  Mn9       1.0  0.62348  0.65513  0.89664  1.0000
  Mn  Mn10      1.0  0.7348699999999999  0.76809  0.02846  1.0000
  C   C9        1.0  0.7716  0.91216  0.30554  1.0000
  N   N33       1.0  0.7525599999999999  0.9141599999999996  0.26325  1.0000
  N   N34       1.0  0.83275  0.88487  0.22915000000000002  1.0000
  N   N35       1.0  0.90103  0.8658899999999998  0.24952  1.0000
  N   N36       1.0  0.8641399999999999  0.88197  0.29742  1.0000
  N   N37       1.0  0.95644  0.78016  0.14081  1.0000
  N   N38       1.0  0.8949999999999999  0.79965  0.11899  1.0000
  N   N39       1.0  0.8487999999999999  0.7581  0.07361  1.0000
  N   N40       1.0  0.8771799999999997  0.7098  0.06529  1.0000
  C   C10       1.0  0.94542  0.72435  0.10733  1.0000
  C   C11       1.0  0.89661  0.8998699999999997  0.04184  1.0000
  N   N41       1.0  0.85866  0.87699  0.09369  1.0000
  N   N42       1.0  0.91021  0.91591  0.09272000000000002  1.0000
  N   N43       1.0  0.63968  0.8175099999999997  0.09620000000000001  1.0000
  N   N44       1.0  0.68533  0.8561899999999998  0.14331  1.0000
  N   N45       1.0  0.60758  0.8862299999999999  0.17890000000000003  1.0000
  N   N46       1.0  0.50803  0.86881  0.15693  1.0000
  N   N47       1.0  0.81633  0.83821  0.046020000000000005  1.0000
  N   N48       1.0  0.83818  0.8513799999999998  0.011860000000000004  1.0000
  C   C12       1.0  0.52768  0.82542  0.10557  1.0000
  N   N49       1.0  0.71873  0.6253499999999999  0.7945300000000001  1.0000
  N   N50       1.0  0.63541  0.65084  0.82803  1.0000
  N   N51       1.0  0.5711099999999999  0.67563  0.8123  1.0000
  N   N52       1.0  0.61408  0.6681999999999998  0.76875  1.0000
  N   N53       1.0  0.51113  0.7544200000000001  0.91685  1.0000
  N   N54       1.0  0.5724  0.73511  0.93887  1.0000
  N   N55       1.0  0.6212799999999999  0.77687  0.9833  1.0000
  N   N56       1.0  0.59522  0.8247900000000001  0.9905200000000001  1.0000
  N   N57       1.0  0.64331  0.68504  0.045620000000000015  1.0000
  N   N58       1.0  0.65526  0.69841  0.01142  1.0000
  N   N59       1.0  0.6153100000000001  0.65815  0.96364  1.0000
  N   N60       1.0  0.57396  0.6173900000000001  0.9652200000000001  1.0000
  N   N61       1.0  0.82818  0.7187200000000001  0.96086  1.0000
  N   N62       1.0  0.78395  0.6794900000000001  0.9136700000000002  1.0000
  N   N63       1.0  0.86294  0.65067  0.87847  1.0000
  N   N64       1.0  0.9616499999999999  0.66994  0.9009  1.0000
  Cl  Cl3       1.0  0.7819899999999999  0.9677899999999998  0.20721  1.0000
  Cl  Cl4       1.0  0.6924900000000002  0.5667400000000001  0.8472200000000001  1.0000
  C   C13       1.0  0.7064199999999999  0.63701  0.7579800000000002  1.0000
  C   C14       1.0  0.52432  0.81008  0.94948  1.0000
  C   C15       1.0  0.59234  0.6346399999999998  0.01623  1.0000
  C   C16       1.0  0.93973  0.7130700000000001  0.9522000000000003  1.0000
  Mn  Mn11      1.0  0.16287999999999989  0.54467  0.28831  1.0000
  Mn  Mn12      1.0  0.37476  0.62924  0.37299  1.0000
  Mn  Mn13      1.0  0.39888999999999997  0.94298  0.71869  1.0000
  Mn  Mn14      1.0  0.18842999999999996  0.84862  0.64345  1.0000
  Mn  Mn15      1.0  0.27985  0.73723  0.50818  1.0000
  C   C17       1.0  0.24971999999999997  0.6  0.23406  1.0000
  N   N65       1.0  0.25255  0.59275  0.27382  1.0000
  N   N66       1.0  0.33532  0.62424  0.30563  1.0000
  N   N67       1.0  0.38418  0.6494699999999999  0.28628000000000003  1.0000
  N   N68       1.0  0.33195  0.63516  0.24139000000000002  1.0000
  N   N69       1.0  0.47217  0.73051  0.39212  1.0000
  N   N70       1.0  0.41284  0.70962  0.41265000000000013  1.0000
  N   N71       1.0  0.37306999999999996  0.7497899999999997  0.45987000000000006  1.0000
  N   N72       1.0  0.40322  0.7990599999999998  0.47115  1.0000
  C   C18       1.0  0.4655999999999999  0.78609  0.42864  1.0000
  C   C19       1.0  0.45163  0.60314  0.48554  1.0000
  N   N73       1.0  0.41117  0.63224  0.4386200000000001  1.0000
  N   N74       1.0  0.45904999999999996  0.59021  0.43567  1.0000
  N   N75       1.0  0.17555  0.68362  0.44391  1.0000
  N   N76       1.0  0.21471  0.64694  0.39517  1.0000
  N   N77       1.0  0.13441  0.61374  0.36233000000000004  1.0000
  N   N78       1.0  0.039469999999999894  0.62659  0.38781  1.0000
  N   N79       1.0  0.37571  0.66982  0.4877900000000001  1.0000
  N   N80       1.0  0.39947  0.65272  0.51892  1.0000
  C   C20       1.0  0.06487999999999997  0.67027  0.43841  1.0000
  N   N81       1.0  0.32700000000000007  0.89659  0.74007  1.0000
  N   N82       1.0  0.24748  0.85963  0.71182  1.0000
  N   N83       1.0  0.23085  0.82924  0.73066  1.0000
  N   N84       1.0  0.30129999999999996  0.8460300000000001  0.7714100000000003  1.0000
  N   N85       1.0  0.11095  0.74455  0.62978  1.0000
  N   N86       1.0  0.15957  0.76605  0.60684  1.0000
  N   N87       1.0  0.18940999999999994  0.7258  0.55732  1.0000
  N   N88       1.0  0.16342000000000004  0.67644  0.54678  1.0000
  N   N89       1.0  0.16901  0.82154  0.49665000000000004  1.0000
  N   N90       1.0  0.1835  0.8040199999999998  0.52775  1.0000
  N   N91       1.0  0.1421  0.84101  0.57599  1.0000
  N   N92       1.0  0.09947  0.88363  0.57763  1.0000
  N   N93       1.0  0.38319  0.79113  0.57179  1.0000
  N   N94       1.0  0.34486  0.83434  0.6178  1.0000
  N   N95       1.0  0.4252099999999999  0.87031  0.64661  1.0000
  N   N96       1.0  0.52051  0.8516199999999998  0.6214700000000001  1.0000
  Cl  Cl5       1.0  0.32048  0.5395299999999998  0.32854  1.0000
  Cl  Cl6       1.0  0.22825999999999996  0.94101  0.68504  1.0000
  C   C21       1.0  0.36057  0.88821  0.7767900000000001  1.0000
  C   C22       1.0  0.11382  0.68881  0.59201  1.0000
  C   C23       1.0  0.11543  0.8708499999999998  0.52809  1.0000
  C   C24       1.0  0.49398  0.80194  0.57512  1.0000
  Mn  Mn16      1.0  0.60939  0.055289999999999964  0.29859  1.0000
  Mn  Mn17      1.0  0.81081  0.14319  0.38968  1.0000
  Mn  Mn18      1.0  0.79918  0.4210399999999999  0.75223  1.0000
  Mn  Mn19      1.0  0.5919  0.34234999999999993  0.65907  1.0000
  Mn  Mn20      1.0  0.7012399999999998  0.24212999999999998  0.52422  1.0000
  C   C25       1.0  0.7145499999999998  0.10568999999999998  0.24457  1.0000
  N   N97       1.0  0.69734  0.10752000000000003  0.28903  1.0000
  N   N98       1.0  0.7753399999999999  0.14106000000000002  0.32353000000000004  1.0000
  N   N99       1.0  0.8399099999999999  0.15876999999999997  0.30134  1.0000
  N   N100      1.0  0.80311  0.13771  0.25186  1.0000
  N   N101      1.0  0.88769  0.25362  0.41761  1.0000
  N   N102      1.0  0.8372599999999999  0.2265  0.43458  1.0000
  N   N103      1.0  0.79945  0.26222000000000006  0.4836800000000001  1.0000
  N   N104      1.0  0.8239299999999999  0.31405  0.50052  1.0000
  C   C26       1.0  0.8787199999999998  0.308  0.45903  1.0000
  C   C27       1.0  0.8813099999999998  0.10956999999999997  0.49888  1.0000
  N   N105      1.0  0.84256  0.14105  0.45338  1.0000
  N   N106      1.0  0.8944699999999998  0.09926999999999996  0.44999  1.0000
  N   N107      1.0  0.60427  0.19178000000000003  0.4558800000000001  1.0000
  N   N108      1.0  0.64892  0.15536  0.40841  1.0000
  N   N109      1.0  0.57208  0.1219  0.37317  1.0000
  N   N110      1.0  0.47325  0.13515999999999995  0.39549  1.0000
  N   N111      1.0  0.7985899999999999  0.17492000000000005  0.50142  1.0000
  N   N112      1.0  0.8213999999999999  0.15653  0.53134  1.0000
  C   C28       1.0  0.49327  0.17904999999999993  0.44686  1.0000
  N   N113      1.0  0.70106  0.36949000000000004  0.7590200000000001  1.0000
  N   N114      1.0  0.6204  0.34034  0.72387  1.0000
  N   N115      1.0  0.56615  0.31101  0.73727  1.0000
  N   N116      1.0  0.6128  0.3196800000000001  0.7811600000000002  1.0000
  N   N117      1.0  0.50404  0.23438999999999988  0.62984  1.0000
  N   N118      1.0  0.55538  0.26014  0.61189  1.0000
  N   N119      1.0  0.60313  0.22323000000000007  0.5654400000000002  1.0000
  N   N120      1.0  0.587  0.17210999999999999  0.55245  1.0000
  N   N121      1.0  0.58125  0.32642  0.51586  1.0000
  N   N122      1.0  0.60505  0.30954  0.5468  1.0000
  N   N123      1.0  0.56672  0.34588  0.59576  1.0000
  N   N124      1.0  0.51543  0.38733999999999996  0.59835  1.0000
  N   N125      1.0  0.7972199999999998  0.29142  0.59218  1.0000
  N   N126      1.0  0.7537499999999998  0.32624  0.64029  1.0000
  N   N127      1.0  0.83269  0.35557  0.67625  1.0000
  N   N128      1.0  0.9311499999999999  0.34064  0.65345  1.0000
  Cl  Cl7       1.0  0.7685099999999998  0.05113999999999998  0.33826  1.0000
  Cl  Cl8       1.0  0.6465299999999999  0.4333599999999999  0.71393  1.0000
  C   C29       1.0  0.69736  0.3560799999999999  0.79465  1.0000
  C   C30       1.0  0.52392  0.17985000000000007  0.59257  1.0000
  C   C31       1.0  0.52483  0.37459  0.5484  1.0000
  C   C32       1.0  0.90908  0.29997000000000007  0.6009800000000001  1.0000
  C   C33       1.0  0.5635699999999999  0.25633  0.99652  1.0000
  C   C34       1.0  0.63796  0.26876000000000005  0.96296  1.0000
  C   C35       1.0  0.75673  0.2779  0.9823300000000001  1.0000
  C   C36       1.0  0.80817  0.33055  0.00839  1.0000
  F   F1        1.0  0.7592399999999998  0.3727499999999999  0.0091  1.0000
  C   C37       1.0  0.9084499999999999  0.34076  0.03631  1.0000
  F   F2        1.0  0.9516299999999999  0.39339  0.06553  1.0000
  C   C38       1.0  0.9566799999999998  0.29887  0.03944  1.0000
  C   C39       1.0  0.9077  0.24566999999999997  0.010830000000000003  1.0000
  F   F3        1.0  0.9378899999999999  0.20800999999999994  0.02067  1.0000
  C   C40       1.0  0.81308  0.23420000000000002  0.9794100000000001  1.0000
  F   F4        1.0  0.76745  0.18217999999999998  0.95223  1.0000
  H   H1        1.0  0.61295  0.24038999999999996  0.01601000000000008  1.0000
  H   H2        1.0  0.52495  0.29518  0.02966  1.0000
  H   H3        1.0  0.63858  0.23352  0.9195600000000002  1.0000
  H   H4        1.0  0.60429  0.3052799999999999  0.9648900000000001  1.0000
  C   C41       1.0  0.03019000000000001  0.7453099999999998  0.9934800000000001  1.0000
  C   C42       1.0  0.13759  0.7454699999999997  0.96653  1.0000
  C   C43       1.0  0.23707999999999999  0.7662  0.003989999999999938  1.0000
  C   C44       1.0  0.29335  0.73058  0.013660000000000002  1.0000
  F   F5        1.0  0.25384  0.6782599999999999  0.99255  1.0000
  C   C45       1.0  0.38868  0.74943  0.046610000000000006  1.0000
  F   F6        1.0  0.42834999999999995  0.71879  0.0636  1.0000
  C   C46       1.0  0.4359  0.80169  0.06562  1.0000
  C   C47       1.0  0.37706  0.8377599999999998  0.05730999999999998  1.0000
  F   F7        1.0  0.41445999999999994  0.8905699999999998  0.07936999999999994  1.0000
  C   C48       1.0  0.27724  0.82063  0.02804000000000007  1.0000
  F   F8        1.0  0.21714999999999998  0.8579100000000001  0.024999999999999915  1.0000
  H   H5        1.0  0.04581999999999999  0.7256  0.014939999999999955  1.0000
  H   H6        1.0  0.004000000000000004  0.7890199999999998  0.023099999999999902  1.0000
  H   H7        1.0  0.15718  0.7027399999999999  0.9308900000000001  1.0000
  H   H8        1.0  0.12364999999999998  0.7714500000000001  0.9511000000000001  1.0000
  C   C49       1.0  0.58119  0.7643999999999997  0.53646  1.0000
  C   C50       1.0  0.6697799999999999  0.75381  0.56667  1.0000
  C   C51       1.0  0.77745  0.73324  0.53654  1.0000
  C   C52       1.0  0.83768  0.76734  0.52647  1.0000
  F   F9        1.0  0.8016  0.81943  0.5447500000000001  1.0000
  C   C53       1.0  0.93263  0.74695  0.49500000000000005  1.0000
  F   F10       1.0  0.9709799999999998  0.77389  0.47415  1.0000
  C   C54       1.0  0.9784499999999999  0.69579  0.4794900000000001  1.0000
  C   C55       1.0  0.92021  0.66214  0.49081  1.0000
  F   F11       1.0  0.9579099999999999  0.6102800000000002  0.47242000000000006  1.0000
  C   C56       1.0  0.81944  0.68032  0.51839  1.0000
  F   F12       1.0  0.76193  0.64577  0.52623  1.0000
  H   H9        1.0  0.61698  0.78586  0.51953  1.0000
  H   H10       1.0  0.54637  0.72423  0.50263  1.0000
  H   H11       1.0  0.6895  0.7928  0.60674  1.0000
  H   H12       1.0  0.63486  0.7239  0.5743  1.0000
  C   C57       1.0  0.9995499999999999  0.27134  0.55955  1.0000
  C   C58       1.0  0.11155  0.27511  0.58655  1.0000
  C   C59       1.0  0.20697  0.24868  0.54759  1.0000
  C   C60       1.0  0.25531  0.27585  0.52659  1.0000
  F   F13       1.0  0.20889  0.32301  0.53594  1.0000
  C   C61       1.0  0.35015999999999997  0.25358999999999987  0.49452  1.0000
  F   F14       1.0  0.38528999999999997  0.27558000000000005  0.46823000000000004  1.0000
  C   C62       1.0  0.40213  0.20596000000000006  0.48566000000000004  1.0000
  C   C63       1.0  0.3483699999999999  0.17629  0.50269  1.0000
  F   F15       1.0  0.38580999999999993  0.12511  0.48678  1.0000
  C   C64       1.0  0.25228  0.19771000000000005  0.5337700000000001  1.0000
  F   F16       1.0  0.2006  0.16745  0.54847  1.0000
  H   H13       1.0  0.00659  0.29151  0.53813  1.0000
  H   H14       1.0  0.97902  0.22671  0.52999  1.0000
  H   H15       1.0  0.13364  0.3195599999999999  0.61794  1.0000
  H   H16       1.0  0.10114  0.2545200000000001  0.60758  1.0000
  C   C65       1.0  0.55706  0.60213  0.03726  1.0000
  C   C66       1.0  0.60408  0.54276  0.0020000000000000018  1.0000
  C   C67       1.0  0.55545  0.50705  0.017719999999999958  1.0000
  C   C68       1.0  0.44387999999999994  0.48911000000000004  0.0048200000000002685  1.0000
  F   F17       1.0  0.37958  0.5021500000000002  0.9765400000000001  1.0000
  C   C69       1.0  0.39811  0.4575199999999999  0.0210999999999999  1.0000
  F   F18       1.0  0.28813  0.4449299999999999  0.01307999999999998  1.0000
  C   C70       1.0  0.46378  0.44194  0.04862  1.0000
  C   C71       1.0  0.57314  0.46183999999999986  0.06373  1.0000
  F   F19       1.0  0.63502  0.4507  0.0941  1.0000
  C   C72       1.0  0.6196899999999999  0.49296  0.04708  1.0000
  F   F20       1.0  0.7277099999999997  0.5088600000000002  0.05919  1.0000
  H   H17       1.0  0.46467  0.6011699999999999  0.03671  1.0000
  H   H18       1.0  0.58647  0.62322  0.07955  1.0000
  H   H19       1.0  0.58523  0.52312  0.9587800000000001  1.0000
  H   H20       1.0  0.69614  0.5452900000000002  0.006480000000000041  1.0000
  C   C73       1.0  0.48413  0.4115699999999999  0.5326  1.0000
  C   C74       1.0  0.58259  0.43693  0.52206  1.0000
  C   C75       1.0  0.54356  0.48063000000000006  0.51397  1.0000
  C   C76       1.0  0.55854  0.53806  0.55486  1.0000
  F   F21       1.0  0.60486  0.55514  0.60291  1.0000
  C   C77       1.0  0.52571  0.57849  0.5466  1.0000
  F   F22       1.0  0.5445499999999999  0.63339  0.58594  1.0000
  C   C78       1.0  0.47800999999999993  0.5620299999999998  0.4972800000000001  1.0000
  C   C79       1.0  0.45971  0.50465  0.45699000000000006  1.0000
  F   F23       1.0  0.40986  0.48733  0.40943  1.0000
  C   C80       1.0  0.49198  0.4643599999999999  0.4653  1.0000
  F   F24       1.0  0.47379  0.40941999999999995  0.42552000000000006  1.0000
  H   H21       1.0  0.43465  0.44603  0.56626  1.0000
  H   H22       1.0  0.4292  0.38721999999999984  0.49644  1.0000
  H   H23       1.0  0.64143  0.45583  0.55682  1.0000
  H   H24       1.0  0.62907  0.40369  0.48607  1.0000
  C   C81       1.0  0.04318  0.09045  0.01055  1.0000
  C   C82       1.0  0.08065  0.029660000000000124  0.9711500000000001  1.0000
  C   C83       1.0  0.0344  0.99405  0.98768  1.0000
  C   C84       1.0  0.92564  0.9725299999999999  0.97251  1.0000
  F   F25       1.0  0.86163  0.9831499999999999  0.94237  1.0000
  C   C85       1.0  0.88094  0.9414900000000002  0.9898200000000001  1.0000
  F   F26       1.0  0.77292  0.92578  0.9790200000000001  1.0000
  C   C86       1.0  0.9441  0.93128  0.02224  1.0000
  C   C87       1.0  0.05088  0.95511  0.03948000000000001  1.0000
  F   F27       1.0  0.11006999999999999  0.95046  0.07489  1.0000
  C   C88       1.0  0.09653999999999999  0.98525  0.021460000000000038  1.0000
  F   F28       1.0  0.20032  0.007139999999999925  0.03815999999999997  1.0000
  H   H25       1.0  0.95077  0.09283  0.011110000000000002  1.0000
  H   H26       1.0  0.07344999999999999  0.10672000000000002  0.05179  1.0000
  H   H27       1.0  0.05187  0.0130299999999999  0.92961  1.0000
  H   H28       1.0  0.1731  0.02776000000000016  0.9701800000000003  1.0000
  C   C89       1.0  0.9162699999999999  0.07059000000000006  0.5136400000000001  1.0000
  C   C90       1.0  0.005450000000000003  0.02816999999999996  0.47567  1.0000
  C   C91       1.0  0.03506  0.9862700000000001  0.4882000000000001  1.0000
  C   C92       1.0  0.022469999999999987  0.92804  0.4492500000000001  1.0000
  F   F29       1.0  0.98399  0.90758  0.39899  1.0000
  C   C93       1.0  0.05133000000000001  0.8901099999999997  0.4616100000000001  1.0000
  F   F30       1.0  0.038559999999999935  0.8343600000000001  0.42354000000000014  1.0000
  C   C94       1.0  0.09068000000000001  0.9097499999999997  0.5132800000000001  1.0000
  C   C95       1.0  0.10587  0.9675299999999996  0.55154  1.0000
  F   F31       1.0  0.14771  0.9876599999999999  0.6012  1.0000
  C   C96       1.0  0.08155  0.005099999999999986  0.53855  1.0000
  F   F32       1.0  0.10560999999999998  0.060020000000000025  0.57498  1.0000
  H   H29       1.0  0.8413599999999999  0.04804999999999998  0.51287  1.0000
  H   H30       1.0  0.94844  0.09665000000000004  0.5556  1.0000
  H   H31       1.0  0.97517  0.005910000000000001  0.43343  1.0000
  H   H32       1.0  0.08213  0.05151000000000004  0.47976000000000013  1.0000
  C   C97       1.0  0.64839  0.0711  0.19325  1.0000
  C   C98       1.0  0.5330099999999999  0.09705000000000001  0.19860000000000003  1.0000
  C   C99       1.0  0.52039  0.11903999999999999  0.16432  1.0000
  C   C100      1.0  0.4283799999999999  0.10316  0.12915  1.0000
  F   F33       1.0  0.35224  0.066  0.12366  1.0000
  C   C101      1.0  0.40890999999999994  0.12913  0.10294000000000002  1.0000
  F   F34       1.0  0.31288999999999995  0.11788999999999997  0.07445  1.0000
  C   C102      1.0  0.48217999999999994  0.17061999999999994  0.11086  1.0000
  C   C103      1.0  0.57786  0.18357  0.14287  1.0000
  F   F35       1.0  0.65041  0.22321  0.15075  1.0000
  C   C104      1.0  0.59557  0.15913000000000002  0.17027000000000003  1.0000
  F   F36       1.0  0.6830199999999997  0.17738  0.20499  1.0000
  H   H33       1.0  0.69626  0.0671  0.16021  1.0000
  H   H34       1.0  0.63855  0.028030000000000006  0.18246  1.0000
  H   H35       1.0  0.46843  0.06495000000000001  0.18779000000000004  1.0000
  H   H36       1.0  0.51636  0.13217  0.24101000000000003  1.0000
  C   C105      1.0  0.696  0.93593  0.35281  1.0000
  C   C106      1.0  0.58518  0.9029600000000001  0.33598  1.0000
  C   C107      1.0  0.56118  0.8801499999999998  0.36860000000000004  1.0000
  C   C108      1.0  0.46379999999999993  0.89473  0.39938000000000007  1.0000
  F   F37       1.0  0.39087  0.93216  0.4027800000000001  1.0000
  C   C109      1.0  0.43687999999999994  0.86761  0.42369000000000007  1.0000
  F   F38       1.0  0.33833  0.87894  0.44936  1.0000
  C   C110      1.0  0.50621  0.8253  0.41697  1.0000
  C   C111      1.0  0.60594  0.8128999999999997  0.38859  1.0000
  F   F39       1.0  0.67471  0.77229  0.38167  1.0000
  C   C112      1.0  0.63256  0.83963  0.36427  1.0000
  F   F40       1.0  0.72472  0.8231799999999998  0.33333  1.0000
  H   H37       1.0  0.73999  0.9351300000000001  0.3846600000000001  1.0000
  H   H38       1.0  0.67926  0.98056  0.36995  1.0000
  H   H39       1.0  0.51651  0.9299799999999999  0.33877  1.0000
  H   H40       1.0  0.58676  0.8666099999999998  0.29297  1.0000
  C   C113      1.0  0.4637699999999999  0.9142499999999998  0.81034  1.0000
  C   C114      1.0  0.4431399999999999  0.94644  0.8710800000000001  1.0000
  C   C115      1.0  0.4615899999999999  0.9100899999999998  0.8908100000000001  1.0000
  C   C116      1.0  0.56921  0.8903899999999998  0.88983  1.0000
  F   F41       1.0  0.65644  0.90393  0.87143  1.0000
  C   C117      1.0  0.58796  0.8568999999999999  0.9080500000000001  1.0000
  F   F42       1.0  0.68996  0.8338700000000001  0.9019500000000001  1.0000
  C   C118      1.0  0.50126  0.8451999999999998  0.93046  1.0000
  C   C119      1.0  0.39314  0.86293  0.92977  1.0000
  F   F43       1.0  0.30639000000000005  0.8471  0.9459300000000003  1.0000
  C   C120      1.0  0.37338999999999994  0.89593  0.9108700000000002  1.0000
  F   F44       1.0  0.26845  0.9140099999999999  0.9122700000000002  1.0000
  H   H41       1.0  0.5273999999999999  0.8810799999999999  0.7963200000000001  1.0000
  H   H42       1.0  0.49763  0.9442099999999999  0.80251  1.0000
  H   H43       1.0  0.50329  0.9818299999999998  0.8929000000000001  1.0000
  H   H44       1.0  0.359  0.9657  0.88135  1.0000
  C   C121      1.0  0.4749699999999999  0.07981000000000005  0.72386  1.0000
  C   C122      1.0  0.44569  0.039139999999999994  0.66374  1.0000
  C   C123      1.0  0.46074  0.06757999999999997  0.63591  1.0000
  C   C124      1.0  0.56646  0.06933000000000002  0.61757  1.0000
  F   F45       1.0  0.65307  0.04098000000000008  0.6200900000000001  1.0000
  C   C125      1.0  0.5851  0.10287  0.5994  1.0000
  F   F46       1.0  0.68903  0.10586999999999996  0.58426  1.0000
  C   C126      1.0  0.49943999999999994  0.1367600000000001  0.6014300000000001  1.0000
  C   C127      1.0  0.39371  0.13440000000000002  0.61904  1.0000
  F   F47       1.0  0.31108  0.16832999999999995  0.62331  1.0000
  C   C128      1.0  0.37348999999999993  0.09863  0.63441  1.0000
  F   F48       1.0  0.27003  0.09647  0.65043  1.0000
  H   H45       1.0  0.53893  0.1109  0.73121  1.0000
  H   H46       1.0  0.512  0.05527000000000005  0.7377500000000001  1.0000
  H   H47       1.0  0.50145  0.0021499999999999905  0.6453  1.0000
  H   H48       1.0  0.35968  0.022370000000000046  0.65766  1.0000
  C   C129      1.0  0.16734999999999997  0.57377  0.18821  1.0000
  C   C130      1.0  0.05746  0.60706  0.2039  1.0000
  C   C131      1.0  0.035710000000000006  0.63242  0.17285000000000006  1.0000
  C   C132      1.0  0.9425899999999998  0.616  0.1383  1.0000
  F   F49       1.0  0.87252  0.57604  0.13116  1.0000
  C   C133      1.0  0.9169099999999999  0.64303  0.1135  1.0000
  F   F50       1.0  0.82213  0.6288400000000001  0.08367000000000001  1.0000
  C   C134      1.0  0.9834  0.6874899999999998  0.12327000000000002  1.0000
  C   C135      1.0  0.07819  0.7028599999999999  0.15669  1.0000
  F   F51       1.0  0.14398  0.7459399999999998  0.16752000000000003  1.0000
  C   C136      1.0  0.10361  0.67587  0.18134000000000003  1.0000
  F   F52       1.0  0.19131  0.69445  0.21598  1.0000
  H   H49       1.0  0.20600999999999997  0.57037  0.15343  1.0000
  H   H50       1.0  0.15015  0.5304  0.17537000000000003  1.0000
  H   H51       1.0  0.98849  0.57835  0.19709  1.0000
  H   H52       1.0  0.056209999999999996  0.6413  0.24764000000000005  1.0000
  C   C137      1.0  0.92319  0.35568999999999995  0.45867000000000013  1.0000
  C   C138      1.0  0.8622799999999999  0.36152000000000006  0.41706000000000004  1.0000
  C   C139      1.0  0.9436  0.36146  0.3794  1.0000
  C   C140      1.0  0.99461  0.31118  0.33926  1.0000
  F   F53       1.0  0.9665900000000001  0.2623499999999999  0.33194  1.0000
  C   C141      1.0  0.07620000000000005  0.31084  0.3069  1.0000
  F   F54       1.0  0.12423999999999988  0.26141  0.26875  1.0000
  C   C142      1.0  0.10786000000000007  0.3606699999999999  0.31346  1.0000
  C   C143      1.0  0.05367999999999994  0.41071  0.35181  1.0000
  F   F55       1.0  0.08306999999999996  0.45935000000000004  0.35901000000000005  1.0000
  C   C144      1.0  0.97219  0.4111799999999999  0.38478  1.0000
  F   F56       1.0  0.9239099999999999  0.46044  0.42303  1.0000
  H   H53       1.0  0.013949999999999907  0.34897999999999996  0.45072000000000007  1.0000
  H   H54       1.0  0.9140900000000002  0.3953400000000001  0.4993700000000001  1.0000
  H   H55       1.0  0.80035  0.32737  0.39283  1.0000
  H   H56       1.0  0.8131699999999998  0.40084  0.43883  1.0000
  C   C145      1.0  0.13066  0.35323000000000015  0.9180500000000003  1.0000
  C   C146      1.0  0.0453  0.40092000000000005  0.9497400000000001  1.0000
  C   C147      1.0  0.94896  0.39397000000000015  0.9138600000000002  1.0000
  C   C148      1.0  0.87368  0.3498800000000001  0.8953300000000001  1.0000
  F   F57       1.0  0.88498  0.3150100000000001  0.9108800000000002  1.0000
  C   C149      1.0  0.78999  0.33923  0.8583900000000002  1.0000
  F   F58       1.0  0.7223399999999999  0.29457  0.84034  1.0000
  C   C150      1.0  0.7803599999999998  0.37199  0.83811  1.0000
  C   C151      1.0  0.8538499999999999  0.4174900000000002  0.8580600000000003  1.0000
  F   F59       1.0  0.8462699999999999  0.45104  0.84088  1.0000
  C   C152      1.0  0.93716  0.4285199999999999  0.89576  1.0000
  F   F60       1.0  0.008960000000000003  0.4715500000000001  0.9127900000000002  1.0000
  H   H57       1.0  0.11841999999999998  0.33135999999999977  0.87398  1.0000
  H   H58       1.0  0.21587  0.37109  0.92667  1.0000
  H   H59       1.0  0.01342  0.40289000000000014  0.9849100000000001  1.0000
  H   H60       1.0  0.08802999999999998  0.44160000000000005  0.9666800000000002  1.0000
  C   C153      1.0  0.08135999999999999  0.64634  0.60239  1.0000
  C   C154      1.0  0.9546199999999998  0.63693  0.59843  1.0000
  C   C155      1.0  0.9107199999999999  0.63362  0.64298  1.0000
  C   C156      1.0  0.8972899999999999  0.6831999999999998  0.6946  1.0000
  F   F61       1.0  0.9328899999999999  0.73284  0.70573  1.0000
  C   C157      1.0  0.83923  0.6827800000000003  0.7337700000000003  1.0000
  F   F62       1.0  0.82045  0.7319599999999999  0.78195  1.0000
  C   C158      1.0  0.7938  0.63286  0.72235  1.0000
  C   C159      1.0  0.81417  0.58239  0.67231  1.0000
  F   F63       1.0  0.77096  0.53358  0.6604  1.0000
  C   C160      1.0  0.87135  0.58281  0.63253  1.0000
  F   F64       1.0  0.88232  0.5342  0.58297  1.0000
  H   H61       1.0  0.11413999999999991  0.66086  0.6428  1.0000
  H   H62       1.0  0.12271999999999998  0.6059399999999998  0.57261  1.0000
  H   H63       1.0  0.90982  0.67136  0.60034  1.0000
  H   H64       1.0  0.93407  0.59812  0.5582800000000001  1.0000
