data_image0
_chemical_formula_structural       Mn5CN8C2N8CN16Cl2C4Mn5CN8C2N8CN16Cl2C4Mn5CN8C2N8CN16Cl2C4Mn5CN8C2N8CN16Cl2C12O2CH8C8O2CH8C8O2CH8C8O2CH8C8O2CH8C8O2CH8C8O2CH8C8O2CH8C8O2CH8C8O2CH8C8O2CH8C8O2CH8C8O2CH8C8O2CH8C8O2CH8C8O2CH8
_chemical_formula_sum              "Mn20 C176 N128 Cl8 O32 H128"
_cell_length_a       11.8678
_cell_length_b       27.4872
_cell_length_c       30.122199999999996
_cell_angle_alpha    110.15259999999999
_cell_angle_beta     87.5622
_cell_angle_gamma    89.21709999999999

_space_group_name_H-M_alt    "P 1"
_space_group_IT_number       1

loop_
  _space_group_symop_operation_xyz
  'x, y, z'

loop_
  _atom_site_type_symbol
  _atom_site_label
  _atom_site_symmetry_multiplicity
  _atom_site_fract_x
  _atom_site_fract_y
  _atom_site_fract_z
  _atom_site_occupancy
  Mn  Mn1       1.0  0.025260000000000067  0.41665  0.19041000000000002  1.0000
  Mn  Mn2       1.0  0.28039000000000003  0.35944999999999994  0.14092  1.0000
  Mn  Mn3       1.0  0.51732  0.10359000000000002  0.86379  1.0000
  Mn  Mn4       1.0  0.25434  0.15696000000000007  0.9096600000000002  1.0000
  Mn  Mn5       1.0  0.26519  0.25693  0.026560000000000007  1.0000
  C   C1        1.0  0.0886  0.35594  0.25407  1.0000
  N   N1        1.0  0.12035000000000001  0.3770499999999999  0.22154  1.0000
  N   N2        1.0  0.21237  0.35101  0.19974000000000003  1.0000
  N   N3        1.0  0.23433  0.31293999999999994  0.21572  1.0000
  N   N4        1.0  0.15976999999999994  0.31574  0.25034  1.0000
  N   N5        1.0  0.41316  0.27546000000000004  0.15270000000000006  1.0000
  N   N6        1.0  0.35524  0.28951  0.12267  1.0000
  N   N7        1.0  0.34847  0.25053  0.08255  1.0000
  N   N8        1.0  0.40067  0.20864000000000002  0.08564000000000002  1.0000
  C   C2        1.0  0.43913  0.22516  0.1301  1.0000
  C   C3        1.0  0.38759000000000005  0.3983599999999999  0.02952  1.0000
  N   N9        1.0  0.33616000000000007  0.36589  0.08029  1.0000
  N   N10       1.0  0.37472000000000005  0.40895  0.07646000000000001  1.0000
  N   N11       1.0  0.12685  0.29035  0.07253000000000003  1.0000
  N   N12       1.0  0.13917  0.3313699999999999  0.11090000000000001  1.0000
  N   N13       1.0  0.04133999999999993  0.35373  0.12978  1.0000
  N   N14       1.0  0.9595300000000002  0.3278599999999999  0.10509  1.0000
  N   N15       1.0  0.32436  0.33033  0.03823000000000001  1.0000
  N   N16       1.0  0.35727  0.34943  0.0048800000000000015  1.0000
  C   C4        1.0  0.012210000000000047  0.28847  0.06939  1.0000
  N   N17       1.0  0.4261  0.14464999999999997  0.8333300000000001  1.0000
  N   N18       1.0  0.32478  0.16492999999999994  0.8499  1.0000
  N   N19       1.0  0.29651  0.19925000000000007  0.8303600000000002  1.0000
  N   N20       1.0  0.3802  0.20216000000000006  0.8006800000000002  1.0000
  N   N21       1.0  0.12103000000000003  0.24524999999999994  0.90109  1.0000
  N   N22       1.0  0.1785  0.22771  0.9293700000000003  1.0000
  N   N23       1.0  0.18099999999999994  0.2634700000000001  0.9717900000000003  1.0000
  N   N24       1.0  0.12575  0.30594  0.97266  1.0000
  N   N25       1.0  0.20677  0.15873  0.044190000000000014  1.0000
  N   N26       1.0  0.20687  0.18303  0.0131  1.0000
  N   N27       1.0  0.19470999999999997  0.14869000000000002  0.9701600000000001  1.0000
  N   N28       1.0  0.18475000000000003  0.10176999999999993  0.97251  1.0000
  N   N29       1.0  0.40469000000000005  0.22510999999999998  0.9814900000000001  1.0000
  N   N30       1.0  0.39565000000000006  0.1851499999999999  0.94212  1.0000
  N   N31       1.0  0.49607  0.16567000000000004  0.92372  1.0000
  N   N32       1.0  0.5758300000000001  0.19364000000000006  0.94862  1.0000
  Cl  Cl1       1.0  0.19136  0.43872999999999984  0.16388000000000003  1.0000
  Cl  Cl2       1.0  0.34794  0.07874000000000005  0.8860200000000001  1.0000
  C   C5        1.0  0.46075  0.16822000000000004  0.8031800000000001  1.0000
  C   C6        1.0  0.08922999999999996  0.2939900000000001  0.9284500000000002  1.0000
  C   C7        1.0  0.19097  0.10842  0.01858  1.0000
  C   C8        1.0  0.51905  0.2308000000000001  0.9846200000000003  1.0000
  Mn  Mn6       1.0  0.52431  0.9345000000000001  0.20073000000000005  1.0000
  Mn  Mn7       1.0  0.76202  0.8597399999999997  0.14875  1.0000
  Mn  Mn8       1.0  0.92922  0.60071  0.8660600000000003  1.0000
  Mn  Mn9       1.0  0.6814299999999999  0.66863  0.9148500000000003  1.0000
  Mn  Mn10      1.0  0.7155400000000001  0.76859  0.03024  1.0000
  C   C9        1.0  0.59891  0.8914499999999999  0.27643  1.0000
  N   N33       1.0  0.60085  0.88846  0.23086000000000007  1.0000
  N   N34       1.0  0.69149  0.85968  0.21070000000000003  1.0000
  N   N35       1.0  0.7461400000000001  0.8467499999999998  0.24255000000000004  1.0000
  N   N36       1.0  0.6895900000000001  0.8656999999999999  0.2840700000000001  1.0000
  N   N37       1.0  0.83186  0.75681  0.15384  1.0000
  N   N38       1.0  0.79746  0.78325  0.12698  1.0000
  N   N39       1.0  0.77424  0.75087  0.08491000000000003  1.0000
  N   N40       1.0  0.79215  0.70272  0.08239  1.0000
  C   C10       1.0  0.82831  0.7067499999999998  0.12515000000000004  1.0000
  C   C11       1.0  0.8997400000000001  0.89869  0.04234  1.0000
  N   N41       1.0  0.83431  0.86292  0.08886  1.0000
  N   N42       1.0  0.88906  0.90399  0.08826  1.0000
  N   N43       1.0  0.58856  0.81381  0.07555000000000003  1.0000
  N   N44       1.0  0.61161  0.84686  0.11785  1.0000
  N   N45       1.0  0.51978  0.87304  0.13978  1.0000
  N   N46       1.0  0.43137  0.8564  0.11428  1.0000
  N   N47       1.0  0.8125000000000001  0.83305  0.04547  1.0000
  N   N48       1.0  0.85029  0.85506  0.015040000000000003  1.0000
  C   C12       1.0  0.47374000000000005  0.81903  0.07436  1.0000
  N   N49       1.0  0.8470300000000001  0.6434999999999998  0.8340100000000001  1.0000
  N   N50       1.0  0.75077  0.6679500000000002  0.8526600000000002  1.0000
  N   N51       1.0  0.70082  0.68489  0.82219  1.0000
  N   N52       1.0  0.76604  0.6731900000000001  0.7831500000000002  1.0000
  N   N53       1.0  0.61124  0.7621100000000001  0.8994800000000002  1.0000
  N   N54       1.0  0.6358099999999999  0.74383  0.93271  1.0000
  N   N55       1.0  0.65884  0.7821399999999997  0.97186  1.0000
  N   N56       1.0  0.65138  0.8272100000000001  0.9641500000000002  1.0000
  N   N57       1.0  0.5535  0.69349  0.04909  1.0000
  N   N58       1.0  0.61754  0.70475  0.016980000000000002  1.0000
  N   N59       1.0  0.6104900000000002  0.66787  0.9754700000000001  1.0000
  N   N60       1.0  0.53988  0.6323700000000001  0.9784000000000003  1.0000
  N   N61       1.0  0.8444900000000001  0.72378  0.98709  1.0000
  N   N62       1.0  0.8282099999999999  0.6888699999999999  0.9451500000000003  1.0000
  N   N63       1.0  0.92322  0.6636  0.92613  1.0000
  N   N64       1.0  0.005970000000000014  0.6812099999999998  0.95466  1.0000
  Cl  Cl3       1.0  0.7040600000000001  0.94468  0.17395000000000005  1.0000
  Cl  Cl4       1.0  0.75261  0.58592  0.8934100000000003  1.0000
  C   C13       1.0  0.8568499999999999  0.64728  0.7905300000000002  1.0000
  C   C14       1.0  0.6205500000000002  0.81348  0.9185300000000001  1.0000
  C   C15       1.0  0.50582  0.6482599999999998  0.02451  1.0000
  C   C16       1.0  0.95698  0.7189  0.99269  1.0000
  Mn  Mn11      1.0  0.001810000000000092  0.59019  0.35465  1.0000
  Mn  Mn12      1.0  0.24751  0.6331900000000001  0.4096300000000001  1.0000
  Mn  Mn13      1.0  0.45691  0.8689199999999998  0.68469  1.0000
  Mn  Mn14      1.0  0.19391  0.83452  0.64221  1.0000
  Mn  Mn15      1.0  0.20605999999999994  0.74127  0.52123  1.0000
  C   C17       1.0  0.12252  0.6378399999999999  0.2877300000000001  1.0000
  N   N65       1.0  0.12189  0.6220999999999999  0.32519  1.0000
  N   N66       1.0  0.21780999999999998  0.63716  0.3451700000000001  1.0000
  N   N67       1.0  0.27803  0.6598799999999999  0.32034  1.0000
  N   N68       1.0  0.22016  0.66111  0.284  1.0000
  N   N69       1.0  0.39533  0.71025  0.39647000000000004  1.0000
  N   N70       1.0  0.32911000000000007  0.70008  0.4277300000000001  1.0000
  N   N71       1.0  0.30403  0.74285  0.4641  1.0000
  N   N72       1.0  0.3516  0.7832699999999998  0.45655  1.0000
  C   C18       1.0  0.4092  0.76145  0.41395000000000004  1.0000
  C   C19       1.0  0.32293  0.60374  0.52787  1.0000
  N   N73       1.0  0.27242  0.6283499999999999  0.47251  1.0000
  N   N74       1.0  0.3140299999999999  0.58726  0.4804700000000001  1.0000
  N   N75       1.0  0.07694999999999999  0.71247  0.4742100000000001  1.0000
  N   N76       1.0  0.09968  0.67143  0.43516  1.0000
  N   N77       1.0  0.007409999999999909  0.6541199999999999  0.4128300000000001  1.0000
  N   N78       1.0  0.9202  0.68309  0.4348100000000001  1.0000
  N   N79       1.0  0.2574300000000001  0.66756  0.51244  1.0000
  N   N80       1.0  0.2884  0.65377  0.54815  1.0000
  C   C20       1.0  0.96213  0.71939  0.47264  1.0000
  N   N81       1.0  0.35237  0.82791  0.71201  1.0000
  N   N82       1.0  0.24876999999999996  0.81746  0.6980700000000002  1.0000
  N   N83       1.0  0.20603000000000002  0.7830599999999999  0.7152  1.0000
  N   N84       1.0  0.28295  0.76968  0.7398700000000001  1.0000
  N   N85       1.0  0.03818000000000001  0.75183  0.64651  1.0000
  N   N86       1.0  0.10690000000000008  0.7687599999999999  0.61964  1.0000
  N   N87       1.0  0.10824999999999994  0.73686  0.57545  1.0000
  N   N88       1.0  0.04242000000000001  0.69756  0.57179  1.0000
  N   N89       1.0  0.09088000000000002  0.83954  0.5152300000000001  1.0000
  N   N90       1.0  0.15081999999999998  0.81811  0.54029  1.0000
  N   N91       1.0  0.14779000000000003  0.85026  0.58509  1.0000
  N   N92       1.0  0.08868999999999999  0.89268  0.5903600000000002  1.0000
  N   N93       1.0  0.34273  0.7649499999999999  0.5633500000000001  1.0000
  N   N94       1.0  0.33439  0.80125  0.60544  1.0000
  N   N95       1.0  0.43495000000000006  0.8139799999999998  0.6218300000000001  1.0000
  N   N96       1.0  0.51392  0.78457  0.5925700000000003  1.0000
  Cl  Cl5       1.0  0.14449000000000006  0.56086  0.38787  1.0000
  Cl  Cl6       1.0  0.29801999999999995  0.90664  0.6687400000000001  1.0000
  C   C21       1.0  0.3747599999999999  0.7972599999999999  0.7371900000000002  1.0000
  C   C22       1.0  0.9996700000000001  0.7073399999999999  0.61613  1.0000
  C   C23       1.0  0.05464  0.8861999999999999  0.5470500000000001  1.0000
  C   C24       1.0  0.45665  0.75372  0.55611  1.0000
  Mn  Mn16      1.0  0.54642  0.05355000000000004  0.3475600000000001  1.0000
  Mn  Mn17      1.0  0.78576  0.11622000000000002  0.3942300000000001  1.0000
  Mn  Mn18      1.0  0.93878  0.3685  0.67499  1.0000
  Mn  Mn19      1.0  0.68858  0.31952  0.62657  1.0000
  Mn  Mn20      1.0  0.7293000000000001  0.2218  0.50754  1.0000
  C   C25       1.0  0.64841  0.08785  0.26718  1.0000
  N   N97       1.0  0.64123  0.09199000000000003  0.31320000000000003  1.0000
  N   N98       1.0  0.7359000000000001  0.11355999999999997  0.3305  1.0000
  N   N99       1.0  0.8021600000000001  0.11977  0.2966  1.0000
  N   N100      1.0  0.74935  0.10419999999999999  0.25644  1.0000
  N   N101      1.0  0.8884900000000001  0.20743000000000006  0.3792600000000001  1.0000
  N   N102      1.0  0.8355600000000001  0.19011999999999996  0.40995  1.0000
  N   N103      1.0  0.81394  0.22860999999999998  0.45051000000000013  1.0000
  N   N104      1.0  0.85203  0.27241  0.4476300000000001  1.0000
  C   C26       1.0  0.8971300000000001  0.25851  0.4029500000000001  1.0000
  C   C27       1.0  0.9262800000000001  0.10043000000000003  0.508  1.0000
  N   N105      1.0  0.83502  0.11628000000000002  0.45625  1.0000
  N   N106      1.0  0.9088200000000001  0.08245999999999999  0.46136000000000005  1.0000
  N   N107      1.0  0.60579  0.18365  0.4617300000000001  1.0000
  N   N108      1.0  0.63237  0.14197000000000004  0.42423  1.0000
  N   N109      1.0  0.54143  0.11745999999999997  0.4066  1.0000
  N   N110      1.0  0.45111  0.14285  0.43066  1.0000
  N   N111      1.0  0.80983  0.15316  0.49714  1.0000
  N   N112      1.0  0.86621  0.14459  0.53067  1.0000
  C   C28       1.0  0.49009  0.18537999999999996  0.46422  1.0000
  N   N113      1.0  0.83865  0.32738000000000006  0.7035300000000002  1.0000
  N   N114      1.0  0.73978  0.31126000000000004  0.6871500000000001  1.0000
  N   N115      1.0  0.69048  0.28677  0.7133  1.0000
  N   N116      1.0  0.75933  0.28531  0.7465  1.0000
  N   N117      1.0  0.57318  0.22987999999999997  0.6353  1.0000
  N   N118      1.0  0.6226300000000002  0.24923999999999993  0.60544  1.0000
  N   N119      1.0  0.6403099999999999  0.21286999999999995  0.56347  1.0000
  N   N120      1.0  0.60232  0.16819  0.56474  1.0000
  N   N121      1.0  0.62278  0.31587000000000004  0.49231000000000014  1.0000
  N   N122      1.0  0.6537099999999999  0.2939  0.52302  1.0000
  N   N123      1.0  0.64207  0.32858000000000004  0.5664200000000001  1.0000
  N   N124      1.0  0.60151  0.37302  0.56569  1.0000
  N   N125      1.0  0.85807  0.25703000000000004  0.5510900000000001  1.0000
  N   N126      1.0  0.8382499999999998  0.29029  0.59453  1.0000
  N   N127      1.0  0.93352  0.30851000000000006  0.6138100000000002  1.0000
  N   N128      1.0  0.020319999999999977  0.2872500000000001  0.5846600000000002  1.0000
  Cl  Cl7       1.0  0.71356  0.03570999999999997  0.37564  1.0000
  Cl  Cl8       1.0  0.77606  0.39672000000000013  0.6515700000000002  1.0000
  C   C29       1.0  0.85191  0.31053000000000003  0.7398400000000002  1.0000
  C   C30       1.0  0.56022  0.17977999999999994  0.60975  1.0000
  C   C31       1.0  0.58826  0.36450999999999995  0.51963  1.0000
  C   C32       1.0  0.97378  0.25483  0.54573  1.0000
  C   C33       1.0  0.5795300000000001  0.2771799999999999  0.01479000000000008  1.0000
  C   C34       1.0  0.63754  0.26809  0.05532  1.0000
  C   C35       1.0  0.74254  0.23361  0.041890000000000004  1.0000
  C   C36       1.0  0.84251  0.25421  0.03052  1.0000
  C   C37       1.0  0.94529  0.24301  0.04702000000000001  1.0000
  C   C38       1.0  0.94887  0.2043  0.06766  1.0000
  C   C39       1.0  0.8508000000000001  0.17875  0.07371000000000003  1.0000
  C   C40       1.0  0.84952  0.14664  0.10436  1.0000
  O   O1        1.0  0.77292  0.11701  0.10281000000000003  1.0000
  O   O2        1.0  0.93327  0.15183999999999997  0.13665  1.0000
  C   C41       1.0  0.7486800000000001  0.19202999999999995  0.05853000000000001  1.0000
  H   H1        1.0  0.52155  0.31045  0.03054000000000001  1.0000
  H   H2        1.0  0.64211  0.28898  0.99222  1.0000
  H   H3        1.0  0.66154  0.3064200000000001  0.08035000000000014  1.0000
  H   H4        1.0  0.57615  0.25353  0.07553  1.0000
  H   H5        1.0  0.83608  0.28842  0.020450000000000083  1.0000
  H   H6        1.0  0.022669999999999968  0.20036999999999994  0.08614  1.0000
  H   H7        1.0  0.92147  0.12877  0.15635000000000002  1.0000
  H   H8        1.0  0.6712599999999999  0.17602  0.06703  1.0000
  C   C42       1.0  0.02288000000000001  0.7509599999999998  0.0339  1.0000
  C   C43       1.0  0.11713  0.71914  0.04689  1.0000
  C   C44       1.0  0.23154  0.72978  0.028750000000000057  1.0000
  C   C45       1.0  0.30553  0.76325  0.05943  1.0000
  C   C46       1.0  0.39798000000000006  0.7832699999999998  0.04117  1.0000
  C   C47       1.0  0.40621  0.7739299999999999  0.99246  1.0000
  C   C48       1.0  0.34166  0.7358899999999999  0.9613700000000002  1.0000
  C   C49       1.0  0.3534999999999999  0.7240700000000001  0.9098100000000002  1.0000
  O   O3        1.0  0.34018000000000004  0.68003  0.88288  1.0000
  O   O4        1.0  0.3762  0.7635399999999998  0.89182  1.0000
  C   C50       1.0  0.25848000000000004  0.71191  0.9799900000000002  1.0000
  H   H9        1.0  0.96646  0.7691999999999998  0.06539  1.0000
  H   H10       1.0  0.05901  0.7837  0.0249  1.0000
  H   H11       1.0  0.11564  0.73032  0.08609000000000003  1.0000
  H   H12       1.0  0.10182999999999999  0.67685  0.03292999999999991  1.0000
  H   H13       1.0  0.28858  0.77536  0.09737000000000003  1.0000
  H   H14       1.0  0.45785  0.7977900000000001  0.9791000000000001  1.0000
  H   H15       1.0  0.3797  0.7507900000000001  0.8559300000000002  1.0000
  H   H16       1.0  0.20857999999999988  0.6828200000000001  0.9561200000000002  1.0000
  C   C51       1.0  0.51442  0.70602  0.52145  1.0000
  C   C52       1.0  0.5957700000000001  0.71605  0.48533000000000004  1.0000
  C   C53       1.0  0.6791600000000001  0.7586499999999999  0.50343  1.0000
  C   C54       1.0  0.7849900000000001  0.74554  0.51604  1.0000
  C   C55       1.0  0.8839799999999998  0.76229  0.4988200000000001  1.0000
  C   C56       1.0  0.87254  0.8007799999999999  0.47804  1.0000
  C   C57       1.0  0.76637  0.8222899999999997  0.47475  1.0000
  C   C58       1.0  0.7565200000000001  0.86225  0.45217  1.0000
  O   O5        1.0  0.66394  0.87966  0.44802  1.0000
  O   O6        1.0  0.8533800000000001  0.88063  0.43608000000000013  1.0000
  C   C59       1.0  0.6695700000000001  0.8010699999999997  0.48803  1.0000
  H   H17       1.0  0.45391999999999993  0.6785  0.50102  1.0000
  H   H18       1.0  0.56148  0.68596  0.54166  1.0000
  H   H19       1.0  0.6436900000000002  0.6791699999999999  0.46612  1.0000
  H   H20       1.0  0.54654  0.7231  0.45796  1.0000
  H   H21       1.0  0.791  0.71093  0.52555  1.0000
  H   H22       1.0  0.94377  0.80862  0.45811  1.0000
  H   H23       1.0  0.83574  0.9080000000000001  0.4216400000000001  1.0000
  H   H24       1.0  0.58744  0.8122299999999998  0.47965  1.0000
  C   C60       1.0  0.04715  0.22729  0.50213  1.0000
  C   C61       1.0  0.10460999999999998  0.26814  0.4843900000000001  1.0000
  C   C62       1.0  0.23126  0.26702  0.4742600000000001  1.0000
  C   C63       1.0  0.3114100000000001  0.23754  0.48829  1.0000
  C   C64       1.0  0.42384000000000005  0.23260999999999998  0.46975  1.0000
  C   C65       1.0  0.45444  0.2574600000000001  0.43747000000000014  1.0000
  C   C66       1.0  0.37781000000000003  0.2893  0.42556000000000005  1.0000
  C   C67       1.0  0.40813999999999995  0.3134700000000001  0.3896900000000001  1.0000
  O   O7        1.0  0.36004  0.3536500000000001  0.3918400000000001  1.0000
  O   O8        1.0  0.48829  0.2911299999999999  0.35255  1.0000
  C   C68       1.0  0.26810000000000006  0.29546  0.44571000000000005  1.0000
  H   H25       1.0  0.99554  0.20151000000000002  0.47440000000000004  1.0000
  H   H26       1.0  0.10847999999999997  0.20137000000000002  0.5102900000000001  1.0000
  H   H27       1.0  0.069  0.26163  0.45001  1.0000
  H   H28       1.0  0.07863999999999999  0.30855000000000005  0.5066900000000001  1.0000
  H   H29       1.0  0.28672  0.21558  0.51061  1.0000
  H   H30       1.0  0.53756  0.24964999999999998  0.4197800000000001  1.0000
  H   H31       1.0  0.51343  0.25455  0.34879  1.0000
  H   H32       1.0  0.2083  0.31985  0.43622  1.0000
  C   C69       1.0  0.42192  0.6205799999999999  0.04572000000000001  1.0000
  C   C70       1.0  0.37097  0.57231  0.009200000000000097  1.0000
  C   C71       1.0  0.4338200000000001  0.5218  0.003430000000000044  1.0000
  C   C72       1.0  0.37952  0.48197  0.014690000000000092  1.0000
  C   C73       1.0  0.43774  0.4352699999999999  0.009440000000000002  1.0000
  C   C74       1.0  0.55199  0.42906000000000005  0.9945000000000002  1.0000
  C   C75       1.0  0.60806  0.46883  0.9842  1.0000
  C   C76       1.0  0.7315600000000001  0.4652099999999999  0.97479  1.0000
  O   O9        1.0  0.77749  0.49342  0.95634  1.0000
  O   O10       1.0  0.79641  0.4308199999999999  0.9887600000000001  1.0000
  C   C77       1.0  0.54752  0.5142  0.98721  1.0000
  H   H33       1.0  0.35187  0.64887  0.06313999999999999  1.0000
  H   H34       1.0  0.46182  0.6097799999999999  0.07387  1.0000
  H   H35       1.0  0.28193000000000007  0.5700399999999999  0.021279999999999966  1.0000
  H   H36       1.0  0.36636  0.57697  0.9741  1.0000
  H   H37       1.0  0.29283  0.48768  0.02869  1.0000
  H   H38       1.0  0.59854  0.39446  0.99352  1.0000
  H   H39       1.0  0.88022  0.4347299999999999  0.98369  1.0000
  H   H40       1.0  0.59097  0.54457  0.97918  1.0000
  C   C78       1.0  0.53983  0.40485000000000004  0.5022500000000001  1.0000
  C   C79       1.0  0.42778000000000005  0.42869  0.53015  1.0000
  C   C80       1.0  0.43161000000000005  0.4870599999999999  0.55311  1.0000
  C   C81       1.0  0.3666  0.51908  0.53624  1.0000
  C   C82       1.0  0.37684  0.57274  0.55304  1.0000
  C   C83       1.0  0.4454600000000001  0.59557  0.59107  1.0000
  C   C84       1.0  0.50771  0.56442  0.61052  1.0000
  C   C85       1.0  0.5823199999999998  0.5887100000000001  0.6498900000000002  1.0000
  O   O11       1.0  0.63929  0.56178  0.66575  1.0000
  O   O12       1.0  0.58791  0.64262  0.6689500000000003  1.0000
  C   C86       1.0  0.5007599999999999  0.50999  0.5910100000000003  1.0000
  H   H41       1.0  0.52576  0.3875699999999999  0.46381000000000006  1.0000
  H   H42       1.0  0.60383  0.43503999999999987  0.5064  1.0000
  H   H43       1.0  0.35812  0.41781  0.50531  1.0000
  H   H44       1.0  0.40584  0.41224  0.55824  1.0000
  H   H45       1.0  0.30710000000000004  0.5024899999999999  0.51009  1.0000
  H   H46       1.0  0.45282999999999995  0.6373299999999997  0.6044300000000002  1.0000
  H   H47       1.0  0.6425000000000001  0.6546099999999999  0.6953000000000003  1.0000
  H   H48       1.0  0.54899  0.4853099999999999  0.60504  1.0000
  C   C87       1.0  0.21945  0.06419  0.035070000000000004  1.0000
  C   C88       1.0  0.12904  0.05512  0.06876  1.0000
  C   C89       1.0  0.03498  0.02189  0.04331000000000001  1.0000
  C   C90       1.0  0.022159999999999958  0.9719  0.04525000000000001  1.0000
  C   C91       1.0  0.92578  0.9437399999999998  0.028480000000000002  1.0000
  C   C92       1.0  0.8399499999999998  0.96665  0.011160000000000003  1.0000
  C   C93       1.0  0.85104  0.01663  0.00904  1.0000
  C   C94       1.0  0.75338  0.043329999999999994  0.99747  1.0000
  O   O13       1.0  0.76677  0.08224999999999996  0.98733  1.0000
  O   O14       1.0  0.6450200000000001  0.024700000000000038  0.9992200000000001  1.0000
  C   C95       1.0  0.95135  0.04301  0.023180000000000006  1.0000
  H   H49       1.0  0.29972000000000004  0.07300999999999999  0.053630000000000004  1.0000
  H   H50       1.0  0.23581000000000002  0.028019999999999972  0.0040800000000000836  1.0000
  H   H51       1.0  0.17095  0.0358  0.09087  1.0000
  H   H52       1.0  0.09429  0.09266  0.09367  1.0000
  H   H53       1.0  0.08385  0.95607  0.0625  1.0000
  H   H54       1.0  0.76091  0.9471899999999998  0.00326  1.0000
  H   H55       1.0  0.5848900000000001  0.047030000000000016  0.99192  1.0000
  H   H56       1.0  0.96031  0.08180999999999998  0.02236  1.0000
  C   C96       1.0  0.016210000000000054  0.07990999999999998  0.53026  1.0000
  C   C97       1.0  0.96812  0.06582000000000005  0.5720000000000001  1.0000
  C   C98       1.0  0.92171  0.012069999999999999  0.55726  1.0000
  C   C99       1.0  0.99673  0.96911  0.54024  1.0000
  C   C100      1.0  0.9655  0.92086  0.54153  1.0000
  C   C101      1.0  0.85461  0.91499  0.5567700000000001  1.0000
  C   C102      1.0  0.77382  0.9557699999999999  0.56771  1.0000
  C   C103      1.0  0.65606  0.9482699999999997  0.58187  1.0000
  O   O15       1.0  0.585  0.9829400000000001  0.58898  1.0000
  O   O16       1.0  0.6256  0.9015100000000001  0.5869600000000001  1.0000
  C   C104      1.0  0.80879  0.004769999999999925  0.56866  1.0000
  H   H57       1.0  0.0779000000000001  0.11106000000000003  0.54357  1.0000
  H   H58       1.0  0.06185  0.046389999999999994  0.50335  1.0000
  H   H59       1.0  0.03742000000000001  0.06735  0.59613  1.0000
  H   H60       1.0  0.90365  0.09546  0.59314  1.0000
  H   H61       1.0  0.08335999999999999  0.9746099999999999  0.53135  1.0000
  H   H62       1.0  0.83288  0.87933  0.56235  1.0000
  H   H63       1.0  0.54283  0.9013600000000002  0.59684  1.0000
  H   H64       1.0  0.7503  0.03784000000000007  0.58123  1.0000
  C   C105      1.0  0.55585  0.07169  0.23290000000000002  1.0000
  C   C106      1.0  0.47832  0.11788999999999998  0.23376  1.0000
  C   C107      1.0  0.52897  0.15230999999999995  0.20826000000000006  1.0000
  C   C108      1.0  0.47401  0.16089  0.17069000000000006  1.0000
  C   C109      1.0  0.51523  0.19749  0.15133  1.0000
  C   C110      1.0  0.61694  0.22166  0.16657  1.0000
  C   C111      1.0  0.67246  0.21366  0.20353  1.0000
  C   C112      1.0  0.77719  0.24137  0.22040000000000007  1.0000
  O   O17       1.0  0.8231000000000002  0.23626  0.25411  1.0000
  O   O18       1.0  0.82476  0.27284  0.19724000000000003  1.0000
  C   C113      1.0  0.62349  0.1817  0.22602000000000005  1.0000
  H   H65       1.0  0.50427  0.04285999999999999  0.24228  1.0000
  H   H66       1.0  0.59344  0.05219000000000001  0.19649000000000005  1.0000
  H   H67       1.0  0.3988  0.10165999999999999  0.21722000000000002  1.0000
  H   H68       1.0  0.45449  0.14207  0.27105  1.0000
  H   H69       1.0  0.39385  0.14329999999999996  0.15999  1.0000
  H   H70       1.0  0.64715  0.25069  0.15247000000000002  1.0000
  H   H71       1.0  0.89736  0.28877  0.21130000000000004  1.0000
  H   H72       1.0  0.6558  0.18211  0.25895  1.0000
  C   C114      1.0  0.50794  0.91756  0.31373  1.0000
  C   C115      1.0  0.41480000000000006  0.8803599999999999  0.31821  1.0000
  C   C116      1.0  0.45891000000000004  0.8349899999999999  0.33089000000000013  1.0000
  C   C117      1.0  0.42761  0.8285199999999999  0.37431  1.0000
  C   C118      1.0  0.47242  0.7860699999999998  0.38445000000000007  1.0000
  C   C119      1.0  0.55834  0.7545599999999999  0.35381  1.0000
  C   C120      1.0  0.58243  0.7579099999999998  0.30915  1.0000
  C   C121      1.0  0.66084  0.7198  0.27428  1.0000
  O   O19       1.0  0.6807  0.7229799999999997  0.23529000000000003  1.0000
  O   O20       1.0  0.71232  0.6800499999999998  0.28579  1.0000
  C   C122      1.0  0.52578  0.79606  0.29701  1.0000
  H   H73       1.0  0.46868  0.94985  0.30498  1.0000
  H   H74       1.0  0.54699  0.9348099999999999  0.34836  1.0000
  H   H75       1.0  0.3509  0.90332  0.34577  1.0000
  H   H76       1.0  0.37115  0.86545  0.2844  1.0000
  H   H77       1.0  0.36251  0.85348  0.39777000000000007  1.0000
  H   H78       1.0  0.59586  0.72288  0.36236  1.0000
  H   H79       1.0  0.76239  0.65619  0.2587  1.0000
  H   H80       1.0  0.5360100000000002  0.7963099999999997  0.26121  1.0000
  C   C123      1.0  0.49085999999999985  0.77757  0.7407900000000002  1.0000
  C   C124      1.0  0.57969  0.81962  0.75599  1.0000
  C   C125      1.0  0.58222  0.8482899999999998  0.80877  1.0000
  C   C126      1.0  0.5904099999999999  0.82103  0.8401800000000003  1.0000
  C   C127      1.0  0.61122  0.8462099999999998  0.8884100000000001  1.0000
  C   C128      1.0  0.63159  0.8994400000000001  0.9042600000000002  1.0000
  C   C129      1.0  0.62729  0.92694  0.8725700000000002  1.0000
  C   C130      1.0  0.6682500000000002  0.97975  0.8854600000000001  1.0000
  O   O21       1.0  0.60386  0.01541999999999999  0.8872900000000001  1.0000
  O   O22       1.0  0.78307  0.98792  0.8916900000000002  1.0000
  C   C131      1.0  0.5988499999999999  0.9017200000000001  0.82565  1.0000
  H   H81       1.0  0.51741  0.75087  0.7046800000000002  1.0000
  H   H82       1.0  0.48714999999999997  0.7532299999999997  0.7634400000000001  1.0000
  H   H83       1.0  0.6638500000000003  0.8000599999999999  0.7443300000000003  1.0000
  H   H84       1.0  0.57009  0.84706  0.7365400000000002  1.0000
  H   H85       1.0  0.58639  0.7793000000000001  0.8262600000000002  1.0000
  H   H86       1.0  0.65397  0.91894  0.94026  1.0000
  H   H87       1.0  0.80383  0.02483999999999974  0.8959  1.0000
  H   H88       1.0  0.60002  0.9229099999999998  0.8012100000000002  1.0000
  C   C132      1.0  0.58  0.16583  0.78391  1.0000
  C   C133      1.0  0.60781  0.11463000000000004  0.7433800000000002  1.0000
  C   C134      1.0  0.54972  0.1119400000000001  0.6990100000000002  1.0000
  C   C135      1.0  0.58166  0.14468999999999996  0.67421  1.0000
  C   C136      1.0  0.53056  0.14185  0.6323  1.0000
  C   C137      1.0  0.44811000000000006  0.10537999999999996  0.61453  1.0000
  C   C138      1.0  0.41377  0.07280000000000002  0.63944  1.0000
  C   C139      1.0  0.32683000000000006  0.03433000000000009  0.6206300000000002  1.0000
  O   O23       1.0  0.2834000000000001  0.011889999999999984  0.64527  1.0000
  O   O24       1.0  0.29583  0.02282000000000007  0.5741300000000003  1.0000
  C   C140      1.0  0.46487  0.07636000000000005  0.6817200000000001  1.0000
  H   H89       1.0  0.63743  0.1694200000000001  0.8130100000000002  1.0000
  H   H90       1.0  0.59517  0.19935999999999995  0.77204  1.0000
  H   H91       1.0  0.7005400000000002  0.11110999999999999  0.73538  1.0000
  H   H92       1.0  0.58484  0.08163  0.75502  1.0000
  H   H93       1.0  0.64722  0.17231999999999997  0.68746  1.0000
  H   H94       1.0  0.40858  0.10363000000000007  0.5822700000000002  1.0000
  H   H95       1.0  0.24437  0.99239  0.56423  1.0000
  H   H96       1.0  0.43979  0.051029999999999985  0.70088  1.0000
  C   C141      1.0  0.023460000000000005  0.63692  0.25869  1.0000
  C   C142      1.0  0.054360000000000006  0.60904  0.20617  1.0000
  C   C143      1.0  0.9569900000000001  0.61273  0.17710000000000006  1.0000
  C   C144      1.0  0.9359599999999998  0.6584699999999998  0.16740000000000005  1.0000
  C   C145      1.0  0.84716  0.66116  0.13916  1.0000
  C   C146      1.0  0.7772  0.61862  0.12187  1.0000
  C   C147      1.0  0.79483  0.57348  0.13266  1.0000
  C   C148      1.0  0.7170200000000001  0.53004  0.11596000000000002  1.0000
  O   O25       1.0  0.74115  0.48786  0.11864  1.0000
  O   O26       1.0  0.6147900000000002  0.53749  0.09764000000000003  1.0000
  C   C149      1.0  0.8857300000000001  0.57067  0.16008  1.0000
  H   H97       1.0  0.9955100000000001  0.67764  0.26498  1.0000
  H   H98       1.0  0.9531400000000001  0.6169299999999999  0.27018  1.0000
  H   H99       1.0  0.12967000000000006  0.6263199999999998  0.19480000000000006  1.0000
  H   H100      1.0  0.0767  0.56775  0.20028000000000007  1.0000
  H   H101      1.0  0.9902500000000001  0.6912099999999999  0.18077000000000001  1.0000
  H   H102      1.0  0.70797  0.6210199999999998  0.10028000000000002  1.0000
  H   H103      1.0  0.56708  0.50559  0.089  1.0000
  H   H104      1.0  0.89983  0.53629  0.16918  1.0000
  C   C150      1.0  0.9623300000000001  0.29323  0.38357000000000013  1.0000
  C   C151      1.0  0.90821  0.34746999999999995  0.39803  1.0000
  C   C152      1.0  0.9767100000000001  0.37821  0.3746700000000001  1.0000
  C   C153      1.0  0.9709799999999997  0.36672  0.32573000000000013  1.0000
  C   C154      1.0  0.04780000000000006  0.38778000000000007  0.3015500000000001  1.0000
  C   C155      1.0  0.12418999999999998  0.42401000000000005  0.3268800000000001  1.0000
  C   C156      1.0  0.14001  0.43088  0.37428  1.0000
  C   C157      1.0  0.24498  0.4537499999999999  0.39563000000000004  1.0000
  O   O27       1.0  0.26243  0.45657  0.43581  1.0000
  O   O28       1.0  0.3272700000000001  0.46942  0.36925  1.0000
  C   C158      1.0  0.06432  0.40872  0.3985100000000001  1.0000
  H   H105      1.0  0.9698400000000003  0.27491  0.34441  1.0000
  H   H106      1.0  0.0489900000000001  0.2966  0.39613  1.0000
  H   H107      1.0  0.82008  0.34512  0.38657  1.0000
  H   H108      1.0  0.9060600000000001  0.36624  0.4372600000000001  1.0000
  H   H109      1.0  0.91703  0.3362200000000001  0.3057400000000001  1.0000
  H   H110      1.0  0.18517  0.43918999999999997  0.30759  1.0000
  H   H111      1.0  0.39599  0.48350000000000004  0.3879200000000001  1.0000
  H   H112      1.0  0.07905  0.4115299999999999  0.43458  1.0000
  C   C159      1.0  0.026249999999999978  0.33127000000000006  0.9114300000000002  1.0000
  C   C160      1.0  0.10081000000000001  0.35067  0.87808  1.0000
  C   C161      1.0  0.08193999999999999  0.32311000000000006  0.8261700000000002  1.0000
  C   C162      1.0  0.97646  0.32754000000000005  0.8081100000000002  1.0000
  C   C163      1.0  0.96144  0.30636  0.75939  1.0000
  C   C164      1.0  0.051600000000000014  0.27996  0.72853  1.0000
  C   C165      1.0  0.15748  0.27485  0.74581  1.0000
  C   C166      1.0  0.25224  0.24728000000000003  0.7125200000000002  1.0000
  O   O29       1.0  0.34689  0.24674  0.72669  1.0000
  O   O30       1.0  0.23371999999999987  0.22206000000000006  0.6646400000000002  1.0000
  C   C167      1.0  0.17214000000000002  0.29695  0.7948000000000001  1.0000
  H   H113      1.0  0.99928  0.36527  0.9428800000000003  1.0000
  H   H114      1.0  0.94836  0.3131999999999999  0.8947300000000002  1.0000
  H   H115      1.0  0.08101  0.39256000000000013  0.8860300000000002  1.0000
  H   H116      1.0  0.19139999999999996  0.34809999999999997  0.8854900000000001  1.0000
  H   H117      1.0  0.9074000000000001  0.3488999999999999  0.83182  1.0000
  H   H118      1.0  0.038470000000000004  0.26318  0.69095  1.0000
  H   H119      1.0  0.30499000000000004  0.20504  0.64548  1.0000
  H   H120      1.0  0.25418999999999997  0.2946700000000001  0.8085000000000002  1.0000
  C   C168      1.0  0.9253700000000001  0.671  0.6297700000000003  1.0000
  C   C169      1.0  0.9917400000000001  0.6209500000000001  0.6269100000000002  1.0000
  C   C170      1.0  0.01934  0.62062  0.67527  1.0000
  C   C171      1.0  0.9310999999999999  0.6244399999999999  0.7084800000000002  1.0000
  C   C172      1.0  0.95182  0.6292499999999999  0.7551500000000001  1.0000
  C   C173      1.0  0.06301000000000001  0.6244399999999999  0.7675  1.0000
  C   C174      1.0  0.15334  0.61744  0.7336200000000003  1.0000
  C   C175      1.0  0.27072000000000007  0.61186  0.7463300000000002  1.0000
  O   O31       1.0  0.34972  0.61262  0.71929  1.0000
  O   O32       1.0  0.29146000000000005  0.6050999999999999  0.7891100000000002  1.0000
  C   C176      1.0  0.13080000000000003  0.61692  0.68781  1.0000
  H   H121      1.0  0.85562  0.66082  0.6049900000000002  1.0000
  H   H122      1.0  0.8858700000000003  0.6915999999999998  0.66563  1.0000
  H   H123      1.0  0.9389800000000001  0.587  0.61019  1.0000
  H   H124      1.0  0.0698  0.6152  0.60362  1.0000
  H   H125      1.0  0.84519  0.62675  0.6984  1.0000
  H   H126      1.0  0.07940999999999997  0.6284799999999998  0.8036900000000002  1.0000
  H   H127      1.0  0.37495  0.60108  0.79343  1.0000
  H   H128      1.0  0.19949999999999996  0.6134100000000001  0.6619000000000003  1.0000
