data_image0
_chemical_formula_structural       Mn5CN8C2N8CN16Cl2C4Mn5CN8C2N8CN16Cl2C4Mn5CN8C2N8CN16Cl2C4Mn5CN8C2N8CN16Cl2C12H8C8H8C8H8C8H8C8H8C8H8C8H8C8H8C8H8C8H8C8H8C8H8C8H8C8H8C8H8C8H8
_chemical_formula_sum              "Mn20 C160 N128 Cl8 H128"
_cell_length_a       12.7681
_cell_length_b       26.9406
_cell_length_c       32.7126
_cell_angle_alpha    103.9361
_cell_angle_beta     92.2688
_cell_angle_gamma    90.6425

_symmetry_space_group_name_H-M    'P 1'
_symmetry_Int_Tables_number       1

loop_
  _symmetry_equiv_pos_as_xyz
  'x,y,z'

loop_
  _atom_site_type_symbol
  _atom_site_label
  _atom_site_symmetry_multiplicity
  _atom_site_fract_x
  _atom_site_fract_y
  _atom_site_fract_z
  _atom_site_occupancy
  Mn  Mn1       1.0  0.11847000000000006  0.37307  0.15491  1.0000
  Mn  Mn2       1.0  0.34372  0.313  0.11644  1.0000
  Mn  Mn3       1.0  0.49421  0.10269000000000006  0.8609700000000002  1.0000
  Mn  Mn4       1.0  0.26885000000000003  0.1624  0.89987  1.0000
  Mn  Mn5       1.0  0.30735  0.23858  0.0076900000000000015  1.0000
  C   C1        1.0  0.15038  0.29395  0.20782  1.0000
  N   N1        1.0  0.18605  0.31957  0.18050000000000005  1.0000
  N   N2        1.0  0.27202  0.29626  0.16595000000000004  1.0000
  N   N3        1.0  0.28969  0.25743  0.1833  1.0000
  N   N4        1.0  0.21435  0.25483  0.20963  1.0000
  N   N5        1.0  0.42803  0.21129  0.1188  1.0000
  N   N6        1.0  0.38579  0.23977000000000004  0.09517000000000003  1.0000
  N   N7        1.0  0.37009999999999993  0.21249000000000004  0.05611  1.0000
  N   N8        1.0  0.40085  0.16499  0.05297  1.0000
  C   C2        1.0  0.43684000000000006  0.16479  0.09213  1.0000
  C   C3        1.0  0.50195  0.36419  0.027910000000000008  1.0000
  N   N9        1.0  0.40959  0.33061  0.06634  1.0000
  N   N10       1.0  0.47728  0.3687300000000001  0.06840000000000003  1.0000
  N   N11       1.0  0.18911999999999998  0.2718  0.04476  1.0000
  N   N12       1.0  0.20624000000000003  0.2991  0.08375  1.0000
  N   N13       1.0  0.1197  0.3215  0.09855  1.0000
  N   N14       1.0  0.04174000000000011  0.30929  0.07001000000000003  1.0000
  N   N15       1.0  0.39408  0.3042000000000001  0.02682  1.0000
  N   N16       1.0  0.45126999999999995  0.32402  0.00171  1.0000
  C   C4        1.0  0.08516  0.27753  0.03665  1.0000
  N   N17       1.0  0.42099  0.15417000000000006  0.83471  1.0000
  N   N18       1.0  0.33546  0.17777000000000004  0.84931  1.0000
  N   N19       1.0  0.30024  0.20584000000000005  0.8238600000000003  1.0000
  N   N20       1.0  0.36385  0.20083000000000004  0.79196  1.0000
  N   N21       1.0  0.17463  0.26312  0.89741  1.0000
  N   N22       1.0  0.22458000000000003  0.23584  0.9205  1.0000
  N   N23       1.0  0.24589  0.26417  0.95889  1.0000
  N   N24       1.0  0.21268  0.31109  0.96215  1.0000
  N   N25       1.0  0.20318  0.14479  0.01677  1.0000
  N   N26       1.0  0.22123  0.17283000000000004  0.98962  1.0000
  N   N27       1.0  0.21045  0.14408000000000007  0.9508  1.0000
  N   N28       1.0  0.18889  0.09622  0.95169  1.0000
  N   N29       1.0  0.42521000000000003  0.20527  0.97046  1.0000
  N   N30       1.0  0.40784  0.1782  0.9313800000000002  1.0000
  N   N31       1.0  0.49405  0.15539000000000003  0.9166500000000002  1.0000
  N   N32       1.0  0.57184  0.16703000000000012  0.9453200000000003  1.0000
  Cl  Cl1       1.0  0.28508  0.3937600000000001  0.14036  1.0000
  Cl  Cl2       1.0  0.32939  0.08168  0.87626  1.0000
  C   C5        1.0  0.4384  0.16813  0.79905  1.0000
  C   C6        1.0  0.16823000000000002  0.3099600000000002  0.9238600000000002  1.0000
  C   C7        1.0  0.18352999999999997  0.09736000000000003  0.99297  1.0000
  C   C8        1.0  0.5288500000000003  0.19895000000000007  0.9786600000000002  1.0000
  Mn  Mn6       1.0  0.50949  0.89774  0.16697000000000006  1.0000
  Mn  Mn7       1.0  0.7369599999999998  0.83634  0.13274  1.0000
  Mn  Mn8       1.0  0.90577  0.6219200000000001  0.88057  1.0000
  Mn  Mn9       1.0  0.67731  0.6808  0.9169  1.0000
  Mn  Mn10      1.0  0.70811  0.75752  0.02527  1.0000
  C   C9        1.0  0.55328  0.83299  0.23059000000000004  1.0000
  N   N33       1.0  0.57659  0.84665  0.1953  1.0000
  N   N34       1.0  0.66367  0.8229700000000001  0.18281  1.0000
  N   N35       1.0  0.69451  0.79546  0.20936000000000005  1.0000
  N   N36       1.0  0.62636  0.8008  0.23973  1.0000
  N   N37       1.0  0.80436  0.73308  0.14064  1.0000
  N   N38       1.0  0.77949  0.7621900000000001  0.11443000000000003  1.0000
  N   N39       1.0  0.76759  0.73367  0.07556  1.0000
  N   N40       1.0  0.7857899999999999  0.68538  0.07509  1.0000
  C   C10       1.0  0.8111199999999998  0.68547  0.11558  1.0000
  C   C11       1.0  0.83036  0.89851  0.039070000000000014  1.0000
  N   N41       1.0  0.80138  0.85295  0.082  1.0000
  N   N42       1.0  0.82205  0.90066  0.08039  1.0000
  N   N43       1.0  0.58668  0.7916500000000002  0.06052  1.0000
  N   N44       1.0  0.60128  0.82043  0.09918  1.0000
  N   N45       1.0  0.51448  0.8440000000000001  0.11216000000000002  1.0000
  N   N46       1.0  0.43879  0.83132  0.08278000000000003  1.0000
  N   N47       1.0  0.79356  0.82335  0.043380000000000016  1.0000
  N   N48       1.0  0.81311  0.85062  0.01583  1.0000
  C   C12       1.0  0.4836  0.79802  0.05076000000000001  1.0000
  N   N49       1.0  0.83689  0.67377  0.85326  1.0000
  N   N50       1.0  0.74972  0.69648  0.8670700000000002  1.0000
  N   N51       1.0  0.72496  0.7309900000000001  0.8458200000000002  1.0000
  N   N52       1.0  0.7971  0.73153  0.81775  1.0000
  N   N53       1.0  0.59362  0.7817000000000001  0.91187  1.0000
  N   N54       1.0  0.6330099999999999  0.7538  0.9366300000000002  1.0000
  N   N55       1.0  0.64757  0.7819900000000001  0.97546  1.0000
  N   N56       1.0  0.61822  0.8294100000000001  0.97736  1.0000
  N   N57       1.0  0.56287  0.67309  0.03154  1.0000
  N   N58       1.0  0.62239  0.69182  0.006510000000000002  1.0000
  N   N59       1.0  0.60977  0.66422  0.96723  1.0000
  N   N60       1.0  0.54149  0.6263600000000001  0.9653  1.0000
  N   N61       1.0  0.82818  0.7234500000000001  0.9896500000000003  1.0000
  N   N62       1.0  0.81355  0.69648  0.9503600000000002  1.0000
  N   N63       1.0  0.90086  0.67403  0.9365  1.0000
  N   N64       1.0  0.97647  0.68542  0.96608  1.0000
  Cl  Cl3       1.0  0.6771699999999999  0.91757  0.15407  1.0000
  Cl  Cl4       1.0  0.7392000000000001  0.60035  0.8946800000000003  1.0000
  C   C13       1.0  0.8663800000000001  0.69548  0.8223900000000002  1.0000
  C   C14       1.0  0.58531  0.82876  0.93763  1.0000
  C   C15       1.0  0.51362  0.63233  0.005600000000000002  1.0000
  C   C16       1.0  0.9311  0.7169300000000001  0.99903  1.0000
  Mn  Mn11      1.0  0.99435  0.61199  0.37454  1.0000
  Mn  Mn12      1.0  0.23739  0.64743  0.42188  1.0000
  Mn  Mn13      1.0  0.47059  0.87778  0.66352  1.0000
  Mn  Mn14      1.0  0.22339  0.84437  0.61843  1.0000
  Mn  Mn15      1.0  0.22780000000000006  0.74526  0.52042  1.0000
  C   C17       1.0  0.11988999999999998  0.63382  0.3032800000000001  1.0000
  N   N65       1.0  0.10741  0.64106  0.3449300000000001  1.0000
  N   N66       1.0  0.19914  0.65759  0.36354  1.0000
  N   N67       1.0  0.2661499999999999  0.66221  0.3348  1.0000
  N   N68       1.0  0.21874  0.64777  0.29677  1.0000
  N   N69       1.0  0.39531000000000005  0.7253400000000002  0.4125000000000001  1.0000
  N   N70       1.0  0.32474  0.7123200000000001  0.4367200000000001  1.0000
  N   N71       1.0  0.31624  0.74905  0.47125  1.0000
  N   N72       1.0  0.37975  0.78784  0.47057  1.0000
  C   C18       1.0  0.42755  0.77274  0.43374  1.0000
  C   C19       1.0  0.29522  0.60097  0.5297400000000002  1.0000
  N   N73       1.0  0.2694499999999999  0.6361900000000001  0.47958  1.0000
  N   N74       1.0  0.28643  0.59103  0.4873000000000001  1.0000
  N   N75       1.0  0.10167000000000001  0.72134  0.4787400000000001  1.0000
  N   N76       1.0  0.10945  0.68534  0.44359  1.0000
  N   N77       1.0  0.01685  0.67338  0.42437  1.0000
  N   N78       1.0  0.94454  0.70243  0.4452800000000001  1.0000
  N   N79       1.0  0.26676  0.67163  0.51527  1.0000
  N   N80       1.0  0.28323  0.65099  0.54767  1.0000
  C   C20       1.0  0.9978599999999999  0.7326  0.4790900000000001  1.0000
  N   N81       1.0  0.3618  0.84523  0.6921900000000002  1.0000
  N   N82       1.0  0.26644  0.8327100000000001  0.67572  1.0000
  N   N83       1.0  0.2207  0.8017799999999999  0.6958  1.0000
  N   N84       1.0  0.2869  0.7933400000000002  0.72565  1.0000
  N   N85       1.0  0.06257  0.76807  0.62909  1.0000
  N   N86       1.0  0.13342000000000004  0.77971  0.6043100000000002  1.0000
  N   N87       1.0  0.13984  0.74215  0.57014  1.0000
  N   N88       1.0  0.07447000000000002  0.70426  0.5717700000000002  1.0000
  N   N89       1.0  0.17403  0.83896  0.4925700000000001  1.0000
  N   N90       1.0  0.1883  0.8191  0.52545  1.0000
  N   N91       1.0  0.18862  0.8555400000000001  0.56069  1.0000
  N   N92       1.0  0.17630999999999994  0.90063  0.55196  1.0000
  N   N93       1.0  0.35524  0.7686499999999998  0.56127  1.0000
  N   N94       1.0  0.35029  0.8060799999999999  0.59552  1.0000
  N   N95       1.0  0.44425  0.8177  0.61363  1.0000
  N   N96       1.0  0.5145099999999998  0.78711  0.59302  1.0000
  Cl  Cl5       1.0  0.13008  0.57686  0.40442  1.0000
  Cl  Cl6       1.0  0.33279  0.91409  0.63562  1.0000
  C   C21       1.0  0.37499  0.82033  0.7227600000000002  1.0000
  C   C22       1.0  0.02761  0.7207600000000001  0.6088  1.0000
  C   C23       1.0  0.16615  0.88945  0.50944  1.0000
  C   C24       1.0  0.45875  0.75638  0.56032  1.0000
  Mn  Mn16      1.0  0.52745  0.13256  0.36372  1.0000
  Mn  Mn17      1.0  0.7733399999999999  0.16465000000000002  0.41094  1.0000
  Mn  Mn18      1.0  0.003379999999999998  0.39149  0.65456  1.0000
  Mn  Mn19      1.0  0.75703  0.35625  0.60989  1.0000
  Mn  Mn20      1.0  0.76443  0.2597500000000001  0.5108000000000003  1.0000
  C   C25       1.0  0.62912  0.19179  0.30623  1.0000
  N   N97       1.0  0.6372900000000001  0.16767  0.33748  1.0000
  N   N98       1.0  0.73264  0.17855  0.3544100000000001  1.0000
  N   N99       1.0  0.78307  0.20776000000000003  0.3341300000000001  1.0000
  N   N100      1.0  0.72004  0.21674  0.30359  1.0000
  N   N101      1.0  0.9273  0.2459  0.40263  1.0000
  N   N102      1.0  0.86113  0.23004  0.4272  1.0000
  N   N103      1.0  0.85242  0.26557  0.46242  1.0000
  N   N104      1.0  0.91204  0.30587  0.46219  1.0000
  C   C26       1.0  0.95802  0.29323  0.42487  1.0000
  C   C27       1.0  0.8277  0.11419000000000001  0.51775  1.0000
  N   N105      1.0  0.8063200000000001  0.15087  0.46807  1.0000
  N   N106      1.0  0.81915  0.10504000000000001  0.47527  1.0000
  N   N107      1.0  0.63806  0.23704  0.46952  1.0000
  N   N108      1.0  0.64479  0.20146  0.43418  1.0000
  N   N109      1.0  0.55138  0.19019  0.41548  1.0000
  N   N110      1.0  0.47991  0.21931  0.43677  1.0000
  N   N111      1.0  0.80456  0.18583000000000002  0.5041  1.0000
  N   N112      1.0  0.81822  0.16424  0.53612  1.0000
  C   C28       1.0  0.5344  0.2487  0.47055  1.0000
  N   N113      1.0  0.8945  0.36005  0.68406  1.0000
  N   N114      1.0  0.80011  0.34562  0.66737  1.0000
  N   N115      1.0  0.7382400000000001  0.33844  0.6970200000000002  1.0000
  N   N116      1.0  0.7927600000000001  0.34819  0.7337  1.0000
  N   N117      1.0  0.59758  0.2783  0.61851  1.0000
  N   N118      1.0  0.67006  0.2909  0.59492  1.0000
  N   N119      1.0  0.6767700000000001  0.25477  0.55981  1.0000
  N   N120      1.0  0.6102  0.2168  0.55953  1.0000
  N   N121      1.0  0.7041500000000002  0.35422  0.4850200000000001  1.0000
  N   N122      1.0  0.72383  0.33331  0.51706  1.0000
  N   N123      1.0  0.72093  0.36824  0.55295  1.0000
  N   N124      1.0  0.70112  0.41343  0.54582  1.0000
  N   N125      1.0  0.8908299999999999  0.28252  0.55189  1.0000
  N   N126      1.0  0.8846999999999999  0.31883  0.58682  1.0000
  N   N127      1.0  0.97847  0.33102  0.60485  1.0000
  N   N128      1.0  0.04987  0.30206000000000005  0.5833  1.0000
  Cl  Cl7       1.0  0.6647399999999999  0.09477  0.39101  1.0000
  Cl  Cl8       1.0  0.86405  0.42691  0.62693  1.0000
  C   C29       1.0  0.89037  0.36162  0.7251300000000003  1.0000
  C   C30       1.0  0.56232  0.23176000000000005  0.5963500000000003  1.0000
  C   C31       1.0  0.69019  0.40392  0.50346  1.0000
  C   C32       1.0  0.99476  0.27151  0.55026  1.0000
  C   C33       1.0  0.58765  0.21822  0.02023  1.0000
  C   C34       1.0  0.70097  0.22859  0.01416  1.0000
  C   C35       1.0  0.77874  0.19734000000000002  0.02548  1.0000
  C   C36       1.0  0.88395  0.2063  0.01906  1.0000
  C   C37       1.0  0.91277  0.24691000000000002  0.00162  1.0000
  C   C38       1.0  0.026100000000000033  0.2571000000000001  0.9953100000000003  1.0000
  C   C39       1.0  0.83491  0.27822  0.99034  1.0000
  C   C40       1.0  0.72974  0.26913  0.99666  1.0000
  H   H1        1.0  0.55339  0.25348  0.03891  1.0000
  H   H2        1.0  0.5825  0.18848  0.03827000000000001  1.0000
  H   H3        1.0  0.75797  0.16581  0.03903  1.0000
  H   H4        1.0  0.94296  0.18167  0.02773  1.0000
  H   H5        1.0  0.03079000000000009  0.28618  0.97668  1.0000
  H   H6        1.0  0.06084000000000002  0.22154000000000007  0.9772100000000002  1.0000
  H   H7        1.0  0.85542  0.30988  0.9769  1.0000
  H   H8        1.0  0.67063  0.2934700000000001  0.9877800000000002  1.0000
  C   C41       1.0  0.9882800000000002  0.73731  0.04077  1.0000
  C   C42       1.0  0.10161000000000002  0.74847  0.03437  1.0000
  C   C43       1.0  0.18117  0.71783  0.04533  1.0000
  C   C44       1.0  0.28541  0.72641  0.03696  1.0000
  C   C45       1.0  0.31173  0.76543  0.01726  1.0000
  C   C46       1.0  0.42475  0.7756700000000002  0.009620000000000186  1.0000
  C   C47       1.0  0.23227  0.79634  0.006629999999999914  1.0000
  C   C48       1.0  0.12811000000000006  0.78806  0.01529  1.0000
  H   H9        1.0  0.95209  0.7726200000000001  0.058610000000000016  1.0000
  H   H10       1.0  0.9826999999999999  0.70798  0.05936  1.0000
  H   H11       1.0  0.16259  0.68701  0.06002  1.0000
  H   H12       1.0  0.3458  0.70292  0.04608  1.0000
  H   H13       1.0  0.42851  0.80375  0.98987  1.0000
  H   H14       1.0  0.45981  0.73987  0.99213  1.0000
  H   H15       1.0  0.25101000000000007  0.82719  0.9920000000000002  1.0000
  H   H16       1.0  0.06787  0.8122100000000001  0.006799999999999917  1.0000
  C   C49       1.0  0.50955  0.71487  0.52848  1.0000
  C   C50       1.0  0.62242  0.72926  0.52321  1.0000
  C   C51       1.0  0.64632  0.77418  0.5104500000000002  1.0000
  C   C52       1.0  0.75036  0.78862  0.50675  1.0000
  C   C53       1.0  0.8327600000000002  0.7583400000000003  0.5157500000000003  1.0000
  C   C54       1.0  0.94539  0.77332  0.51102  1.0000
  C   C55       1.0  0.80903  0.71333  0.52841  1.0000
  C   C56       1.0  0.70487  0.69882  0.5319900000000002  1.0000
  H   H17       1.0  0.50547  0.67903  0.5395  1.0000
  H   H18       1.0  0.46733  0.70733  0.49756  1.0000
  H   H19       1.0  0.58432  0.79868  0.50426  1.0000
  H   H20       1.0  0.76652  0.8235700000000001  0.49705  1.0000
  H   H21       1.0  0.98677  0.7806200000000001  0.54207  1.0000
  H   H22       1.0  0.94935  0.80954  0.50055  1.0000
  H   H23       1.0  0.8713300000000002  0.68911  0.53499  1.0000
  H   H24       1.0  0.68881  0.66389  0.5417  1.0000
  C   C57       1.0  0.04605  0.23136999999999996  0.51732  1.0000
  C   C58       1.0  0.15921  0.24586999999999998  0.51325  1.0000
  C   C59       1.0  0.18441999999999997  0.29189  0.50241  1.0000
  C   C60       1.0  0.2889  0.30625  0.49964  1.0000
  C   C61       1.0  0.37012  0.2746  0.50728  1.0000
  C   C62       1.0  0.48311999999999994  0.2892  0.50306  1.0000
  C   C63       1.0  0.34491  0.22843999999999998  0.51789  1.0000
  C   C64       1.0  0.24042  0.21416  0.52083  1.0000
  H   H25       1.0  0.040020000000000035  0.19426000000000007  0.5263400000000003  1.0000
  H   H26       1.0  0.005910000000000007  0.226  0.48615000000000014  1.0000
  H   H27       1.0  0.12308000000000001  0.31713  0.49685  1.0000
  H   H28       1.0  0.30637  0.3421000000000001  0.4915800000000001  1.0000
  H   H29       1.0  0.52404  0.2955500000000001  0.5342  1.0000
  H   H30       1.0  0.48817  0.32576  0.4931500000000001  1.0000
  H   H31       1.0  0.40619  0.20295  0.52302  1.0000
  H   H32       1.0  0.22302000000000002  0.1783  0.52885  1.0000
  C   C65       1.0  0.43215  0.60045  0.019530000000000047  1.0000
  C   C66       1.0  0.47194  0.54791  0.018070000000000006  1.0000
  C   C67       1.0  0.46609  0.51008  0.98012  1.0000
  C   C68       1.0  0.50127  0.46090000000000003  0.97894  1.0000
  C   C69       1.0  0.54325  0.44899  0.01566  1.0000
  C   C70       1.0  0.58297  0.39637000000000006  0.01403  1.0000
  C   C71       1.0  0.54954  0.48691000000000006  0.053600000000000016  1.0000
  C   C72       1.0  0.51437  0.53613  0.05477  1.0000
  H   H33       1.0  0.4111499999999999  0.61924  0.05221999999999994  1.0000
  H   H34       1.0  0.35971  0.5981800000000002  0.9991400000000003  1.0000
  H   H35       1.0  0.4337900000000001  0.51866  0.95153  1.0000
  H   H36       1.0  0.49578  0.43212000000000006  0.94939  1.0000
  H   H37       1.0  0.6556100000000001  0.39853  0.034270000000000016  1.0000
  H   H38       1.0  0.60355  0.37766  0.9812800000000002  1.0000
  H   H39       1.0  0.58227  0.47845  0.08215  1.0000
  H   H40       1.0  0.52028  0.56505  0.08427  1.0000
  C   C73       1.0  0.66837  0.44397  0.47995  1.0000
  C   C74       1.0  0.57679  0.47463000000000005  0.49829  1.0000
  C   C75       1.0  0.47671  0.45149  0.4946  1.0000
  C   C76       1.0  0.39225  0.47896  0.5136  1.0000
  C   C77       1.0  0.40676999999999996  0.53008  0.53624  1.0000
  C   C78       1.0  0.31488  0.56119  0.55379  1.0000
  C   C79       1.0  0.50692  0.5531700000000002  0.5399600000000002  1.0000
  C   C80       1.0  0.59132  0.52571  0.52094  1.0000
  H   H41       1.0  0.73981  0.46866000000000013  0.4825100000000001  1.0000
  H   H42       1.0  0.6508  0.42601  0.4460300000000001  1.0000
  H   H43       1.0  0.46439  0.4121600000000001  0.47699  1.0000
  H   H44       1.0  0.31545000000000006  0.46055  0.5100500000000002  1.0000
  H   H45       1.0  0.33103000000000005  0.57951  0.58776  1.0000
  H   H46       1.0  0.24300000000000005  0.5367500000000002  0.5509300000000003  1.0000
  H   H47       1.0  0.51913  0.59268  0.55709  1.0000
  H   H48       1.0  0.66791  0.54425  0.5240700000000003  1.0000
  C   C81       1.0  0.20137  0.05137  0.01016  1.0000
  C   C82       1.0  0.10044  0.02407  0.0129  1.0000
  C   C83       1.0  0.05319  0.03019  0.05176  1.0000
  C   C84       1.0  0.96014  0.0037300000000000102  0.05435  1.0000
  C   C85       1.0  0.91362  0.97093  0.01815  1.0000
  C   C86       1.0  0.8127  0.94368  0.020800000000000006  1.0000
  C   C87       1.0  0.96068  0.9649  0.9793  1.0000
  C   C88       1.0  0.053640000000000014  0.99137  0.97669  1.0000
  H   H49       1.0  0.25541  0.025150000000000023  0.98989  1.0000
  H   H50       1.0  0.24212  0.06352  0.04181  1.0000
  H   H51       1.0  0.08784  0.05568  0.07994000000000002  1.0000
  H   H52       1.0  0.92364  0.009139999999999924  0.0844  1.0000
  H   H53       1.0  0.77336  0.93053  0.9889700000000001  1.0000
  H   H54       1.0  0.7577799999999999  0.9703  0.04025  1.0000
  H   H55       1.0  0.92542  0.9397400000000001  0.9510700000000002  1.0000
  H   H56       1.0  0.08931000000000003  0.98629  0.9465100000000002  1.0000
  C   C89       1.0  0.83419  0.07359000000000004  0.5419000000000003  1.0000
  C   C90       1.0  0.9178100000000001  0.03610000000000001  0.52581  1.0000
  C   C91       1.0  0.02323  0.05228999999999997  0.53004  1.0000
  C   C92       1.0  0.10169  0.01741999999999999  0.51617  1.0000
  C   C93       1.0  0.07580000000000002  0.9658500000000002  0.4980400000000001  1.0000
  C   C94       1.0  0.16046999999999997  0.9283100000000001  0.4836600000000001  1.0000
  C   C95       1.0  0.97023  0.94969  0.4932900000000001  1.0000
  C   C96       1.0  0.8916300000000001  0.98462  0.50713  1.0000
  H   H57       1.0  0.85206  0.09146999999999997  0.57584  1.0000
  H   H58       1.0  0.7565  0.05388000000000001  0.53934  1.0000
  H   H59       1.0  0.04443  0.09188999999999997  0.54429  1.0000
  H   H60       1.0  0.18263  0.030659999999999896  0.51987  1.0000
  H   H61       1.0  0.23803  0.9481900000000002  0.4863300000000001  1.0000
  H   H62       1.0  0.14473  0.90888  0.44992  1.0000
  H   H63       1.0  0.9491  0.91004  0.47905  1.0000
  H   H64       1.0  0.81059  0.97144  0.50336  1.0000
  C   C97       1.0  0.52806  0.19933000000000003  0.28416  1.0000
  C   C98       1.0  0.52607  0.17208  0.2383  1.0000
  C   C99       1.0  0.59812  0.18577  0.21135000000000007  1.0000
  C   C100      1.0  0.58866  0.16455  0.16803000000000007  1.0000
  C   C101      1.0  0.50516  0.13062  0.15093  1.0000
  C   C102      1.0  0.47998  0.11841000000000002  0.10427  1.0000
  C   C103      1.0  0.43651  0.11481000000000001  0.17797000000000004  1.0000
  C   C104      1.0  0.44718  0.13529  0.22142  1.0000
  H   H65       1.0  0.46215  0.1857  0.30018  1.0000
  H   H66       1.0  0.51737  0.24094  0.28717  1.0000
  H   H67       1.0  0.65925  0.21425  0.22357000000000005  1.0000
  H   H68       1.0  0.64198  0.17721  0.14748000000000006  1.0000
  H   H69       1.0  0.4208  0.08661  0.09507  1.0000
  H   H70       1.0  0.55171  0.10601  0.08672  1.0000
  H   H71       1.0  0.37141  0.08879000000000001  0.16533  1.0000
  H   H72       1.0  0.39102  0.12407000000000001  0.24164000000000005  1.0000
  C   C105      1.0  0.46401  0.85463  0.25734  1.0000
  C   C106      1.0  0.47142  0.8427400000000002  0.30002  1.0000
  C   C107      1.0  0.55581  0.86243  0.32823  1.0000
  C   C108      1.0  0.56591  0.84957  0.36696  1.0000
  C   C109      1.0  0.49108  0.8178  0.3788200000000001  1.0000
  C   C110      1.0  0.51222  0.80338  0.42022  1.0000
  C   C111      1.0  0.40351  0.80002  0.35125  1.0000
  C   C112      1.0  0.39462  0.81202  0.31198000000000004  1.0000
  H   H73       1.0  0.3892  0.83956  0.24005000000000007  1.0000
  H   H74       1.0  0.46517000000000003  0.89684  0.26172  1.0000
  H   H75       1.0  0.61519  0.88682  0.31983  1.0000
  H   H76       1.0  0.6335700000000001  0.86376  0.38765  1.0000
  H   H77       1.0  0.52639  0.8391200000000001  0.4452700000000001  1.0000
  H   H78       1.0  0.5854  0.7812  0.41792  1.0000
  H   H79       1.0  0.3427499999999999  0.77608  0.35906  1.0000
  H   H80       1.0  0.32847  0.79685  0.29067  1.0000
  C   C113      1.0  0.48019000000000006  0.81223  0.7417600000000002  1.0000
  C   C114      1.0  0.49527999999999994  0.83366  0.78874  1.0000
  C   C115      1.0  0.59689  0.83351  0.80675  1.0000
  C   C116      1.0  0.61534  0.84949  0.85027  1.0000
  C   C117      1.0  0.53179  0.86445  0.87679  1.0000
  C   C118      1.0  0.5504399999999999  0.87554  0.92389  1.0000
  C   C119      1.0  0.43069999999999997  0.86655  0.85897  1.0000
  C   C120      1.0  0.41247  0.8515000000000001  0.81526  1.0000
  H   H81       1.0  0.49406000000000005  0.7704600000000001  0.73461  1.0000
  H   H82       1.0  0.54081  0.8297900000000001  0.7258600000000002  1.0000
  H   H83       1.0  0.66199  0.8201  0.78705  1.0000
  H   H84       1.0  0.69422  0.8482900000000001  0.8635  1.0000
  H   H85       1.0  0.47824  0.88955  0.9404500000000002  1.0000
  H   H86       1.0  0.6119000000000001  0.9061200000000003  0.9336500000000002  1.0000
  H   H87       1.0  0.3655  0.87874  0.87892  1.0000
  H   H88       1.0  0.33327  0.8526900000000001  0.8027100000000003  1.0000
  C   C121      1.0  0.52394  0.14646000000000006  0.77032  1.0000
  C   C122      1.0  0.51388  0.16065  0.72866  1.0000
  C   C123      1.0  0.42650999999999994  0.14358  0.70131  1.0000
  C   C124      1.0  0.41597000000000006  0.15733  0.66291  1.0000
  C   C125      1.0  0.4934  0.1875  0.65064  1.0000
  C   C126      1.0  0.47486  0.202  0.60909  1.0000
  C   C127      1.0  0.5832000000000002  0.20286000000000004  0.6775  1.0000
  C   C128      1.0  0.59252  0.18998000000000007  0.7163200000000002  1.0000
  H   H89       1.0  0.6007  0.15971  0.7867900000000002  1.0000
  H   H90       1.0  0.5204  0.10407000000000002  0.7644600000000003  1.0000
  H   H91       1.0  0.36598  0.12000000000000004  0.7099500000000002  1.0000
  H   H92       1.0  0.34688  0.14451000000000006  0.6426000000000002  1.0000
  H   H93       1.0  0.4029  0.2250700000000001  0.6107500000000002  1.0000
  H   H94       1.0  0.46029  0.16635  0.58395  1.0000
  H   H95       1.0  0.6464  0.22500000000000003  0.66918  1.0000
  H   H96       1.0  0.66136  0.20287  0.73669  1.0000
  C   C129      1.0  0.05612  0.59408  0.27157  1.0000
  C   C130      1.0  0.99926  0.60912  0.23496  1.0000
  C   C131      1.0  0.93145  0.57181  0.20978  1.0000
  C   C132      1.0  0.87231  0.58189  0.17619  1.0000
  C   C133      1.0  0.8797600000000001  0.62948  0.16605  1.0000
  C   C134      1.0  0.80588  0.63688  0.13055000000000005  1.0000
  C   C135      1.0  0.95093  0.6667600000000001  0.19006000000000006  1.0000
  C   C136      1.0  0.010050000000000003  0.6567  0.22451000000000004  1.0000
  H   H97       1.0  0.10824  0.56186  0.25848  1.0000
  H   H98       1.0  0.99625  0.57844  0.28918  1.0000
  H   H99       1.0  0.92291  0.5346  0.21664  1.0000
  H   H100      1.0  0.8189299999999999  0.5523  0.15818000000000004  1.0000
  H   H101      1.0  0.72447  0.6329700000000001  0.14038000000000006  1.0000
  H   H102      1.0  0.81664  0.6045  0.10272  1.0000
  H   H103      1.0  0.96026  0.7035799999999999  0.18277000000000004  1.0000
  H   H104      1.0  0.06346  0.6859200000000001  0.24276  1.0000
  C   C137      1.0  0.02963000000000005  0.32930000000000004  0.41009  1.0000
  C   C138      1.0  0.03461000000000003  0.3187  0.36277  1.0000
  C   C139      1.0  0.13193999999999972  0.31392  0.34386  1.0000
  C   C140      1.0  0.13784  0.30886  0.30042  1.0000
  C   C141      1.0  0.04583000000000004  0.30743000000000004  0.27481  1.0000
  C   C142      1.0  0.0455  0.30192  0.22749  1.0000
  C   C143      1.0  0.94865  0.3119  0.29395  1.0000
  C   C144      1.0  0.94304  0.31801999999999997  0.33746  1.0000
  H   H105      1.0  0.0008900000000000616  0.36878  0.4216100000000001  1.0000
  H   H106      1.0  0.10874000000000006  0.32815000000000005  0.42512  1.0000
  H   H107      1.0  0.20376999999999998  0.31552  0.36292000000000013  1.0000
  H   H108      1.0  0.21464  0.30701  0.28746  1.0000
  H   H109      1.0  0.99394  0.26868  0.21189  1.0000
  H   H110      1.0  0.01003  0.33655  0.22039  1.0000
  H   H111      1.0  0.87677  0.31134000000000006  0.2750900000000001  1.0000
  H   H112      1.0  0.86722  0.32264  0.35147  1.0000
  C   C145      1.0  0.10873  0.35433  0.91529  1.0000
  C   C146      1.0  0.06785000000000002  0.34838  0.8704400000000002  1.0000
  C   C147      1.0  0.9611500000000001  0.35604  0.8621700000000002  1.0000
  C   C148      1.0  0.9272400000000002  0.36533  0.82359  1.0000
  C   C149      1.0  0.99929  0.36662  0.79256  1.0000
  C   C150      1.0  0.97003  0.3910100000000001  0.7569000000000002  1.0000
  C   C151      1.0  0.10405000000000005  0.35391000000000006  0.7993100000000002  1.0000
  C   C152      1.0  0.13821  0.34522  0.8381  1.0000
  H   H113      1.0  0.04322000000000002  0.36171  0.93721  1.0000
  H   H114      1.0  0.16117  0.38878  0.92373  1.0000
  H   H115      1.0  0.90548  0.35897  0.8867200000000002  1.0000
  H   H116      1.0  0.84651  0.37556  0.8193200000000003  1.0000
  H   H117      1.0  0.04104  0.39726  0.74002  1.0000
  H   H118      1.0  0.93862  0.42953  0.77031  1.0000
  H   H119      1.0  0.16123  0.35464  0.77587  1.0000
  H   H120      1.0  0.22086  0.33973  0.8439700000000002  1.0000
  C   C153      1.0  0.9396  0.69227  0.62301  1.0000
  C   C154      1.0  0.95235  0.69108  0.66893  1.0000
  C   C155      1.0  0.97275  0.64501  0.6804500000000002  1.0000
  C   C156      1.0  0.9771300000000002  0.64335  0.72299  1.0000
  C   C157      1.0  0.96042  0.68767  0.75479  1.0000
  C   C158      1.0  0.96914  0.68659  0.80092  1.0000
  C   C159      1.0  0.94142  0.73384  0.7432000000000002  1.0000
  C   C160      1.0  0.9366100000000002  0.73545  0.70072  1.0000
  H   H121      1.0  0.86467  0.71106  0.61811  1.0000
  H   H122      1.0  0.93394  0.65274  0.60254  1.0000
  H   H123      1.0  0.98462  0.61023  0.6565  1.0000
  H   H124      1.0  0.99379  0.60742  0.73101  1.0000
  H   H125      1.0  0.026159999999999975  0.7169  0.8174900000000003  1.0000
  H   H126      1.0  0.0005900000000000348  0.6495300000000003  0.8045600000000003  1.0000
  H   H127      1.0  0.93056  0.7687400000000001  0.7671200000000002  1.0000
  H   H128      1.0  0.91941  0.7712600000000001  0.6926  1.0000
