data_image0
_chemical_formula_structural       Mn5CN8C2N8CN16Cl2C4Mn5CN8C2N8CN16Cl2C4Mn5CN8C2N8CN16Cl2C4Mn5CN8C2N8CN16Cl2C13O2CH10C9O2CH10C9O2CH10C9O2CH10C9O2CH10C9O2CH10C9O2CH10C9O2CH10C9O2CH10C9O2CH10C9O2CH10C9O2CH10C9O2CH10C9O2CH10C9O2CH10C9O2CH10
_chemical_formula_sum              "Mn20 C192 N128 Cl8 O32 H160"
_cell_length_a       12.7331
_cell_length_b       27.7907
_cell_length_c       32.026
_cell_angle_alpha    113.32999999999998
_cell_angle_beta     91.4602
_cell_angle_gamma    93.7585

_symmetry_space_group_name_H-M    'P 1'
_symmetry_Int_Tables_number       1

loop_
  _symmetry_equiv_pos_as_xyz
  'x,y,z'

loop_
  _atom_site_type_symbol
  _atom_site_label
  _atom_site_symmetry_multiplicity
  _atom_site_fract_x
  _atom_site_fract_y
  _atom_site_fract_z
  _atom_site_occupancy
  Mn  Mn1       1.0  0.10048999999999994  0.3478799999999999  0.20723999999999995  1.0000
  Mn  Mn2       1.0  0.33046999999999993  0.34215  0.15194  1.0000
  Mn  Mn3       1.0  0.54891  0.12773999999999985  0.8835999999999998  1.0000
  Mn  Mn4       1.0  0.29814  0.16236  0.9133  1.0000
  Mn  Mn5       1.0  0.3009  0.25879  0.030569999999999993  1.0000
  C   C1        1.0  0.25363  0.29979  0.2558299999999999  1.0000
  N   N1        1.0  0.22783  0.3173  0.22328999999999993  1.0000
  N   N2        1.0  0.31578999999999996  0.31732  0.20239  1.0000
  N   N3        1.0  0.39336  0.30216999999999994  0.22107999999999994  1.0000
  N   N4        1.0  0.3567  0.29043999999999986  0.25426999999999994  1.0000
  N   N5        1.0  0.48797  0.2652899999999999  0.13972  1.0000
  N   N6        1.0  0.41791  0.28316  0.11954999999999998  1.0000
  N   N7        1.0  0.39454  0.24888000000000002  0.07769  1.0000
  N   N8        1.0  0.44954  0.20748999999999992  0.06860999999999998  1.0000
  C   C2        1.0  0.50751  0.21857000000000001  0.10745  1.0000
  C   C3        1.0  0.36864  0.41855  0.06763  1.0000
  N   N9        1.0  0.34628  0.36781  0.10156  1.0000
  N   N10       1.0  0.36271  0.4179199999999999  0.10929  1.0000
  N   N11       1.0  0.17936999999999997  0.27402  0.07439999999999997  1.0000
  N   N12       1.0  0.19888999999999996  0.29726999999999987  0.11919999999999997  1.0000
  N   N13       1.0  0.11092999999999997  0.3  0.14059  1.0000
  N   N14       1.0  0.030350000000000092  0.27972  0.11067999999999997  1.0000
  N   N15       1.0  0.34307  0.33831  0.05733  1.0000
  N   N16       1.0  0.35602  0.3690699999999999  0.03455  1.0000
  C   C4        1.0  0.07281000000000004  0.26285  0.06938999999999998  1.0000
  N   N17       1.0  0.46219  0.16255999999999993  0.85205  1.0000
  N   N18       1.0  0.36627999999999994  0.17689999999999986  0.8625599999999998  1.0000
  N   N19       1.0  0.34073  0.20916999999999988  0.8435299999999998  1.0000
  N   N20       1.0  0.42141  0.2166999999999999  0.8204899999999998  1.0000
  N   N21       1.0  0.1741999999999999  0.24553999999999995  0.906  1.0000
  N   N22       1.0  0.22025  0.2290099999999999  0.9346099999999998  1.0000
  N   N23       1.0  0.21528  0.2637199999999999  0.9772599999999998  1.0000
  N   N24       1.0  0.16805  0.30491  0.9772  1.0000
  N   N25       1.0  0.22364  0.15569  0.03351  1.0000
  N   N26       1.0  0.25285  0.18037999999999998  0.00733  1.0000
  N   N27       1.0  0.24418999999999996  0.14701999999999987  0.9642999999999998  1.0000
  N   N28       1.0  0.21223  0.09943000000000002  0.96079  1.0000
  N   N29       1.0  0.42679  0.24350999999999984  0.9904299999999998  1.0000
  N   N30       1.0  0.42499999999999993  0.20087999999999992  0.9527399999999998  1.0000
  N   N31       1.0  0.5212399999999999  0.18917999999999993  0.94101  1.0000
  N   N32       1.0  0.59066  0.2250799999999999  0.9696299999999998  1.0000
  Cl  Cl1       1.0  0.21892  0.40348  0.19046999999999997  1.0000
  Cl  Cl2       1.0  0.39092999999999994  0.09016999999999989  0.8912199999999998  1.0000
  C   C5        1.0  0.49687  0.1878899999999999  0.8269199999999998  1.0000
  C   C6        1.0  0.14211  0.29263  0.93251  1.0000
  C   C7        1.0  0.19901  0.1053  0.004  1.0000
  C   C8        1.0  0.53116  0.2590799999999999  0.0005599999999998938  1.0000
  Mn  Mn6       1.0  0.53479  0.92171  0.18161999999999995  1.0000
  Mn  Mn7       1.0  0.7678099999999999  0.88347  0.13169999999999998  1.0000
  Mn  Mn8       1.0  0.91164  0.6409399999999998  0.8496199999999998  1.0000
  Mn  Mn9       1.0  0.68099  0.67692  0.9031299999999998  1.0000
  Mn  Mn10      1.0  0.7249599999999998  0.78002  0.01733  1.0000
  C   C9        1.0  0.6144599999999999  0.8561499999999997  0.22877  1.0000
  N   N33       1.0  0.63805  0.88696  0.20658999999999994  1.0000
  N   N34       1.0  0.73101  0.8744499999999998  0.18994  1.0000
  N   N35       1.0  0.7665399999999999  0.83916  0.20365  1.0000
  N   N36       1.0  0.69527  0.82686  0.22807999999999995  1.0000
  N   N37       1.0  0.89527  0.79973  0.13531  1.0000
  N   N38       1.0  0.84328  0.81672  0.10828999999999997  1.0000
  N   N39       1.0  0.8245899999999998  0.7782699999999998  0.06764  1.0000
  N   N40       1.0  0.86247  0.7349999999999999  0.06761999999999997  1.0000
  C   C10       1.0  0.9075  0.7487999999999998  0.10988  1.0000
  C   C11       1.0  0.8136599999999999  0.92808  0.026659999999999993  1.0000
  N   N41       1.0  0.7936299999999997  0.8933  0.07375  1.0000
  N   N42       1.0  0.81713  0.93931  0.07167999999999998  1.0000
  N   N43       1.0  0.60882  0.80508  0.06266  1.0000
  N   N44       1.0  0.62897  0.84289  0.10367999999999997  1.0000
  N   N45       1.0  0.54048  0.8578199999999998  0.12347  1.0000
  N   N46       1.0  0.4590099999999999  0.83035  0.09682  1.0000
  N   N47       1.0  0.7759900000000001  0.85613  0.03234999999999999  1.0000
  N   N48       1.0  0.7894400000000003  0.87643  0.0016699999999999996  1.0000
  C   C12       1.0  0.50089  0.79734  0.05869999999999999  1.0000
  N   N49       1.0  0.7999499999999999  0.67235  0.82471  1.0000
  N   N50       1.0  0.71239  0.68716  0.84552  1.0000
  N   N51       1.0  0.64703  0.69994  0.8195699999999998  1.0000
  N   N52       1.0  0.69162  0.6931599999999998  0.7808599999999999  1.0000
  N   N53       1.0  0.54703  0.76031  0.90208  1.0000
  N   N54       1.0  0.60794  0.74409  0.9271399999999997  1.0000
  N   N55       1.0  0.6274599999999999  0.7818399999999996  0.9679899999999998  1.0000
  N   N56       1.0  0.5806699999999999  0.8239399999999997  0.9711199999999998  1.0000
  N   N57       1.0  0.66722  0.68241  0.032619999999999996  1.0000
  N   N58       1.0  0.6737199999999999  0.7036199999999998  0.00233  1.0000
  N   N59       1.0  0.65769  0.66645  0.9608099999999998  1.0000
  N   N60       1.0  0.6423599999999999  0.6198599999999996  0.9626599999999998  1.0000
  N   N61       1.0  0.8385  0.7551299999999996  0.9709199999999998  1.0000
  N   N62       1.0  0.8197799999999997  0.71551  0.93099  1.0000
  N   N63       1.0  0.9074199999999999  0.7037099999999998  0.90967  1.0000
  N   N64       1.0  0.98657  0.7370799999999998  0.9337199999999999  1.0000
  Cl  Cl3       1.0  0.67657  0.95605  0.15803  1.0000
  Cl  Cl4       1.0  0.7733899999999999  0.6045299999999999  0.8746699999999997  1.0000
  C   C13       1.0  0.78709  0.67606  0.7844199999999998  1.0000
  C   C14       1.0  0.5304599999999998  0.8100199999999996  0.9300999999999998  1.0000
  C   C15       1.0  0.64705  0.6304  0.007559999999999998  1.0000
  C   C16       1.0  0.94296  0.7694499999999996  0.9719499999999998  1.0000
  Mn  Mn11      1.0  0.09692999999999995  0.57029  0.34072  1.0000
  Mn  Mn12      1.0  0.30233999999999994  0.65737  0.40428999999999987  1.0000
  Mn  Mn13      1.0  0.34559999999999996  0.94502  0.67499  1.0000
  Mn  Mn14      1.0  0.13627999999999996  0.8593799999999998  0.6119699999999999  1.0000
  Mn  Mn15      1.0  0.21871999999999997  0.75734  0.50879  1.0000
  C   C17       1.0  0.17227  0.62369  0.27735999999999994  1.0000
  N   N65       1.0  0.18019999999999997  0.6173499999999998  0.31674999999999986  1.0000
  N   N66       1.0  0.25998  0.65011  0.34062  1.0000
  N   N67       1.0  0.3021  0.67551  0.31707  1.0000
  N   N68       1.0  0.24856999999999999  0.65981  0.27711999999999987  1.0000
  N   N69       1.0  0.39497  0.7570099999999997  0.40252  1.0000
  N   N70       1.0  0.33657999999999993  0.73498  0.4246299999999999  1.0000
  N   N71       1.0  0.30371  0.77125  0.46179  1.0000
  N   N72       1.0  0.34051999999999993  0.8185499999999998  0.4656599999999999  1.0000
  C   C18       1.0  0.39596999999999993  0.80886  0.42832999999999993  1.0000
  C   C19       1.0  0.3985399999999999  0.6485899999999998  0.5236099999999999  1.0000
  N   N73       1.0  0.34123999999999993  0.66325  0.46777  1.0000
  N   N74       1.0  0.39812  0.63066  0.4776999999999999  1.0000
  N   N75       1.0  0.11745  0.70407  0.45831  1.0000
  N   N76       1.0  0.15199  0.66881  0.4207899999999999  1.0000
  N   N77       1.0  0.07354999999999998  0.6355999999999998  0.39615  1.0000
  N   N78       1.0  0.98423  0.64774  0.41623  1.0000
  N   N79       1.0  0.30891  0.699  0.50544  1.0000
  N   N80       1.0  0.34287  0.69101  0.5412299999999999  1.0000
  C   C20       1.0  0.01127999999999995  0.69096  0.4546999999999999  1.0000
  N   N81       1.0  0.25782  0.89973  0.6992199999999998  1.0000
  N   N82       1.0  0.1761999999999999  0.8681299999999995  0.6758699999999997  1.0000
  N   N83       1.0  0.12737999999999997  0.8467299999999998  0.70107  1.0000
  N   N84       1.0  0.17897999999999997  0.86343  0.7413899999999998  1.0000
  N   N85       1.0  0.05885999999999999  0.76187  0.6206999999999999  1.0000
  N   N86       1.0  0.09806999999999998  0.7818499999999999  0.59266  1.0000
  N   N87       1.0  0.13499999999999998  0.7444799999999999  0.55723  1.0000
  N   N88       1.0  0.12328999999999994  0.6990899999999999  0.5616199999999998  1.0000
  N   N89       1.0  0.10882999999999998  0.82946  0.47639  1.0000
  N   N90       1.0  0.12886999999999996  0.8162799999999999  0.51125  1.0000
  N   N91       1.0  0.09942000000000001  0.8528999999999999  0.54902  1.0000
  N   N92       1.0  0.05943000000000001  0.8907100000000001  0.54055  1.0000
  N   N93       1.0  0.321  0.80972  0.55918  1.0000
  N   N94       1.0  0.28696000000000005  0.84665  0.5956899999999998  1.0000
  N   N95       1.0  0.36674999999999996  0.8786799999999998  0.62041  1.0000
  N   N96       1.0  0.45661  0.8632599999999999  0.6019599999999998  1.0000
  Cl  Cl5       1.0  0.25115  0.5702399999999999  0.3794099999999999  1.0000
  Cl  Cl6       1.0  0.19258  0.9460599999999999  0.63583  1.0000
  C   C21       1.0  0.26047  0.8961699999999998  0.73969  1.0000
  C   C22       1.0  0.07537999999999999  0.7105799999999999  0.6011599999999998  1.0000
  C   C23       1.0  0.06509  0.87582  0.49531  1.0000
  C   C24       1.0  0.42839  0.8196999999999998  0.5637999999999997  1.0000
  Mn  Mn16      1.0  0.482  0.06320999999999992  0.34744999999999987  1.0000
  Mn  Mn17      1.0  0.72015  0.1282  0.39946  1.0000
  Mn  Mn18      1.0  0.8922099999999998  0.38228999999999985  0.6869999999999998  1.0000
  Mn  Mn19      1.0  0.6593  0.33747  0.62043  1.0000
  Mn  Mn20      1.0  0.69132  0.23364  0.50985  1.0000
  C   C25       1.0  0.55886  0.11664999999999995  0.28438999999999987  1.0000
  N   N97       1.0  0.57462  0.10422000000000001  0.32039  1.0000
  N   N98       1.0  0.6670799999999999  0.12810999999999995  0.3394099999999999  1.0000
  N   N99       1.0  0.7081299999999998  0.1543099999999999  0.3163799999999999  1.0000
  N   N100      1.0  0.642  0.14787  0.28148  1.0000
  N   N101      1.0  0.83788  0.22167  0.3931399999999999  1.0000
  N   N102      1.0  0.78816  0.20231999999999994  0.41965999999999987  1.0000
  N   N103      1.0  0.7794699999999999  0.23994999999999994  0.4602199999999999  1.0000
  N   N104      1.0  0.8225  0.28505999999999987  0.4614699999999999  1.0000
  C   C26       1.0  0.85788  0.2734  0.41961  1.0000
  C   C27       1.0  0.8074299999999999  0.10133999999999999  0.51127  1.0000
  N   N105      1.0  0.7639199999999999  0.12682999999999994  0.4599899999999999  1.0000
  N   N106      1.0  0.8001299999999999  0.08614999999999996  0.4655899999999999  1.0000
  N   N107      1.0  0.56794  0.19548999999999994  0.4628099999999999  1.0000
  N   N108      1.0  0.58268  0.1550299999999999  0.42459999999999987  1.0000
  N   N109      1.0  0.49206999999999995  0.12867999999999993  0.4057199999999999  1.0000
  N   N110      1.0  0.41373  0.15043999999999996  0.4306099999999999  1.0000
  N   N111      1.0  0.7471199999999999  0.16394999999999996  0.49986999999999987  1.0000
  N   N112      1.0  0.7742099999999998  0.1495699999999999  0.5330699999999999  1.0000
  C   C28       1.0  0.4607399999999999  0.19221999999999992  0.4661799999999999  1.0000
  N   N113      1.0  0.77155  0.3451599999999999  0.7056899999999998  1.0000
  N   N114      1.0  0.683  0.32868999999999987  0.6798699999999999  1.0000
  N   N115      1.0  0.61071  0.3114  0.70056  1.0000
  N   N116      1.0  0.65079  0.3162899999999999  0.7406199999999997  1.0000
  N   N117      1.0  0.50756  0.2529499999999999  0.6172999999999997  1.0000
  N   N118      1.0  0.57326  0.2685099999999999  0.5933699999999997  1.0000
  N   N119      1.0  0.60003  0.22772999999999993  0.55825  1.0000
  N   N120      1.0  0.55451  0.18373  0.55871  1.0000
  N   N121      1.0  0.62887  0.32163  0.48742999999999986  1.0000
  N   N122      1.0  0.6407099999999999  0.3049  0.52028  1.0000
  N   N123      1.0  0.6384  0.34449  0.56038  1.0000
  N   N124      1.0  0.6228999999999999  0.38828999999999986  0.5548099999999998  1.0000
  N   N125      1.0  0.81218  0.27036  0.55823  1.0000
  N   N126      1.0  0.7939699999999998  0.30388  0.59965  1.0000
  N   N127      1.0  0.8830399999999999  0.3217899999999999  0.62467  1.0000
  N   N128      1.0  0.96323  0.3009399999999998  0.6005299999999998  1.0000
  Cl  Cl7       1.0  0.63561  0.04633999999999997  0.37541999999999986  1.0000
  Cl  Cl8       1.0  0.7652899999999999  0.4130299999999999  0.6539699999999998  1.0000
  C   C29       1.0  0.7509199999999999  0.33742999999999984  0.7440499999999998  1.0000
  C   C30       1.0  0.49568999999999996  0.2003499999999999  0.5955399999999998  1.0000
  C   C31       1.0  0.61569  0.37308  0.50911  1.0000
  C   C32       1.0  0.91899  0.26815  0.55932  1.0000
  C   C33       1.0  0.57642  0.30985  0.03768  1.0000
  C   C34       1.0  0.69568  0.3105399999999999  0.04664999999999998  1.0000
  C   C35       1.0  0.7614899999999999  0.3147299999999999  0.00794  1.0000
  C   C36       1.0  0.8506399999999997  0.2793499999999999  0.9987099999999998  1.0000
  C   C37       1.0  0.9287399999999998  0.28911  0.03306  1.0000
  C   C38       1.0  0.0053600000000000305  0.25372  0.02848  1.0000
  C   C39       1.0  0.0056300000000000265  0.20869  0.98802  1.0000
  C   C40       1.0  0.93249  0.20008999999999988  0.9515699999999998  1.0000
  C   C41       1.0  0.93836  0.1543499999999999  0.9078199999999997  1.0000
  O   O1        1.0  0.8707299999999999  0.1445199999999999  0.8772299999999997  1.0000
  O   O2        1.0  0.022610000000000012  0.12282  0.90114  1.0000
  C   C42       1.0  0.85368  0.2352199999999999  0.9575499999999998  1.0000
  H   H1        1.0  0.53834  0.31566  0.06972999999999997  1.0000
  H   H2        1.0  0.5599  0.3431299999999999  0.028269999999999792  1.0000
  H   H3        1.0  0.71093  0.2747  0.052709999999999986  1.0000
  H   H4        1.0  0.7206599999999999  0.34477999999999986  0.07891999999999998  1.0000
  H   H5        1.0  0.79474  0.35605  0.018049999999999993  1.0000
  H   H6        1.0  0.71189  0.3050499999999998  0.9762099999999998  1.0000
  H   H7        1.0  0.9265500000000002  0.32347  0.06469  1.0000
  H   H8        1.0  0.06001999999999995  0.17973999999999996  0.9852499999999997  1.0000
  H   H9        1.0  0.019260000000000055  0.09337999999999995  0.8696599999999998  1.0000
  H   H10       1.0  0.79338  0.2277099999999999  0.93076  1.0000
  C   C43       1.0  0.9998299999999999  0.81926  0.006189999999999918  1.0000
  C   C44       1.0  0.11622  0.81343  0.014410000000000032  1.0000
  C   C45       1.0  0.18606999999999999  0.81482  0.9760599999999998  1.0000
  C   C46       1.0  0.27926  0.78397  0.9747199999999998  1.0000
  C   C47       1.0  0.3577  0.80497  0.009649999999999936  1.0000
  C   C48       1.0  0.43244  0.77353  0.01647  1.0000
  C   C49       1.0  0.42833  0.72026  0.9870199999999999  1.0000
  C   C50       1.0  0.35554  0.69966  0.9490399999999999  1.0000
  C   C51       1.0  0.35709  0.64475  0.91562  1.0000
  O   O3        1.0  0.28568999999999994  0.6249599999999997  0.8863499999999999  1.0000
  O   O4        1.0  0.44181  0.61585  0.91668  1.0000
  C   C52       1.0  0.27983999999999987  0.73169  0.94365  1.0000
  H   H11       1.0  0.96284  0.83047  0.039269999999999985  1.0000
  H   H12       1.0  0.99292  0.85149  0.9943599999999998  1.0000
  H   H13       1.0  0.12208  0.77655  0.01988999999999996  1.0000
  H   H14       1.0  0.14624999999999996  0.8463299999999999  0.04666999999999998  1.0000
  H   H15       1.0  0.21342  0.85623  0.98292  1.0000
  H   H16       1.0  0.14272999999999997  0.79889  0.9423199999999998  1.0000
  H   H17       1.0  0.35652  0.84564  0.03340000000000009  1.0000
  H   H18       1.0  0.47761  0.69447  0.9945499999999999  1.0000
  H   H19       1.0  0.43678  0.5797499999999999  0.89082  1.0000
  H   H20       1.0  0.21903999999999996  0.7156199999999999  0.9163799999999998  1.0000
  C   C53       1.0  0.50916  0.78808  0.53246  1.0000
  C   C54       1.0  0.6202999999999999  0.8178599999999998  0.5437199999999999  1.0000
  C   C55       1.0  0.70023  0.7946199999999999  0.5066499999999998  1.0000
  C   C56       1.0  0.77609  0.7583  0.51401  1.0000
  C   C57       1.0  0.8692399999999998  0.7497799999999998  0.4899099999999999  1.0000
  C   C58       1.0  0.9344099999999999  0.71096  0.4900099999999999  1.0000
  C   C59       1.0  0.9047400000000001  0.67989  0.5138  1.0000
  C   C60       1.0  0.8152499999999997  0.6890399999999997  0.5395999999999997  1.0000
  C   C61       1.0  0.78553  0.6550199999999998  0.5638799999999998  1.0000
  O   O5        1.0  0.71731  0.66692  0.59146  1.0000
  O   O6        1.0  0.8356799999999995  0.60907  0.5552099999999998  1.0000
  C   C62       1.0  0.75107  0.7282599999999999  0.5394999999999998  1.0000
  H   H21       1.0  0.48587  0.7797699999999996  0.4968199999999999  1.0000
  H   H22       1.0  0.5125  0.75  0.53563  1.0000
  H   H23       1.0  0.65219  0.82154  0.57753  1.0000
  H   H24       1.0  0.6113099999999999  0.8586299999999997  0.54683  1.0000
  H   H25       1.0  0.74892  0.8284799999999999  0.5049899999999998  1.0000
  H   H26       1.0  0.65871  0.7740699999999999  0.4725499999999999  1.0000
  H   H27       1.0  0.88733  0.77106  0.46866  1.0000
  H   H28       1.0  0.9501499999999998  0.6471199999999998  0.51079  1.0000
  H   H29       1.0  0.8090199999999999  0.5892  0.5738999999999997  1.0000
  H   H30       1.0  0.6795799999999999  0.73345  0.55769  1.0000
  C   C63       1.0  0.9842799999999999  0.23692999999999997  0.52067  1.0000
  C   C64       1.0  0.05344999999999999  0.20045999999999994  0.53296  1.0000
  C   C65       1.0  0.15169  0.2275199999999999  0.5651099999999999  1.0000
  C   C66       1.0  0.23816999999999994  0.24670999999999996  0.5426  1.0000
  C   C67       1.0  0.31715  0.21395  0.5207  1.0000
  C   C68       1.0  0.39602  0.23103999999999997  0.4984699999999999  1.0000
  C   C69       1.0  0.39197  0.28055999999999987  0.4969599999999999  1.0000
  C   C70       1.0  0.31597  0.31441  0.51988  1.0000
  C   C71       1.0  0.3115899999999999  0.3663299999999999  0.51753  1.0000
  O   O7        1.0  0.28936  0.40377  0.55102  1.0000
  O   O8        1.0  0.33113  0.3736499999999998  0.4776699999999999  1.0000
  C   C72       1.0  0.24037  0.29754999999999987  0.5433199999999998  1.0000
  H   H31       1.0  0.9323199999999999  0.21188999999999994  0.49076  1.0000
  H   H32       1.0  0.034049999999999914  0.26423  0.51041  1.0000
  H   H33       1.0  0.07927  0.17019  0.50098  1.0000
  H   H34       1.0  0.0031899999999999897  0.17959999999999995  0.5492799999999999  1.0000
  H   H35       1.0  0.18254999999999996  0.19833  0.57689  1.0000
  H   H36       1.0  0.13073999999999997  0.26009999999999983  0.5964599999999998  1.0000
  H   H37       1.0  0.31506  0.17444999999999994  0.51968  1.0000
  H   H38       1.0  0.44397999999999993  0.29145999999999994  0.47566999999999987  1.0000
  H   H39       1.0  0.33924  0.3398  0.4504299999999999  1.0000
  H   H40       1.0  0.18033  0.32315  0.56049  1.0000
  C   C73       1.0  0.6526  0.58952  0.02705000000000002  1.0000
  C   C74       1.0  0.6185  0.53316  0.9924099999999998  1.0000
  C   C75       1.0  0.49938  0.5232899999999998  0.9788699999999998  1.0000
  C   C76       1.0  0.4376399999999999  0.5187599999999998  0.01678999999999986  1.0000
  C   C77       1.0  0.42267  0.47036  0.021239999999999926  1.0000
  C   C78       1.0  0.38091  0.4683099999999999  0.06071  1.0000
  C   C79       1.0  0.35653  0.51545  0.096  1.0000
  C   C80       1.0  0.3682599999999999  0.5635099999999997  0.09118999999999997  1.0000
  C   C81       1.0  0.34963  0.61319  0.12944999999999995  1.0000
  O   O9        1.0  0.33107  0.65191  0.12233999999999998  1.0000
  O   O10       1.0  0.35747  0.61643  0.17401999999999995  1.0000
  C   C82       1.0  0.4055099999999999  0.56447  0.05080999999999999  1.0000
  H   H41       1.0  0.7359899999999999  0.5906499999999998  0.0387599999999999  1.0000
  H   H42       1.0  0.6063  0.6002499999999998  0.05783999999999967  1.0000
  H   H43       1.0  0.64112  0.50512  0.007379999999999941  1.0000
  H   H44       1.0  0.6634599999999999  0.52441  0.96128  1.0000
  H   H45       1.0  0.4844599999999999  0.48627999999999993  0.9478599999999999  1.0000
  H   H46       1.0  0.47182  0.55522  0.96975  1.0000
  H   H47       1.0  0.44805  0.4350599999999998  0.9950799999999997  1.0000
  H   H48       1.0  0.32789  0.5148  0.12734999999999994  1.0000
  H   H49       1.0  0.34824999999999995  0.6531199999999999  0.19736  1.0000
  H   H50       1.0  0.4171899999999999  0.6015999999999998  0.0472  1.0000
  C   C83       1.0  0.6069  0.40866999999999987  0.48442  1.0000
  C   C84       1.0  0.5401  0.45505999999999996  0.50856  1.0000
  C   C85       1.0  0.60893  0.50672  0.53153  1.0000
  C   C86       1.0  0.54292  0.55196  0.55448  1.0000
  C   C87       1.0  0.5073799999999999  0.5805399999999998  0.53022  1.0000
  C   C88       1.0  0.44483999999999996  0.6223699999999998  0.55078  1.0000
  C   C89       1.0  0.42234999999999995  0.6373499999999998  0.5968299999999997  1.0000
  C   C90       1.0  0.4574  0.6090499999999999  0.6216499999999998  1.0000
  C   C91       1.0  0.43312999999999996  0.6246799999999999  0.6700899999999997  1.0000
  O   O11       1.0  0.46785  0.60127  0.6919299999999998  1.0000
  O   O12       1.0  0.37132  0.66649  0.6910999999999998  1.0000
  C   C92       1.0  0.51516  0.5653699999999998  0.5996699999999998  1.0000
  H   H51       1.0  0.56941  0.38479999999999986  0.44994  1.0000
  H   H52       1.0  0.68772  0.42203  0.47888  1.0000
  H   H53       1.0  0.49128  0.44786  0.53414  1.0000
  H   H54       1.0  0.48522999999999994  0.45894  0.48270999999999986  1.0000
  H   H55       1.0  0.6562699999999997  0.51402  0.5056  1.0000
  H   H56       1.0  0.66576  0.50332  0.55652  1.0000
  H   H57       1.0  0.52743  0.5695699999999998  0.4950599999999999  1.0000
  H   H58       1.0  0.37564999999999993  0.67036  0.6129999999999999  1.0000
  H   H59       1.0  0.3603  0.6731  0.7241299999999998  1.0000
  H   H60       1.0  0.53767  0.5416  0.6176  1.0000
  C   C93       1.0  0.16666  0.06107  0.017869999999999994  1.0000
  C   C94       1.0  0.15815999999999994  0.006389999999999843  0.9779199999999998  1.0000
  C   C95       1.0  0.06450999999999996  0.9966299999999998  0.9434399999999997  1.0000
  C   C96       1.0  0.96139  0.9994999999999999  0.9656199999999998  1.0000
  C   C97       1.0  0.9307599999999999  0.9619  0.98275  1.0000
  C   C98       1.0  0.8400999999999998  0.96652  0.007099999999999999  1.0000
  C   C99       1.0  0.77621  0.007570000000000076  0.012539999999999997  1.0000
  C   C100      1.0  0.80276  0.04393  0.99317  1.0000
  C   C101      1.0  0.7311899999999999  0.08468999999999993  0.9957599999999999  1.0000
  O   O13       1.0  0.75777  0.11876999999999988  0.9822199999999999  1.0000
  O   O14       1.0  0.6322599999999999  0.08386  0.013269999999999997  1.0000
  C   C102      1.0  0.8969999999999999  0.040259999999999845  0.9705199999999998  1.0000
  H   H61       1.0  0.22757  0.06095999999999999  0.04328999999999999  1.0000
  H   H62       1.0  0.09112999999999997  0.06866999999999995  0.035020000000000044  1.0000
  H   H63       1.0  0.15283999999999995  0.9758399999999998  0.9921799999999997  1.0000
  H   H64       1.0  0.23091999999999993  0.0009899999999998792  0.9591199999999998  1.0000
  H   H65       1.0  0.06653  0.95683  0.91579  1.0000
  H   H66       1.0  0.07183  0.02486000000000001  0.92684  1.0000
  H   H67       1.0  0.97983  0.9300799999999998  0.9785899999999997  1.0000
  H   H68       1.0  0.70556  0.010669999999999957  0.03131  1.0000
  H   H69       1.0  0.59008  0.11341  0.012959999999999996  1.0000
  H   H70       1.0  0.92078  0.06921000000000004  0.95701  1.0000
  C   C103      1.0  0.83507  0.06655999999999998  0.53478  1.0000
  C   C104      1.0  0.95207  0.07339000000000001  0.54995  1.0000
  C   C105      1.0  0.027730000000000008  0.05976000000000002  0.51062  1.0000
  C   C106      1.0  0.024510000000000004  0.0016300000000000138  0.48057  1.0000
  C   C107      1.0  0.04423999999999997  0.9655899999999998  0.4997299999999999  1.0000
  C   C108      1.0  0.04557999999999996  0.9117199999999996  0.4726199999999999  1.0000
  C   C109      1.0  0.03174999999999999  0.8939799999999999  0.42515  1.0000
  C   C110      1.0  0.013709999999999981  0.92968  0.40494999999999987  1.0000
  C   C111      1.0  0.99805  0.9107499999999998  0.3548  1.0000
  O   O15       1.0  0.97379  0.9408000000000002  0.33751  1.0000
  O   O16       1.0  0.010760000000000004  0.85835  0.32708  1.0000
  C   C112      1.0  0.010070000000000006  0.98348  0.43302  1.0000
  H   H71       1.0  0.7876699999999999  0.07594000000000001  0.56535  1.0000
  H   H72       1.0  0.81243  0.025369999999999997  0.51215  1.0000
  H   H73       1.0  0.96428  0.04894  0.56965  1.0000
  H   H74       1.0  0.97181  0.11464999999999999  0.57435  1.0000
  H   H75       1.0  0.10932999999999997  0.07288999999999995  0.5258999999999999  1.0000
  H   H76       1.0  0.011679999999999986  0.08271999999999995  0.48995999999999995  1.0000
  H   H77       1.0  0.061169999999999995  0.97986  0.53609  1.0000
  H   H78       1.0  0.03438999999999997  0.85254  0.40415  1.0000
  H   H79       1.0  0.9970299999999999  0.85011  0.29351  1.0000
  H   H80       1.0  0.99728  0.011380000000000005  0.41789  1.0000
  C   C113      1.0  0.46033999999999997  0.10031999999999998  0.25361  1.0000
  C   C114      1.0  0.46537  0.11906  0.21442  1.0000
  C   C115      1.0  0.53833  0.08756999999999995  0.17708999999999994  1.0000
  C   C116      1.0  0.58616  0.11914999999999999  0.15204999999999994  1.0000
  C   C117      1.0  0.52382  0.14943  0.13681999999999994  1.0000
  C   C118      1.0  0.5699  0.18114999999999998  0.11639999999999999  1.0000
  C   C119      1.0  0.67692  0.17998999999999996  0.10788  1.0000
  C   C120      1.0  0.7395199999999998  0.14761  0.12035  1.0000
  C   C121      1.0  0.85151  0.14465999999999998  0.10906  1.0000
  O   O17       1.0  0.91021  0.12233  0.12483  1.0000
  O   O18       1.0  0.8897799999999998  0.16679  0.07958  1.0000
  C   C122      1.0  0.69407  0.11821  0.14343  1.0000
  H   H81       1.0  0.39306  0.11741  0.27448  1.0000
  H   H82       1.0  0.44569  0.056839999999999974  0.23961999999999997  1.0000
  H   H83       1.0  0.48966  0.16193999999999997  0.22847999999999993  1.0000
  H   H84       1.0  0.3843599999999999  0.11378999999999997  0.19854999999999995  1.0000
  H   H85       1.0  0.49188999999999994  0.05221  0.15204  1.0000
  H   H86       1.0  0.60236  0.07331999999999997  0.19235  1.0000
  H   H87       1.0  0.44008  0.14982  0.14219  1.0000
  H   H88       1.0  0.71101  0.20459  0.09174999999999998  1.0000
  H   H89       1.0  0.96577  0.15984  0.07234  1.0000
  H   H90       1.0  0.7420999999999999  0.09390999999999995  0.15405999999999995  1.0000
  C   C123      1.0  0.50327  0.84148  0.23602999999999993  1.0000
  C   C124      1.0  0.4931  0.8375699999999999  0.28189  1.0000
  C   C125      1.0  0.49012999999999995  0.8919  0.32074  1.0000
  C   C126      1.0  0.50742  0.8881299999999998  0.36592  1.0000
  C   C127      1.0  0.43888  0.8550999999999999  0.3783799999999999  1.0000
  C   C128      1.0  0.4587599999999999  0.84888  0.4189599999999999  1.0000
  C   C129      1.0  0.5475  0.8754599999999999  0.4473399999999999  1.0000
  C   C130      1.0  0.61909  0.9067699999999997  0.43431  1.0000
  C   C131      1.0  0.72142  0.9271999999999996  0.4598899999999999  1.0000
  O   O19       1.0  0.7927299999999999  0.9428499999999997  0.4425899999999999  1.0000
  O   O20       1.0  0.73825  0.9269099999999997  0.5030299999999998  1.0000
  C   C132      1.0  0.5965899999999998  0.9144599999999997  0.3943299999999999  1.0000
  H   H91       1.0  0.47759  0.80263  0.20848999999999995  1.0000
  H   H92       1.0  0.4501899999999999  0.87023  0.23292999999999994  1.0000
  H   H93       1.0  0.5590799999999999  0.8165899999999998  0.28832  1.0000
  H   H94       1.0  0.41856  0.81356  0.28024999999999994  1.0000
  H   H95       1.0  0.41248000000000007  0.90742  0.31923  1.0000
  H   H96       1.0  0.55178  0.91976  0.31666  1.0000
  H   H97       1.0  0.3721499999999999  0.8327899999999999  0.3558  1.0000
  H   H98       1.0  0.5645599999999998  0.8685999999999998  0.47772  1.0000
  H   H99       1.0  0.8129799999999997  0.9400499999999998  0.51622  1.0000
  H   H100      1.0  0.6507799999999999  0.93918  0.3843  1.0000
  C   C133      1.0  0.34436999999999995  0.92261  0.77681  1.0000
  C   C134      1.0  0.4075899999999999  0.88198  0.7856399999999999  1.0000
  C   C135      1.0  0.34499999999999986  0.8525399999999995  0.8104399999999998  1.0000
  C   C136      1.0  0.3882399999999999  0.8683599999999996  0.8585599999999998  1.0000
  C   C137      1.0  0.43539  0.8320099999999999  0.87177  1.0000
  C   C138      1.0  0.47578999999999994  0.84703  0.9166099999999998  1.0000
  C   C139      1.0  0.47095  0.8991  0.9480399999999998  1.0000
  C   C140      1.0  0.42735  0.9361499999999999  0.9347899999999998  1.0000
  C   C141      1.0  0.4318  0.99172  0.9668699999999998  1.0000
  O   O21       1.0  0.42838  0.02623999999999976  0.9524999999999998  1.0000
  O   O22       1.0  0.43934999999999996  0.004889999999999837  0.013699999999999822  1.0000
  C   C142      1.0  0.38312  0.9201399999999997  0.89035  1.0000
  H   H101      1.0  0.39916  0.94813  0.7664  1.0000
  H   H102      1.0  0.30781  0.94813  0.80816  1.0000
  H   H103      1.0  0.4818899999999999  0.90253  0.8056499999999999  1.0000
  H   H104      1.0  0.4322699999999999  0.8530399999999998  0.7526099999999998  1.0000
  H   H105      1.0  0.3472899999999998  0.8094499999999998  0.7908499999999998  1.0000
  H   H106      1.0  0.26053999999999994  0.86034  0.8120699999999997  1.0000
  H   H107      1.0  0.44243999999999994  0.7924199999999998  0.84698  1.0000
  H   H108      1.0  0.50507  0.9114299999999999  0.9823899999999998  1.0000
  H   H109      1.0  0.43721999999999994  0.04404999999999992  0.03203  1.0000
  H   H110      1.0  0.34578  0.94808  0.8802799999999997  1.0000
  C   C143      1.0  0.60875  0.18849999999999995  0.8138  1.0000
  C   C144      1.0  0.61561  0.16035  0.76227  1.0000
  C   C145      1.0  0.59291  0.19727999999999993  0.7386699999999998  1.0000
  C   C146      1.0  0.51999  0.17191  0.69684  1.0000
  C   C147      1.0  0.5489699999999997  0.1757  0.6565099999999999  1.0000
  C   C148      1.0  0.4722299999999999  0.16974999999999993  0.6224199999999998  1.0000
  C   C149      1.0  0.36776999999999993  0.15388999999999986  0.6263699999999998  1.0000
  C   C150      1.0  0.33927  0.14488  0.66497  1.0000
  C   C151      1.0  0.22836  0.13005999999999995  0.67022  1.0000
  O   O23       1.0  0.20370999999999995  0.12338999999999989  0.7042599999999998  1.0000
  O   O24       1.0  0.15129999999999996  0.12395999999999993  0.6363899999999998  1.0000
  C   C152      1.0  0.41582999999999987  0.15478999999999987  0.7003999999999998  1.0000
  H   H111      1.0  0.65429  0.16754  0.83046  1.0000
  H   H112      1.0  0.64493  0.22963000000000006  0.8268  1.0000
  H   H113      1.0  0.56134  0.12384  0.74925  1.0000
  H   H114      1.0  0.69665  0.14773000000000006  0.75494  1.0000
  H   H115      1.0  0.66935  0.21246999999999994  0.7306199999999999  1.0000
  H   H116      1.0  0.55543  0.23246999999999987  0.7617499999999998  1.0000
  H   H117      1.0  0.62824  0.19142999999999993  0.65456  1.0000
  H   H118      1.0  0.30827  0.15214999999999995  0.60099  1.0000
  H   H119      1.0  0.07856  0.11440000000000004  0.64434  1.0000
  H   H120      1.0  0.39313  0.15235  0.73187  1.0000
  C   C153      1.0  0.08699  0.59618  0.2405  1.0000
  C   C154      1.0  0.09830999999999997  0.6066999999999998  0.19688999999999995  1.0000
  C   C155      1.0  0.08813999999999995  0.6648099999999998  0.20400999999999997  1.0000
  C   C156      1.0  0.99186  0.6720199999999998  0.17896999999999996  1.0000
  C   C157      1.0  0.99923  0.7019499999999997  0.15211  1.0000
  C   C158      1.0  0.90759  0.71116  0.13188999999999998  1.0000
  C   C159      1.0  0.80914  0.69094  0.13905  1.0000
  C   C160      1.0  0.80044  0.6627099999999998  0.16673999999999997  1.0000
  C   C161      1.0  0.6953499999999999  0.64719  0.17794999999999994  1.0000
  O   O25       1.0  0.68543  0.61606  0.19610999999999995  1.0000
  O   O26       1.0  0.60741  0.6696499999999997  0.16897999999999996  1.0000
  C   C162      1.0  0.89207  0.6529  0.18614999999999995  1.0000
  H   H121      1.0  0.0887  0.55321  0.23103999999999994  1.0000
  H   H122      1.0  0.009359999999999955  0.6076499999999998  0.2546499999999999  1.0000
  H   H123      1.0  0.03811  0.58014  0.17076999999999995  1.0000
  H   H124      1.0  0.17479  0.59387  0.18271999999999997  1.0000
  H   H125      1.0  0.16067999999999996  0.6797399999999999  0.19286  1.0000
  H   H126      1.0  0.08313  0.68996  0.24073999999999995  1.0000
  H   H127      1.0  0.07493999999999996  0.7194399999999997  0.14824  1.0000
  H   H128      1.0  0.73834  0.6998499999999999  0.12490999999999997  1.0000
  H   H129      1.0  0.54161  0.65949  0.18153999999999995  1.0000
  H   H130      1.0  0.8857899999999999  0.63175  0.20813999999999994  1.0000
  C   C163      1.0  0.90614  0.31462  0.40478999999999987  1.0000
  C   C164      1.0  0.86046  0.3119899999999998  0.35866999999999993  1.0000
  C   C165      1.0  0.89695  0.26813999999999993  0.3153799999999999  1.0000
  C   C166      1.0  0.015489999999999997  0.2671799999999999  0.3137599999999999  1.0000
  C   C167      1.0  0.07421999999999973  0.28768999999999995  0.28661999999999993  1.0000
  C   C168      1.0  0.1848399999999999  0.28712  0.28747  1.0000
  C   C169      1.0  0.23493  0.26910999999999996  0.31751999999999997  1.0000
  C   C170      1.0  0.17777  0.24613  0.34232  1.0000
  C   C171      1.0  0.23467999999999994  0.22523999999999994  0.3715099999999999  1.0000
  O   O27       1.0  0.18658  0.20462  0.3934  1.0000
  O   O28       1.0  0.3446699999999999  0.22968999999999992  0.3741299999999999  1.0000
  C   C172      1.0  0.06785  0.24319999999999997  0.33865999999999996  1.0000
  H   H131      1.0  0.8897  0.35348  0.43103  1.0000
  H   H132      1.0  0.993  0.31477  0.40588999999999986  1.0000
  H   H133      1.0  0.88251  0.35038  0.3566699999999999  1.0000
  H   H134      1.0  0.77286  0.30792999999999987  0.35825  1.0000
  H   H135      1.0  0.86451  0.27401  0.28533  1.0000
  H   H136      1.0  0.8615399999999999  0.22934  0.31253999999999993  1.0000
  H   H137      1.0  0.03437000000000001  0.30275  0.26462  1.0000
  H   H138      1.0  0.3201399999999999  0.27089  0.32028  1.0000
  H   H139      1.0  0.37575  0.21576999999999993  0.3959899999999999  1.0000
  H   H140      1.0  0.02263  0.22384  0.35653  1.0000
  C   C173      1.0  0.09464999999999998  0.32903999999999994  0.9138099999999998  1.0000
  C   C174      1.0  0.09775999999999999  0.30866999999999994  0.8610399999999998  1.0000
  C   C175      1.0  0.08624  0.35064  0.84082  1.0000
  C   C176      1.0  0.9732299999999999  0.3622699999999998  0.8351499999999997  1.0000
  C   C177      1.0  0.92237  0.34971999999999975  0.7916899999999998  1.0000
  C   C178      1.0  0.81458  0.35745999999999994  0.78804  1.0000
  C   C179      1.0  0.75977  0.37860999999999995  0.8281199999999999  1.0000
  C   C180      1.0  0.8108899999999999  0.39368  0.87117  1.0000
  C   C181      1.0  0.7512399999999998  0.41371999999999987  0.9128599999999998  1.0000
  O   O29       1.0  0.79776  0.43664999999999987  0.9501099999999998  1.0000
  O   O30       1.0  0.64164  0.40447999999999995  0.9097  1.0000
  C   C182      1.0  0.9179799999999999  0.3865999999999999  0.87426  1.0000
  H   H141      1.0  0.011789999999999962  0.3323999999999998  0.9237299999999998  1.0000
  H   H142      1.0  0.13903999999999994  0.36828999999999984  0.9300299999999998  1.0000
  H   H143      1.0  0.03651  0.27544  0.84483  1.0000
  H   H144      1.0  0.17549  0.2927799999999999  0.8509999999999998  1.0000
  H   H145      1.0  0.12101999999999997  0.33600999999999986  0.8069399999999998  1.0000
  H   H146      1.0  0.1339  0.38766  0.86226  1.0000
  H   H147      1.0  0.96506  0.33236  0.76116  1.0000
  H   H148      1.0  0.67616  0.38315  0.82571  1.0000
  H   H149      1.0  0.61064  0.4146899999999998  0.9405899999999998  1.0000
  H   H150      1.0  0.9579099999999998  0.39878999999999987  0.9074299999999997  1.0000
  C   C183      1.0  0.05805999999999997  0.6733099999999997  0.6241399999999998  1.0000
  C   C184      1.0  0.11054999999999995  0.69712  0.6726299999999997  1.0000
  C   C185      1.0  0.11248999999999999  0.6574699999999999  0.69501  1.0000
  C   C186      1.0  0.0032699999999999995  0.63794  0.7011  1.0000
  C   C187      1.0  0.95038  0.66524  0.74058  1.0000
  C   C188      1.0  0.84694  0.64795  0.74476  1.0000
  C   C189      1.0  0.7974  0.6029699999999999  0.7101299999999998  1.0000
  C   C190      1.0  0.84987  0.5748  0.67105  1.0000
  C   C191      1.0  0.7964100000000001  0.52726  0.63518  1.0000
  O   O31       1.0  0.84067  0.50278  0.60062  1.0000
  O   O32       1.0  0.69469  0.51029  0.64122  1.0000
  C   C192      1.0  0.95278  0.59268  0.66663  1.0000
  H   H151      1.0  0.97198  0.66598  0.62608  1.0000
  H   H152      1.0  0.09112999999999999  0.63542  0.60369  1.0000
  H   H153      1.0  0.06818999999999993  0.7312799999999997  0.6942799999999998  1.0000
  H   H154      1.0  0.19332  0.71186  0.67139  1.0000
  H   H155      1.0  0.15554999999999994  0.6767899999999999  0.7288499999999998  1.0000
  H   H156      1.0  0.15750999999999998  0.6239299999999998  0.6743199999999998  1.0000
  H   H157      1.0  0.9886  0.70023  0.76728  1.0000
  H   H158      1.0  0.71752  0.5899999999999999  0.7140299999999998  1.0000
  H   H159      1.0  0.6646799999999999  0.4778599999999999  0.61451  1.0000
  H   H160      1.0  0.9933799999999999  0.5719299999999999  0.6360999999999999  1.0000
