data_image0
_chemical_formula_structural       Zn16H96C96N64
_chemical_formula_sum              "Zn16 H96 C96 N64"
_cell_length_a       9.80507
_cell_length_b       24.88721
_cell_length_c       23.28541
_cell_angle_alpha    90.0
_cell_angle_beta     90.0
_cell_angle_gamma    90.0

_symmetry_space_group_name_H-M    'P 1'
_symmetry_Int_Tables_number       1

loop_
  _symmetry_equiv_pos_as_xyz
  'x,y,z'

loop_
  _atom_site_type_symbol
  _atom_site_label
  _atom_site_symmetry_multiplicity
  _atom_site_fract_x
  _atom_site_fract_y
  _atom_site_fract_z
  _atom_site_occupancy
  Zn  Zn1       1.0  0.98232  0.17893000000000006  0.5008199999999999  1.0000
  Zn  Zn2       1.0  0.51768  0.82107  0.0008199999999999999  1.0000
  Zn  Zn3       1.0  0.01769  0.67893  0.9991899999999999  1.0000
  Zn  Zn4       1.0  0.48231999999999997  0.3210700000000001  0.49918999999999997  1.0000
  Zn  Zn5       1.0  0.01768  0.82107  0.49918999999999997  1.0000
  Zn  Zn6       1.0  0.48231999999999997  0.17893000000000006  0.9991899999999999  1.0000
  Zn  Zn7       1.0  0.98232  0.3210700000000001  0.0008199999999999999  1.0000
  Zn  Zn8       1.0  0.51768  0.67893  0.5008199999999999  1.0000
  Zn  Zn9       1.0  0.99791  0.0010500000000000002  0.32457  1.0000
  Zn  Zn10      1.0  0.50209  0.9989500000000001  0.8245799999999999  1.0000
  Zn  Zn11      1.0  0.00209  0.5010500000000001  0.17543  1.0000
  Zn  Zn12      1.0  0.49791  0.49895  0.67543  1.0000
  Zn  Zn13      1.0  0.00209  0.9989500000000001  0.67543  1.0000
  Zn  Zn14      1.0  0.49791  0.0010500000000000002  0.17543  1.0000
  Zn  Zn15      1.0  0.99791  0.49895  0.8245799999999999  1.0000
  Zn  Zn16      1.0  0.50209  0.5010500000000001  0.32457  1.0000
  H   H1        1.0  0.05297999999999999  0.06159000000000001  0.44628  1.0000
  H   H2        1.0  0.44702  0.9384200000000001  0.9462799999999999  1.0000
  H   H3        1.0  0.9470199999999999  0.56159  0.05371999999999998  1.0000
  H   H4        1.0  0.55298  0.43841  0.55372  1.0000
  H   H5        1.0  0.9470199999999999  0.9384200000000001  0.55372  1.0000
  H   H6        1.0  0.55298  0.06159000000000001  0.05371999999999998  1.0000
  H   H7        1.0  0.05297999999999999  0.43841  0.9462799999999999  1.0000
  H   H8        1.0  0.44702  0.56159  0.44628  1.0000
  H   H9        1.0  0.69706  0.03516  0.27872  1.0000
  H   H10       1.0  0.80294  0.96485  0.77872  1.0000
  H   H11       1.0  0.30294  0.5351600000000001  0.22127999999999995  1.0000
  H   H12       1.0  0.19706  0.46485  0.7212799999999999  1.0000
  H   H13       1.0  0.30294  0.96485  0.7212799999999999  1.0000
  H   H14       1.0  0.19706  0.03515  0.22127999999999995  1.0000
  H   H15       1.0  0.69706  0.46485  0.77872  1.0000
  H   H16       1.0  0.80294  0.5351600000000001  0.27872  1.0000
  H   H17       1.0  0.00793  0.27678  0.4118599999999999  1.0000
  H   H18       1.0  0.49207  0.7232200000000001  0.91186  1.0000
  H   H19       1.0  0.99207  0.7767800000000002  0.08813999999999997  1.0000
  H   H20       1.0  0.50793  0.22322000000000006  0.58814  1.0000
  H   H21       1.0  0.99207  0.7232200000000001  0.58814  1.0000
  H   H22       1.0  0.50793  0.27678  0.08813999999999997  1.0000
  H   H23       1.0  0.00793  0.22322000000000006  0.91186  1.0000
  H   H24       1.0  0.49207  0.7767800000000002  0.4118599999999999  1.0000
  H   H25       1.0  0.00798  0.9442400000000001  0.20048  1.0000
  H   H26       1.0  0.49202  0.05576  0.7004799999999998  1.0000
  H   H27       1.0  0.9920199999999999  0.44424000000000013  0.29952  1.0000
  H   H28       1.0  0.50798  0.5557600000000001  0.79952  1.0000
  H   H29       1.0  0.9920199999999999  0.05576  0.79952  1.0000
  H   H30       1.0  0.50798  0.9442400000000001  0.29952  1.0000
  H   H31       1.0  0.00798  0.5557600000000001  0.7004799999999998  1.0000
  H   H32       1.0  0.49202  0.44424000000000013  0.20048  1.0000
  H   H33       1.0  0.29449  0.21562000000000003  0.52953  1.0000
  H   H34       1.0  0.20550999999999997  0.7843900000000003  0.029529999999999994  1.0000
  H   H35       1.0  0.70551  0.7156200000000001  0.97047  1.0000
  H   H36       1.0  0.79449  0.28438  0.47047  1.0000
  H   H37       1.0  0.70551  0.7843900000000003  0.47047  1.0000
  H   H38       1.0  0.79449  0.21562000000000003  0.97047  1.0000
  H   H39       1.0  0.29449  0.28438  0.029529999999999994  1.0000
  H   H40       1.0  0.20550999999999997  0.7156200000000001  0.52953  1.0000
  H   H41       1.0  0.77448  0.93922  0.13324999999999998  1.0000
  H   H42       1.0  0.72552  0.060780000000000015  0.63325  1.0000
  H   H43       1.0  0.22551999999999997  0.4392200000000001  0.3667499999999999  1.0000
  H   H44       1.0  0.27448  0.56078  0.8667499999999998  1.0000
  H   H45       1.0  0.22551999999999997  0.060780000000000015  0.8667499999999998  1.0000
  H   H46       1.0  0.27448  0.93922  0.3667499999999999  1.0000
  H   H47       1.0  0.77448  0.56078  0.63325  1.0000
  H   H48       1.0  0.72552  0.4392200000000001  0.13324999999999998  1.0000
  H   H49       1.0  0.93762  0.058380000000000015  0.54896  1.0000
  H   H50       1.0  0.56238  0.9416200000000002  0.04895999999999999  1.0000
  H   H51       1.0  0.06238  0.55838  0.9510399999999998  1.0000
  H   H52       1.0  0.43761999999999995  0.44162000000000007  0.45103999999999994  1.0000
  H   H53       1.0  0.06238  0.9416200000000002  0.45103999999999994  1.0000
  H   H54       1.0  0.43761999999999995  0.058380000000000015  0.9510399999999998  1.0000
  H   H55       1.0  0.93762  0.44162000000000007  0.04895999999999999  1.0000
  H   H56       1.0  0.56238  0.55838  0.54896  1.0000
  H   H57       1.0  0.7407  0.16021  0.59124  1.0000
  H   H58       1.0  0.7593  0.8398  0.09124  1.0000
  H   H59       1.0  0.2593  0.66021  0.90876  1.0000
  H   H60       1.0  0.24069999999999997  0.3398000000000001  0.40875999999999996  1.0000
  H   H61       1.0  0.2593  0.8398  0.40875999999999996  1.0000
  H   H62       1.0  0.24069999999999997  0.16021  0.90876  1.0000
  H   H63       1.0  0.7407  0.3398000000000001  0.09124  1.0000
  H   H64       1.0  0.7593  0.66021  0.59124  1.0000
  H   H65       1.0  0.82083  0.19017  0.3812999999999999  1.0000
  H   H66       1.0  0.67917  0.8098300000000003  0.8812999999999998  1.0000
  H   H67       1.0  0.17917  0.69017  0.11869999999999997  1.0000
  H   H68       1.0  0.32083  0.30983000000000005  0.6187  1.0000
  H   H69       1.0  0.17917  0.8098300000000003  0.6187  1.0000
  H   H70       1.0  0.32083  0.19017  0.11869999999999997  1.0000
  H   H71       1.0  0.82083  0.30983000000000005  0.8812999999999998  1.0000
  H   H72       1.0  0.67917  0.69017  0.3812999999999999  1.0000
  H   H73       1.0  0.18115  0.10210000000000001  0.6906099999999998  1.0000
  H   H74       1.0  0.31885  0.8979000000000003  0.19060999999999995  1.0000
  H   H75       1.0  0.8188499999999999  0.6021  0.80939  1.0000
  H   H76       1.0  0.68115  0.3979  0.30939  1.0000
  H   H77       1.0  0.8188499999999999  0.8979000000000003  0.30939  1.0000
  H   H78       1.0  0.68115  0.10210000000000001  0.80939  1.0000
  H   H79       1.0  0.18115  0.3979  0.19060999999999995  1.0000
  H   H80       1.0  0.31885  0.6021  0.6906099999999998  1.0000
  H   H81       1.0  0.84853  0.11251000000000003  0.29667  1.0000
  H   H82       1.0  0.65147  0.8874900000000002  0.79667  1.0000
  H   H83       1.0  0.15147  0.61252  0.20332999999999998  1.0000
  H   H84       1.0  0.34853  0.3874900000000001  0.7033299999999999  1.0000
  H   H85       1.0  0.15147  0.8874900000000002  0.7033299999999999  1.0000
  H   H86       1.0  0.34853  0.11251000000000003  0.20332999999999998  1.0000
  H   H87       1.0  0.84853  0.3874900000000001  0.79667  1.0000
  H   H88       1.0  0.65147  0.61252  0.29667  1.0000
  H   H89       1.0  0.17001  0.18712  0.6134599999999999  1.0000
  H   H90       1.0  0.32999  0.8128800000000003  0.11346  1.0000
  H   H91       1.0  0.8299899999999999  0.6871200000000001  0.8865399999999999  1.0000
  H   H92       1.0  0.67001  0.31288000000000005  0.38654  1.0000
  H   H93       1.0  0.8299899999999999  0.8128800000000003  0.38654  1.0000
  H   H94       1.0  0.67001  0.18712  0.8865399999999999  1.0000
  H   H95       1.0  0.17001  0.31288000000000005  0.11346  1.0000
  H   H96       1.0  0.32999  0.6871200000000001  0.6134599999999999  1.0000
  C   C1        1.0  0.9922699999999999  0.08569  0.4171399999999999  1.0000
  C   C2        1.0  0.50773  0.91431  0.9171399999999997  1.0000
  C   C3        1.0  0.00773  0.58569  0.08286  1.0000
  C   C4        1.0  0.49227  0.41431000000000007  0.58286  1.0000
  C   C5        1.0  0.00773  0.91431  0.58286  1.0000
  C   C6        1.0  0.49227  0.08569  0.08286  1.0000
  C   C7        1.0  0.9922699999999999  0.41431000000000007  0.9171399999999997  1.0000
  C   C8        1.0  0.50773  0.58569  0.4171399999999999  1.0000
  C   C9        1.0  0.75021  0.01009  0.24794  1.0000
  C   C10       1.0  0.74978  0.9899200000000001  0.7479399999999999  1.0000
  C   C11       1.0  0.24977999999999997  0.51009  0.25205999999999995  1.0000
  C   C12       1.0  0.25022  0.48992  0.75206  1.0000
  C   C13       1.0  0.24978999999999998  0.9899200000000001  0.75206  1.0000
  C   C14       1.0  0.25022  0.01009  0.25205999999999995  1.0000
  C   C15       1.0  0.75022  0.48992  0.7479399999999999  1.0000
  C   C16       1.0  0.74978  0.51009  0.24794  1.0000
  C   C17       1.0  0.10082  0.27387  0.43671999999999994  1.0000
  C   C18       1.0  0.39918  0.7261300000000003  0.93672  1.0000
  C   C19       1.0  0.89917  0.7738800000000001  0.06327999999999999  1.0000
  C   C20       1.0  0.60082  0.22613000000000003  0.56328  1.0000
  C   C21       1.0  0.8991799999999999  0.7261300000000003  0.56328  1.0000
  C   C22       1.0  0.60082  0.27387  0.06327999999999999  1.0000
  C   C23       1.0  0.10083  0.22613000000000003  0.93672  1.0000
  C   C24       1.0  0.39918  0.7738800000000001  0.43671999999999994  1.0000
  C   C25       1.0  0.90889  0.9625100000000002  0.20662999999999995  1.0000
  C   C26       1.0  0.59111  0.03749000000000001  0.70663  1.0000
  C   C27       1.0  0.09111  0.46251  0.29337  1.0000
  C   C28       1.0  0.4088899999999999  0.53749  0.7933699999999998  1.0000
  C   C29       1.0  0.09111  0.03749000000000001  0.7933699999999998  1.0000
  C   C30       1.0  0.4088899999999999  0.9625100000000002  0.29337  1.0000
  C   C31       1.0  0.90889  0.53749  0.70663  1.0000
  C   C32       1.0  0.59111  0.46251  0.20662999999999995  1.0000
  C   C33       1.0  0.24686999999999998  0.24175000000000005  0.49818999999999997  1.0000
  C   C34       1.0  0.25313  0.75825  0.9981899999999998  1.0000
  C   C35       1.0  0.75313  0.74175  0.0018099999999999995  1.0000
  C   C36       1.0  0.74687  0.25825  0.50181  1.0000
  C   C37       1.0  0.75313  0.75825  0.50181  1.0000
  C   C38       1.0  0.74687  0.24175000000000005  0.0018099999999999995  1.0000
  C   C39       1.0  0.24686999999999998  0.25825  0.9981899999999998  1.0000
  C   C40       1.0  0.25313  0.74175  0.49818999999999997  1.0000
  C   C41       1.0  0.79301  0.9601100000000001  0.1733  1.0000
  C   C42       1.0  0.70699  0.03989000000000001  0.6732999999999999  1.0000
  C   C43       1.0  0.20698999999999998  0.46011  0.32669999999999993  1.0000
  C   C44       1.0  0.29301  0.5398900000000001  0.8266999999999999  1.0000
  C   C45       1.0  0.20698999999999998  0.03989000000000001  0.8266999999999999  1.0000
  C   C46       1.0  0.29301  0.9601100000000001  0.32669999999999993  1.0000
  C   C47       1.0  0.79301  0.5398900000000001  0.6732999999999999  1.0000
  C   C48       1.0  0.70699  0.46011  0.1733  1.0000
  C   C49       1.0  0.00315  0.08157  0.57712  1.0000
  C   C50       1.0  0.49685  0.9184300000000001  0.07711999999999998  1.0000
  C   C51       1.0  0.99685  0.58157  0.92288  1.0000
  C   C52       1.0  0.50315  0.41843000000000014  0.4228799999999999  1.0000
  C   C53       1.0  0.99685  0.9184300000000001  0.4228799999999999  1.0000
  C   C54       1.0  0.50315  0.08157  0.92288  1.0000
  C   C55       1.0  0.00315  0.41843000000000014  0.07711999999999998  1.0000
  C   C56       1.0  0.49685  0.58157  0.57712  1.0000
  C   C57       1.0  0.71648  0.19479  0.56491  1.0000
  C   C58       1.0  0.7835099999999999  0.8052100000000002  0.06490999999999998  1.0000
  C   C59       1.0  0.28352  0.6947900000000001  0.9350899999999999  1.0000
  C   C60       1.0  0.21647999999999998  0.30521000000000004  0.4350899999999999  1.0000
  C   C61       1.0  0.28352  0.8052100000000002  0.4350899999999999  1.0000
  C   C62       1.0  0.21649  0.19479  0.9350899999999999  1.0000
  C   C63       1.0  0.71648  0.30521000000000004  0.06490999999999998  1.0000
  C   C64       1.0  0.78352  0.6947900000000001  0.56491  1.0000
  C   C65       1.0  0.87326  0.1519  0.3822699999999999  1.0000
  C   C66       1.0  0.62674  0.8481000000000002  0.8822699999999998  1.0000
  C   C67       1.0  0.12673  0.6519000000000001  0.11772999999999997  1.0000
  C   C68       1.0  0.37326  0.3481000000000001  0.61773  1.0000
  C   C69       1.0  0.12674  0.8481000000000002  0.61773  1.0000
  C   C70       1.0  0.37326  0.1519  0.11772999999999997  1.0000
  C   C71       1.0  0.8732700000000001  0.3481000000000001  0.8822699999999998  1.0000
  C   C72       1.0  0.62674  0.6519000000000001  0.3822699999999999  1.0000
  C   C73       1.0  0.12972  0.10550000000000002  0.6496399999999999  1.0000
  C   C74       1.0  0.37028  0.8945000000000001  0.14963999999999997  1.0000
  C   C75       1.0  0.87028  0.6055000000000001  0.85036  1.0000
  C   C76       1.0  0.62972  0.39450000000000013  0.35036  1.0000
  C   C77       1.0  0.87028  0.8945000000000001  0.35036  1.0000
  C   C78       1.0  0.62972  0.10550000000000002  0.85036  1.0000
  C   C79       1.0  0.12972  0.39450000000000013  0.14963999999999997  1.0000
  C   C80       1.0  0.37028  0.6055000000000001  0.6496399999999999  1.0000
  C   C81       1.0  0.8857599999999999  0.11315  0.34041999999999994  1.0000
  C   C82       1.0  0.61424  0.8868600000000001  0.84042  1.0000
  C   C83       1.0  0.11424  0.6131500000000001  0.15958  1.0000
  C   C84       1.0  0.38576  0.38686  0.65958  1.0000
  C   C85       1.0  0.11424  0.8868600000000001  0.65958  1.0000
  C   C86       1.0  0.38576  0.11315  0.15958  1.0000
  C   C87       1.0  0.8857599999999999  0.38686  0.84042  1.0000
  C   C88       1.0  0.61424  0.6131500000000001  0.34041999999999994  1.0000
  C   C89       1.0  0.12492  0.14749  0.6112099999999999  1.0000
  C   C90       1.0  0.37508  0.8525100000000001  0.11120999999999999  1.0000
  C   C91       1.0  0.8750799999999999  0.6474900000000002  0.8887899999999999  1.0000
  C   C92       1.0  0.62492  0.35251  0.38878999999999997  1.0000
  C   C93       1.0  0.8750799999999999  0.8525100000000001  0.38878999999999997  1.0000
  C   C94       1.0  0.62492  0.14749  0.8887899999999999  1.0000
  C   C95       1.0  0.12492  0.35251  0.11120999999999999  1.0000
  C   C96       1.0  0.37508  0.6474900000000002  0.6112099999999999  1.0000
  N   N1        1.0  0.12036999999999999  0.23366  0.47699  1.0000
  N   N2        1.0  0.37963  0.7663400000000002  0.9769899999999998  1.0000
  N   N3        1.0  0.8796299999999999  0.7336600000000001  0.023009999999999992  1.0000
  N   N4        1.0  0.62037  0.26634  0.52301  1.0000
  N   N5        1.0  0.8796299999999999  0.7663400000000002  0.52301  1.0000
  N   N6        1.0  0.62037  0.23366  0.023009999999999992  1.0000
  N   N7        1.0  0.12036999999999999  0.26634  0.9769899999999998  1.0000
  N   N8        1.0  0.37963  0.7336600000000001  0.47699  1.0000
  N   N9        1.0  0.8089  0.21531000000000006  0.52572  1.0000
  N   N10       1.0  0.6911  0.7846900000000001  0.025719999999999996  1.0000
  N   N11       1.0  0.1911  0.7153100000000002  0.97428  1.0000
  N   N12       1.0  0.3089  0.28469  0.47428  1.0000
  N   N13       1.0  0.1911  0.7846900000000001  0.47428  1.0000
  N   N14       1.0  0.3089  0.21531000000000006  0.97428  1.0000
  N   N15       1.0  0.8089  0.28469  0.025719999999999996  1.0000
  N   N16       1.0  0.6911  0.7153100000000002  0.52572  1.0000
  N   N17       1.0  0.88118  0.99434  0.25404  1.0000
  N   N18       1.0  0.61882  0.00566  0.75404  1.0000
  N   N19       1.0  0.11881999999999998  0.4943400000000001  0.24595999999999998  1.0000
  N   N20       1.0  0.38118  0.50566  0.7459599999999998  1.0000
  N   N21       1.0  0.11881999999999998  0.00566  0.7459599999999998  1.0000
  N   N22       1.0  0.38118  0.99434  0.24595999999999998  1.0000
  N   N23       1.0  0.88118  0.50566  0.75404  1.0000
  N   N24       1.0  0.61882  0.4943400000000001  0.25404  1.0000
  N   N25       1.0  0.19258  0.9904400000000002  0.30032  1.0000
  N   N26       1.0  0.30743  0.009570000000000002  0.8003199999999999  1.0000
  N   N27       1.0  0.8074199999999999  0.4904300000000001  0.19967999999999994  1.0000
  N   N28       1.0  0.69258  0.50957  0.69968  1.0000
  N   N29       1.0  0.80743  0.009570000000000002  0.69968  1.0000
  N   N30       1.0  0.69257  0.9904400000000002  0.19967999999999994  1.0000
  N   N31       1.0  0.19258  0.50957  0.8003199999999999  1.0000
  N   N32       1.0  0.30743  0.4904300000000001  0.30032  1.0000
  N   N33       1.0  0.94108  0.13430000000000003  0.43088  1.0000
  N   N34       1.0  0.55892  0.8657000000000002  0.9308799999999999  1.0000
  N   N35       1.0  0.05892  0.6343000000000001  0.06911999999999999  1.0000
  N   N36       1.0  0.44108  0.3657  0.5691199999999998  1.0000
  N   N37       1.0  0.05892  0.8657000000000002  0.5691199999999998  1.0000
  N   N38       1.0  0.44108  0.13430000000000003  0.06911999999999999  1.0000
  N   N39       1.0  0.94108  0.3657  0.9308799999999999  1.0000
  N   N40       1.0  0.55892  0.6343000000000001  0.43088  1.0000
  N   N41       1.0  0.9610599999999999  0.07099000000000001  0.3629  1.0000
  N   N42       1.0  0.53894  0.9290100000000002  0.8629  1.0000
  N   N43       1.0  0.03894  0.57099  0.1371  1.0000
  N   N44       1.0  0.46105999999999997  0.4290100000000001  0.6370999999999999  1.0000
  N   N45       1.0  0.03894  0.9290100000000002  0.6370999999999999  1.0000
  N   N46       1.0  0.46105999999999997  0.07099000000000001  0.1371  1.0000
  N   N47       1.0  0.9610599999999999  0.4290100000000001  0.8629  1.0000
  N   N48       1.0  0.53894  0.57099  0.3629  1.0000
  N   N49       1.0  0.04471  0.13213  0.56514  1.0000
  N   N50       1.0  0.45529  0.8678700000000001  0.06514  1.0000
  N   N51       1.0  0.95529  0.6321300000000001  0.9348599999999999  1.0000
  N   N52       1.0  0.54471  0.36787  0.4348599999999999  1.0000
  N   N53       1.0  0.95529  0.8678700000000001  0.4348599999999999  1.0000
  N   N54       1.0  0.54471  0.13213  0.9348599999999999  1.0000
  N   N55       1.0  0.04471  0.36787  0.06514  1.0000
  N   N56       1.0  0.45529  0.6321300000000001  0.56514  1.0000
  N   N57       1.0  0.05205  0.06374000000000002  0.6278399999999998  1.0000
  N   N58       1.0  0.44795  0.9362600000000002  0.12784  1.0000
  N   N59       1.0  0.9479500000000001  0.56374  0.8721599999999999  1.0000
  N   N60       1.0  0.55205  0.4362600000000001  0.37216  1.0000
  N   N61       1.0  0.9479500000000001  0.9362600000000002  0.37216  1.0000
  N   N62       1.0  0.55205  0.06374000000000002  0.8721599999999999  1.0000
  N   N63       1.0  0.05205  0.4362600000000001  0.12784  1.0000
  N   N64       1.0  0.44795  0.56374  0.6278399999999998  1.0000
