data_image0
_chemical_formula_structural       Zn32H192C192N128
_chemical_formula_sum              "Zn32 H192 C192 N128"
_cell_length_a       27.25262
_cell_length_b       27.26306
_cell_length_c       19.465729999999997
_cell_angle_alpha    89.90041999999998
_cell_angle_beta     90.23865000000002
_cell_angle_gamma    89.99953

_symmetry_space_group_name_H-M    'P 1'
_symmetry_Int_Tables_number       1

loop_
  _symmetry_equiv_pos_as_xyz
  'x,y,z'

loop_
  _atom_site_type_symbol
  _atom_site_label
  _atom_site_symmetry_multiplicity
  _atom_site_fract_x
  _atom_site_fract_y
  _atom_site_fract_z
  _atom_site_occupancy
  Zn  Zn1       1.0  0.26775  0.11080999999999999  0.1547  1.0000
  Zn  Zn2       1.0  0.88945  0.26796  0.15475999999999998  1.0000
  Zn  Zn3       1.0  0.73221  0.8890899999999998  0.15693  1.0000
  Zn  Zn4       1.0  0.11085  0.7318799999999999  0.15451  1.0000
  Zn  Zn5       1.0  0.26816  0.88889  0.8453399999999998  1.0000
  Zn  Zn6       1.0  0.1106  0.2676  0.8451299999999999  1.0000
  Zn  Zn7       1.0  0.73188  0.11057999999999997  0.8453299999999998  1.0000
  Zn  Zn8       1.0  0.88897  0.7319099999999997  0.8453899999999999  1.0000
  Zn  Zn9       1.0  0.7320600000000003  0.88905  0.84565  1.0000
  Zn  Zn10      1.0  0.11071  0.73186  0.84525  1.0000
  Zn  Zn11      1.0  0.26821  0.11078  0.84519  1.0000
  Zn  Zn12      1.0  0.88942  0.26788  0.8448599999999998  1.0000
  Zn  Zn13      1.0  0.73197  0.11064  0.15481  1.0000
  Zn  Zn14      1.0  0.88909  0.7321  0.15468999999999997  1.0000
  Zn  Zn15      1.0  0.2678  0.88913  0.15502  1.0000
  Zn  Zn16      1.0  0.11066000000000002  0.26779  0.15525  1.0000
  Zn  Zn17      1.0  0.76786  0.61077  0.65498  1.0000
  Zn  Zn18      1.0  0.3888900000000001  0.76804  0.65467  1.0000
  Zn  Zn19      1.0  0.23219000000000006  0.38915  0.6547099999999999  1.0000
  Zn  Zn20      1.0  0.6108  0.23203  0.6548499999999999  1.0000
  Zn  Zn21      1.0  0.76791  0.38931  0.3451199999999999  1.0000
  Zn  Zn22      1.0  0.6108  0.76783  0.3455899999999999  1.0000
  Zn  Zn23      1.0  0.23209000000000002  0.61101  0.34526999999999997  1.0000
  Zn  Zn24      1.0  0.38924  0.23224  0.34541999999999995  1.0000
  Zn  Zn25      1.0  0.23219000000000006  0.3893599999999999  0.34521  1.0000
  Zn  Zn26      1.0  0.61085  0.23217  0.34534999999999993  1.0000
  Zn  Zn27      1.0  0.76797  0.61075  0.3452899999999999  1.0000
  Zn  Zn28      1.0  0.38914000000000004  0.76774  0.34548999999999996  1.0000
  Zn  Zn29      1.0  0.23214  0.61115  0.65479  1.0000
  Zn  Zn30      1.0  0.38921  0.23201999999999995  0.65497  1.0000
  Zn  Zn31      1.0  0.76775  0.38955  0.6548  1.0000
  Zn  Zn32      1.0  0.6109700000000002  0.76822  0.6545  1.0000
  H   H1        1.0  0.37443  0.06787  0.20816999999999997  1.0000
  H   H2        1.0  0.29983  0.19964  0.25043  1.0000
  H   H3        1.0  0.19285000000000002  0.19299  0.09386  1.0000
  H   H4        1.0  0.21073  0.13809  0.29488  1.0000
  H   H5        1.0  0.18816  0.05108999999999999  0.24016999999999997  1.0000
  H   H6        1.0  0.33687  0.18508  0.07183  1.0000
  H   H7        1.0  0.29751  0.9998299999999999  0.10589999999999997  1.0000
  H   H8        1.0  0.24095  0.07536999999999999  0.9992899999999999  1.0000
  H   H9        1.0  0.9321700000000003  0.37435  0.2075  1.0000
  H   H10       1.0  0.79982  0.30046  0.24915999999999994  1.0000
  H   H11       1.0  0.80682  0.19278999999999993  0.09219  1.0000
  H   H12       1.0  0.86179  0.21068  0.2932399999999999  1.0000
  H   H13       1.0  0.9491000000000002  0.18832999999999997  0.24388  1.0000
  H   H14       1.0  0.84383  0.35800999999999994  0.07076  1.0000
  H   H15       1.0  0.00023000000000000006  0.29642  0.10687  1.0000
  H   H16       1.0  0.91118  0.22865999999999997  8.999999999999998e-05  1.0000
  H   H17       1.0  0.6257  0.9324999999999999  0.20877  1.0000
  H   H18       1.0  0.69837  0.79906  0.24926  1.0000
  H   H19       1.0  0.80496  0.80639  0.09490999999999998  1.0000
  H   H20       1.0  0.79306  0.86253  0.29575  1.0000
  H   H21       1.0  0.81168  0.9491999999999999  0.24339999999999998  1.0000
  H   H22       1.0  0.66375  0.81506  0.07253999999999998  1.0000
  H   H23       1.0  0.7028800000000002  0.9998  0.10616  1.0000
  H   H24       1.0  0.75984  0.9247299999999998  0.00122  1.0000
  H   H25       1.0  0.06717  0.62499  0.20780999999999997  1.0000
  H   H26       1.0  0.19941  0.69933  0.25009  1.0000
  H   H27       1.0  0.19557  0.80533  0.09432999999999998  1.0000
  H   H28       1.0  0.13395  0.79277  0.29175999999999996  1.0000
  H   H29       1.0  0.051220000000000016  0.83015  0.18591  1.0000
  H   H30       1.0  0.16089  0.6429999999999999  0.07186  1.0000
  H   H31       1.0  0.99994  0.68814  0.14065999999999995  1.0000
  H   H32       1.0  0.09137  0.7711599999999997  0.99955  1.0000
  H   H33       1.0  0.37464  0.9320299999999998  0.79286  1.0000
  H   H34       1.0  0.3006000000000001  0.79975  0.7504999999999998  1.0000
  H   H35       1.0  0.19623  0.8037  0.90693  1.0000
  H   H36       1.0  0.20405  0.8678099999999997  0.71015  1.0000
  H   H37       1.0  0.16985  0.94892  0.81626  1.0000
  H   H38       1.0  0.33723  0.81482  0.92967  1.0000
  H   H39       1.0  0.31263  0.9997499999999999  0.8587399999999997  1.0000
  H   H40       1.0  0.24069  0.92442  0.99961  1.0000
  H   H41       1.0  0.06815  0.37419999999999987  0.7922999999999999  1.0000
  H   H42       1.0  0.20028000000000007  0.29993999999999993  0.75093  1.0000
  H   H43       1.0  0.19457000000000002  0.19378  0.9071999999999999  1.0000
  H   H44       1.0  0.13603  0.208  0.70737  1.0000
  H   H45       1.0  0.05082  0.18821  0.75601  1.0000
  H   H46       1.0  0.15619000000000002  0.3575499999999999  0.9285499999999999  1.0000
  H   H47       1.0  0.9998700000000001  0.29585  0.8933  1.0000
  H   H48       1.0  0.08941  0.22796  4e-05  1.0000
  H   H49       1.0  0.62512  0.06735  0.79227  1.0000
  H   H50       1.0  0.69932  0.19964  0.7504799999999999  1.0000
  H   H51       1.0  0.80544  0.19540999999999997  0.9071199999999999  1.0000
  H   H52       1.0  0.7927  0.13381  0.7094499999999999  1.0000
  H   H53       1.0  0.83027  0.05093999999999999  0.81377  1.0000
  H   H54       1.0  0.64222  0.15839  0.9278399999999999  1.0000
  H   H55       1.0  0.68797  0.99985  0.8573199999999999  1.0000
  H   H56       1.0  0.7708500000000001  0.08983  0.00023  1.0000
  H   H57       1.0  0.93276  0.62529  0.79256  1.0000
  H   H58       1.0  0.80059  0.6995  0.74908  1.0000
  H   H59       1.0  0.80395  0.80328  0.90609  1.0000
  H   H60       1.0  0.8668800000000002  0.79577  0.7089999999999999  1.0000
  H   H61       1.0  0.94846  0.83025  0.81435  1.0000
  H   H62       1.0  0.8129  0.66406  0.9283799999999998  1.0000
  H   H63       1.0  0.9999600000000001  0.68812  0.8588999999999999  1.0000
  H   H64       1.0  0.92441  0.75823  8e-05  1.0000
  H   H65       1.0  0.6250000000000002  0.93207  0.79302  1.0000
  H   H66       1.0  0.69946  0.80017  0.7506499999999999  1.0000
  H   H67       1.0  0.79507  0.8680999999999998  0.70969  1.0000
  H   H68       1.0  0.83035  0.9488  0.81455  1.0000
  H   H69       1.0  0.66345  0.81519  0.9295999999999998  1.0000
  H   H70       1.0  0.06819  0.62476  0.79285  1.0000
  H   H71       1.0  0.19880000000000003  0.70087  0.74811  1.0000
  H   H72       1.0  0.13131  0.79638  0.71031  1.0000
  H   H73       1.0  0.05063  0.83039  0.8139  1.0000
  H   H74       1.0  0.16064  0.64293  0.92862  1.0000
  H   H75       1.0  0.37466  0.06738  0.79255  1.0000
  H   H76       1.0  0.30059  0.1997  0.7496999999999999  1.0000
  H   H77       1.0  0.20720000000000005  0.13517  0.7079299999999998  1.0000
  H   H78       1.0  0.16998  0.05107  0.8163299999999998  1.0000
  H   H79       1.0  0.33732  0.18501  0.9288399999999998  1.0000
  H   H80       1.0  0.93295  0.37406  0.7913899999999999  1.0000
  H   H81       1.0  0.79944  0.30145  0.75186  1.0000
  H   H82       1.0  0.8629200000000002  0.20751999999999998  0.7071499999999998  1.0000
  H   H83       1.0  0.94904  0.18877  0.7544899999999999  1.0000
  H   H84       1.0  0.84372  0.3579599999999999  0.9277099999999999  1.0000
  H   H85       1.0  0.62589  0.06772  0.20828  1.0000
  H   H86       1.0  0.7000700000000002  0.19997999999999996  0.25005  1.0000
  H   H87       1.0  0.7902000000000002  0.13836  0.29345999999999994  1.0000
  H   H88       1.0  0.8117700000000001  0.051  0.24247  1.0000
  H   H89       1.0  0.64232  0.15881  0.07097999999999999  1.0000
  H   H90       1.0  0.9318  0.62469  0.20664999999999994  1.0000
  H   H91       1.0  0.8015  0.70081  0.25262  1.0000
  H   H92       1.0  0.86646  0.79193  0.2929  1.0000
  H   H93       1.0  0.9490500000000001  0.83041  0.18454  1.0000
  H   H94       1.0  0.8130800000000001  0.66415  0.07146  1.0000
  H   H95       1.0  0.37427  0.93257  0.20884999999999998  1.0000
  H   H96       1.0  0.30118  0.7993699999999998  0.24861999999999995  1.0000
  H   H97       1.0  0.20705000000000007  0.86364  0.29409  1.0000
  H   H98       1.0  0.18821000000000002  0.94932  0.24113  1.0000
  H   H99       1.0  0.33675  0.8149399999999998  0.07271  1.0000
  H   H100      1.0  0.06721  0.37405  0.20822999999999997  1.0000
  H   H101      1.0  0.20095000000000002  0.30171  0.24777999999999997  1.0000
  H   H102      1.0  0.13934  0.21068  0.29512  1.0000
  H   H103      1.0  0.05096  0.18851  0.24505  1.0000
  H   H104      1.0  0.15619000000000002  0.35762  0.07163  1.0000
  H   H105      1.0  0.87524  0.56764  0.70737  1.0000
  H   H106      1.0  0.6963600000000001  0.69725  0.59404  1.0000
  H   H107      1.0  0.7043800000000002  0.6318  0.79013  1.0000
  H   H108      1.0  0.66918  0.5514  0.6883899999999998  1.0000
  H   H109      1.0  0.85723  0.65842  0.57228  1.0000
  H   H110      1.0  0.81116  0.50017  0.64379  1.0000
  H   H111      1.0  0.72837  0.59025  0.5000499999999999  1.0000
  H   H112      1.0  0.43201  0.8749  0.70751  1.0000
  H   H113      1.0  0.30554  0.69427  0.5946299999999998  1.0000
  H   H114      1.0  0.36550000000000005  0.70739  0.79365  1.0000
  H   H115      1.0  0.44886  0.6703699999999999  0.68418  1.0000
  H   H116      1.0  0.31296  0.83599  0.57083  1.0000
  H   H117      1.0  0.49993  0.81281  0.64112  1.0000
  H   H118      1.0  0.42406  0.7413099999999999  0.5005099999999999  1.0000
  H   H119      1.0  0.126  0.43195  0.7074799999999998  1.0000
  H   H120      1.0  0.30516000000000004  0.30587  0.59366  1.0000
  H   H121      1.0  0.2932  0.36393  0.79331  1.0000
  H   H122      1.0  0.31157  0.44921999999999995  0.74085  1.0000
  H   H123      1.0  0.16318  0.31494  0.57133  1.0000
  H   H124      1.0  0.20199  0.5002  0.60517  1.0000
  H   H125      1.0  0.25937  0.42458999999999997  0.49981999999999993  1.0000
  H   H126      1.0  0.56748  0.12508  0.7070199999999998  1.0000
  H   H127      1.0  0.6961700000000001  0.3032  0.59361  1.0000
  H   H128      1.0  0.6327000000000002  0.29578999999999994  0.7903599999999997  1.0000
  H   H129      1.0  0.55114  0.33028  0.68606  1.0000
  H   H130      1.0  0.68482  0.16288999999999998  0.5721499999999999  1.0000
  H   H131      1.0  0.50003  0.1877  0.6441199999999998  1.0000
  H   H132      1.0  0.57498  0.25902  0.50028  1.0000
  H   H133      1.0  0.87452  0.43218  0.29221  1.0000
  H   H134      1.0  0.6928  0.30727  0.40674  1.0000
  H   H135      1.0  0.7105200000000003  0.36118  0.20530999999999994  1.0000
  H   H136      1.0  0.68898  0.44932  0.25545  1.0000
  H   H137      1.0  0.8572  0.34130999999999995  0.42931  1.0000
  H   H138      1.0  0.7967000000000002  0.4999699999999999  0.3940099999999999  1.0000
  H   H139      1.0  0.72842  0.41003  0.49987  1.0000
  H   H140      1.0  0.56763  0.87491  0.29322  1.0000
  H   H141      1.0  0.6949100000000001  0.69446  0.40682  1.0000
  H   H142      1.0  0.6340900000000003  0.70722  0.20825999999999995  1.0000
  H   H143      1.0  0.55116  0.6692399999999998  0.31705  1.0000
  H   H144      1.0  0.68685  0.8360399999999998  0.42859  1.0000
  H   H145      1.0  0.4999100000000001  0.81136  0.361  1.0000
  H   H146      1.0  0.57554  0.7419699999999998  0.5000699999999999  1.0000
  H   H147      1.0  0.12493000000000001  0.56752  0.29321  1.0000
  H   H148      1.0  0.30396  0.6959499999999998  0.4057899999999999  1.0000
  H   H149      1.0  0.29533  0.63259  0.20877999999999997  1.0000
  H   H150      1.0  0.33043  0.55144  0.31617  1.0000
  H   H151      1.0  0.16278  0.68514  0.4280599999999999  1.0000
  H   H152      1.0  0.18807  0.50018  0.35883  1.0000
  H   H153      1.0  0.25978  0.57611  0.50002  1.0000
  H   H154      1.0  0.43247000000000013  0.12602  0.29261999999999994  1.0000
  H   H155      1.0  0.30578  0.30592  0.40687  1.0000
  H   H156      1.0  0.36365  0.29259  0.20735  1.0000
  H   H157      1.0  0.44927  0.31190999999999997  0.25778  1.0000
  H   H158      1.0  0.34138000000000013  0.14271  0.42856999999999995  1.0000
  H   H159      1.0  0.49978  0.20366  0.39553999999999995  1.0000
  H   H160      1.0  0.40933  0.27173  0.50048  1.0000
  H   H161      1.0  0.1247  0.43201  0.29345  1.0000
  H   H162      1.0  0.2929  0.36583  0.20793  1.0000
  H   H163      1.0  0.33065  0.44928  0.3169099999999999  1.0000
  H   H164      1.0  0.16289000000000006  0.3152  0.4282899999999999  1.0000
  H   H165      1.0  0.56816  0.12569  0.2927  1.0000
  H   H166      1.0  0.6385899999999999  0.28916  0.2054  1.0000
  H   H167      1.0  0.55109  0.31131  0.25796  1.0000
  H   H168      1.0  0.68498  0.16329  0.42915  1.0000
  H   H169      1.0  0.87415  0.5673  0.29191999999999996  1.0000
  H   H170      1.0  0.70781  0.63693  0.20687999999999998  1.0000
  H   H171      1.0  0.6890400000000002  0.55108  0.25544  1.0000
  H   H172      1.0  0.8570800000000002  0.6589399999999999  0.42911  1.0000
  H   H173      1.0  0.43226  0.87477  0.29374  1.0000
  H   H174      1.0  0.36802  0.70405  0.20942999999999998  1.0000
  H   H175      1.0  0.44897  0.66902  0.31702  1.0000
  H   H176      1.0  0.3131300000000001  0.8358499999999999  0.42776999999999993  1.0000
  H   H177      1.0  0.12599  0.56771  0.70766  1.0000
  H   H178      1.0  0.29218  0.63671  0.79473  1.0000
  H   H179      1.0  0.31128  0.55098  0.74123  1.0000
  H   H180      1.0  0.16318  0.68534  0.5710799999999999  1.0000
  H   H181      1.0  0.43219  0.12477  0.70743  1.0000
  H   H182      1.0  0.36611  0.29284999999999994  0.79223  1.0000
  H   H183      1.0  0.44892000000000004  0.33008  0.6865499999999999  1.0000
  H   H184      1.0  0.34174  0.14251  0.5717299999999997  1.0000
  H   H185      1.0  0.8753400000000002  0.43209  0.70612  1.0000
  H   H186      1.0  0.70413  0.3684699999999999  0.78949  1.0000
  H   H187      1.0  0.6688700000000002  0.44925999999999994  0.68768  1.0000
  H   H188      1.0  0.8572899999999999  0.342  0.5725  1.0000
  H   H189      1.0  0.5675  0.8747299999999999  0.70741  1.0000
  H   H190      1.0  0.63214  0.7037199999999999  0.7903099999999998  1.0000
  H   H191      1.0  0.55108  0.67026  0.68389  1.0000
  H   H192      1.0  0.68701  0.8362199999999999  0.57165  1.0000
  C   C1        1.0  0.36755  0.1039  0.2293  1.0000
  C   C2        1.0  0.32811  0.1717  0.25026999999999994  1.0000
  C   C3        1.0  0.18763  0.18763  0.14853  1.0000
  C   C4        1.0  0.19608  0.15991  0.253  1.0000
  C   C5        1.0  0.21111  0.025339999999999994  0.21278999999999998  1.0000
  C   C6        1.0  0.31686  0.16255  0.03554999999999999  1.0000
  C   C7        1.0  0.26795  0.9999099999999999  0.14295  1.0000
  C   C8        1.0  0.26701  0.10539  0.9996399999999999  1.0000
  C   C9        1.0  0.8961200000000001  0.36757  0.22862  1.0000
  C   C10       1.0  0.82808  0.32842  0.24947  1.0000
  C   C11       1.0  0.81241  0.18747999999999998  0.14685  1.0000
  C   C12       1.0  0.8401800000000003  0.19588999999999998  0.25131  1.0000
  C   C13       1.0  0.97481  0.21114999999999995  0.21612999999999996  1.0000
  C   C14       1.0  0.85742  0.33111  0.03469  1.0000
  C   C15       1.0  0.00014999999999999993  0.26736  0.14491  1.0000
  C   C16       1.0  0.89242  0.2637  0.9997999999999999  1.0000
  C   C17       1.0  0.6322100000000002  0.89622  0.22957999999999998  1.0000
  C   C18       1.0  0.67068  0.82759  0.24964  1.0000
  C   C19       1.0  0.8119600000000001  0.81231  0.14913  1.0000
  C   C20       1.0  0.8066600000000003  0.8407299999999998  0.25346  1.0000
  C   C21       1.0  0.78879  0.97479  0.21525  1.0000
  C   C22       1.0  0.68381  0.8376199999999998  0.03648  1.0000
  C   C23       1.0  0.73219  0.9998599999999999  0.14396999999999996  1.0000
  C   C24       1.0  0.73375  0.89474  0.0011099999999999999  1.0000
  C   C25       1.0  0.10324  0.632  0.22905999999999999  1.0000
  C   C26       1.0  0.17124  0.67127  0.25014  1.0000
  C   C27       1.0  0.18843  0.81181  0.14829  1.0000
  C   C28       1.0  0.15742  0.80605  0.2510299999999999  1.0000
  C   C29       1.0  0.02535  0.80076  0.17658  1.0000
  C   C30       1.0  0.14694  0.6697099999999999  0.0355  1.0000
  C   C31       1.0  9.999999999999989e-06  0.72681  0.15336  1.0000
  C   C32       1.0  0.11089  0.7365199999999997  0.99977  1.0000
  C   C33       1.0  0.36763  0.89609  0.77146  1.0000
  C   C34       1.0  0.32851000000000014  0.82806  0.7503499999999999  1.0000
  C   C35       1.0  0.18826  0.8116  0.85342  1.0000
  C   C36       1.0  0.19145000000000004  0.84403  0.75104  1.0000
  C   C37       1.0  0.19944  0.9746799999999998  0.82489  1.0000
  C   C38       1.0  0.31698000000000004  0.83731  0.9655299999999999  1.0000
  C   C39       1.0  0.27379  0.99982  0.8466999999999999  1.0000
  C   C40       1.0  0.26682  0.8944599999999999  0.9999799999999999  1.0000
  C   C41       1.0  0.10419000000000003  0.3673499999999999  0.77123  1.0000
  C   C42       1.0  0.17212  0.32801  0.7504899999999999  1.0000
  C   C43       1.0  0.18796  0.18751  0.8529699999999999  1.0000
  C   C44       1.0  0.15836000000000003  0.19399  0.7491499999999998  1.0000
  C   C45       1.0  0.025170000000000005  0.21102  0.78376  1.0000
  C   C46       1.0  0.14271  0.33062  0.9647899999999998  1.0000
  C   C47       1.0  0.99992  0.26698  0.8551299999999998  1.0000
  C   C48       1.0  0.10801  0.26308  0.00011999999999999999  1.0000
  C   C49       1.0  0.63209  0.10341  0.77108  1.0000
  C   C50       1.0  0.67131  0.17143  0.7502199999999998  1.0000
  C   C51       1.0  0.8118000000000001  0.18836999999999995  0.8530999999999999  1.0000
  C   C52       1.0  0.80596  0.15737  0.75024  1.0000
  C   C53       1.0  0.80079  0.02511  0.82262  1.0000
  C   C54       1.0  0.6690600000000002  0.14477  0.96429  1.0000
  C   C55       1.0  0.7267  0.9998599999999999  0.845  1.0000
  C   C56       1.0  0.73609  0.10911  2.9999999999999997e-05  1.0000
  C   C57       1.0  0.89674  0.63226  0.7710699999999999  1.0000
  C   C58       1.0  0.82873  0.67141  0.74952  1.0000
  C   C59       1.0  0.81146  0.81128  0.8525799999999998  1.0000
  C   C60       1.0  0.84331  0.8082  0.7500699999999998  1.0000
  C   C61       1.0  0.9743800000000001  0.8008199999999998  0.82327  1.0000
  C   C62       1.0  0.83577  0.68381  0.9645599999999999  1.0000
  C   C63       1.0  0.99986  0.7268  0.84611  1.0000
  C   C64       1.0  0.89384  0.7327999999999999  2e-05  1.0000
  C   C65       1.0  0.63204  0.89614  0.77165  1.0000
  C   C66       1.0  0.67136  0.8282899999999999  0.75058  1.0000
  C   C67       1.0  0.80769  0.84403  0.75039  1.0000
  C   C68       1.0  0.8008200000000002  0.9745999999999998  0.82301  1.0000
  C   C69       1.0  0.68368  0.83763  0.96576  1.0000
  C   C70       1.0  0.10388000000000003  0.63222  0.77105  1.0000
  C   C71       1.0  0.17103  0.6724299999999998  0.7486699999999998  1.0000
  C   C72       1.0  0.15544  0.8086  0.7511499999999998  1.0000
  C   C73       1.0  0.0249  0.8008699999999999  0.8229799999999999  1.0000
  C   C74       1.0  0.14683  0.6696599999999998  0.96476  1.0000
  C   C75       1.0  0.36768  0.10338  0.7711299999999998  1.0000
  C   C76       1.0  0.32859  0.17146  0.7498799999999999  1.0000
  C   C77       1.0  0.19377000000000005  0.15796  0.7492899999999998  1.0000
  C   C78       1.0  0.19949000000000003  0.02518  0.82493  1.0000
  C   C79       1.0  0.31711  0.16255  0.9648399999999999  1.0000
  C   C80       1.0  0.89662  0.36763  0.77061  1.0000
  C   C81       1.0  0.82791  0.32919  0.7509399999999999  1.0000
  C   C82       1.0  0.84097  0.19378999999999996  0.7492599999999999  1.0000
  C   C83       1.0  0.97466  0.21125  0.7831199999999998  1.0000
  C   C84       1.0  0.8574  0.33106  0.9639799999999998  1.0000
  C   C85       1.0  0.6327300000000001  0.10381999999999997  0.2293  1.0000
  C   C86       1.0  0.67202  0.17181  0.25021  1.0000
  C   C87       1.0  0.8046  0.16001  0.25143  1.0000
  C   C88       1.0  0.78885  0.02526  0.21477999999999997  1.0000
  C   C89       1.0  0.66908  0.14483  0.03500999999999999  1.0000
  C   C90       1.0  0.89619  0.63211  0.22872  1.0000
  C   C91       1.0  0.82915  0.67227  0.25158  1.0000
  C   C92       1.0  0.8429700000000001  0.8056  0.25216  1.0000
  C   C93       1.0  0.97483  0.80089  0.17593  1.0000
  C   C94       1.0  0.8358200000000001  0.68387  0.03527999999999999  1.0000
  C   C95       1.0  0.36765  0.8963  0.22953999999999997  1.0000
  C   C96       1.0  0.32898  0.8278  0.24926  1.0000
  C   C97       1.0  0.19357  0.84137  0.25205  1.0000
  C   C98       1.0  0.21114  0.9748599999999998  0.21322999999999998  1.0000
  C   C99       1.0  0.31674  0.83739  0.036239999999999994  1.0000
  C   C100      1.0  0.10357000000000001  0.36766  0.22896999999999998  1.0000
  C   C101      1.0  0.17236  0.32933  0.24868  1.0000
  C   C102      1.0  0.16065  0.19596  0.25309  1.0000
  C   C103      1.0  0.02533  0.21122  0.21667  1.0000
  C   C104      1.0  0.14269  0.33062999999999987  0.035489999999999994  1.0000
  C   C105      1.0  0.8681600000000003  0.60359  0.7286  1.0000
  C   C106      1.0  0.6885500000000002  0.68895  0.6473699999999998  1.0000
  C   C107      1.0  0.69189  0.65589  0.74937  1.0000
  C   C108      1.0  0.69855  0.52553  0.6792999999999999  1.0000
  C   C109      1.0  0.8303600000000001  0.64488  0.53586  1.0000
  C   C110      1.0  0.77248  0.50019  0.65637  1.0000
  C   C111      1.0  0.76322  0.60938  0.5002099999999999  1.0000
  C   C112      1.0  0.39617  0.86768  0.7289599999999999  1.0000
  C   C113      1.0  0.31217  0.6878899999999998  0.64886  1.0000
  C   C114      1.0  0.34237  0.69399  0.75239  1.0000
  C   C115      1.0  0.47472  0.69984  0.67544  1.0000
  C   C116      1.0  0.3357  0.8161  0.53493  1.0000
  C   C117      1.0  0.4999500000000001  0.77402  0.65326  1.0000
  C   C118      1.0  0.39359  0.76687  0.5001899999999999  1.0000
  C   C119      1.0  0.13282  0.39592999999999995  0.7289  1.0000
  C   C120      1.0  0.31213  0.31225  0.64777  1.0000
  C   C121      1.0  0.30682  0.34165  0.75153  1.0000
  C   C122      1.0  0.28849  0.47488  0.7131299999999999  1.0000
  C   C123      1.0  0.18323  0.33751  0.53526  1.0000
  C   C124      1.0  0.23152  0.50018  0.64262  1.0000
  C   C125      1.0  0.23324  0.39463  0.49987  1.0000
  C   C126      1.0  0.60343  0.13209  0.72862  1.0000
  C   C127      1.0  0.68846  0.31133  0.64698  1.0000
  C   C128      1.0  0.65631  0.30831  0.74932  1.0000
  C   C129      1.0  0.52532  0.30072999999999994  0.67757  1.0000
  C   C130      1.0  0.66234  0.18304999999999993  0.5358499999999999  1.0000
  C   C131      1.0  0.50004  0.22649  0.65606  1.0000
  C   C132      1.0  0.60506  0.23301  0.5003  1.0000
  C   C133      1.0  0.86761  0.39617  0.27095  1.0000
  C   C134      1.0  0.68752  0.31253  0.352  1.0000
  C   C135      1.0  0.6958700000000001  0.3397299999999999  0.24736999999999998  1.0000
  C   C136      1.0  0.71165  0.47492  0.28381  1.0000
  C   C137      1.0  0.8304  0.3553  0.46519999999999995  1.0000
  C   C138      1.0  0.7676800000000003  0.50004  0.35578  1.0000
  C   C139      1.0  0.76328  0.3908999999999999  0.5000499999999999  1.0000
  C   C140      1.0  0.60339  0.8676199999999998  0.2716  1.0000
  C   C141      1.0  0.6881400000000002  0.68801  0.3526699999999999  1.0000
  C   C142      1.0  0.65749  0.69391  0.24933999999999998  1.0000
  C   C143      1.0  0.52528  0.69864  0.32593  1.0000
  C   C144      1.0  0.6641  0.8163299999999999  0.46477  1.0000
  C   C145      1.0  0.4999500000000001  0.77265  0.34855  1.0000
  C   C146      1.0  0.6061  0.76741  0.50009  1.0000
  C   C147      1.0  0.13194  0.60343  0.27162  1.0000
  C   C148      1.0  0.31169  0.68824  0.3523  1.0000
  C   C149      1.0  0.30806  0.6561699999999999  0.24984  1.0000
  C   C150      1.0  0.30099  0.52556  0.32497  1.0000
  C   C151      1.0  0.18314  0.6628399999999998  0.46437  1.0000
  C   C152      1.0  0.22686000000000006  0.50022  0.34692  1.0000
  C   C153      1.0  0.23353000000000002  0.60597  0.49992  1.0000
  C   C154      1.0  0.3962900000000001  0.13266  0.27146  1.0000
  C   C155      1.0  0.31224000000000013  0.31249  0.35272999999999993  1.0000
  C   C156      1.0  0.3415  0.30647  0.24907  1.0000
  C   C157      1.0  0.47486  0.28899  0.28589  1.0000
  C   C158      1.0  0.35514000000000007  0.16954  0.46477999999999997  1.0000
  C   C159      1.0  0.4999100000000001  0.23268  0.35744  1.0000
  C   C160      1.0  0.3903400000000001  0.23679999999999995  0.50035  1.0000
  C   C161      1.0  0.13213  0.3963799999999999  0.2713999999999999  1.0000
  C   C162      1.0  0.3063  0.3427199999999999  0.24922999999999995  1.0000
  C   C163      1.0  0.30109000000000014  0.47507  0.32529999999999987  1.0000
  C   C164      1.0  0.18311  0.33756  0.46454  1.0000
  C   C165      1.0  0.6041500000000001  0.13249  0.27145  1.0000
  C   C166      1.0  0.66014  0.30399  0.24735999999999997  1.0000
  C   C167      1.0  0.52535  0.28874  0.28605  1.0000
  C   C168      1.0  0.66236  0.18325  0.46513999999999994  1.0000
  C   C169      1.0  0.86763  0.6036  0.27122999999999997  1.0000
  C   C170      1.0  0.6939300000000002  0.6589099999999999  0.2488  1.0000
  C   C171      1.0  0.71168  0.5254  0.2838  1.0000
  C   C172      1.0  0.8303300000000002  0.64496  0.46513999999999994  1.0000
  C   C173      1.0  0.39643  0.86761  0.27184  1.0000
  C   C174      1.0  0.34404  0.6916299999999999  0.25012  1.0000
  C   C175      1.0  0.47476  0.69854  0.32594  1.0000
  C   C176      1.0  0.33580000000000004  0.81606  0.46420999999999996  1.0000
  C   C177      1.0  0.13253  0.60388  0.72858  1.0000
  C   C178      1.0  0.30613  0.65877  0.7528299999999998  1.0000
  C   C179      1.0  0.28836  0.52535  0.71333  1.0000
  C   C180      1.0  0.18332  0.66288  0.53508  1.0000
  C   C181      1.0  0.3962900000000001  0.13191  0.72874  1.0000
  C   C182      1.0  0.34286  0.30624  0.75104  1.0000
  C   C183      1.0  0.4748  0.30063  0.67799  1.0000
  C   C184      1.0  0.35514000000000007  0.16948  0.5355  1.0000
  C   C185      1.0  0.8680000000000002  0.39637  0.72814  1.0000
  C   C186      1.0  0.69176  0.34429999999999994  0.74888  1.0000
  C   C187      1.0  0.69841  0.47502  0.6788699999999999  1.0000
  C   C188      1.0  0.83043  0.3554699999999999  0.53593  1.0000
  C   C189      1.0  0.60345  0.8676499999999998  0.7289999999999998  1.0000
  C   C190      1.0  0.65607  0.6915199999999999  0.7495  1.0000
  C   C191      1.0  0.52523  0.6998  0.67528  1.0000
  C   C192      1.0  0.66416  0.8164399999999998  0.53549  1.0000
  N   N1        1.0  0.32431  0.12888  0.21596999999999997  1.0000
  N   N2        1.0  0.21306  0.15476  0.18642  1.0000
  N   N3        1.0  0.24721000000000007  0.0411  0.168  1.0000
  N   N4        1.0  0.28499  0.12616  0.05739999999999999  1.0000
  N   N5        1.0  0.8708400000000002  0.3245699999999999  0.21512  1.0000
  N   N6        1.0  0.84503  0.2132  0.18469999999999998  1.0000
  N   N7        1.0  0.9589800000000003  0.24686  0.17044999999999996  1.0000
  N   N8        1.0  0.87965  0.28825  0.05714  1.0000
  N   N9        1.0  0.67491  0.87063  0.21583999999999998  1.0000
  N   N10       1.0  0.78714  0.8449  0.18785999999999994  1.0000
  N   N11       1.0  0.7527500000000003  0.9587899999999999  0.17016  1.0000
  N   N12       1.0  0.7156300000000001  0.87399  0.05872  1.0000
  N   N13       1.0  0.12835  0.6750899999999997  0.21563  1.0000
  N   N14       1.0  0.15431  0.78737  0.185  1.0000
  N   N15       1.0  0.04114  0.7536  0.16232  1.0000
  N   N16       1.0  0.12415  0.7122799999999999  0.05743  1.0000
  N   N17       1.0  0.32465000000000005  0.87082  0.78483  1.0000
  N   N18       1.0  0.21213  0.84582  0.8161  1.0000
  N   N19       1.0  0.24674000000000004  0.95876  0.8386399999999999  1.0000
  N   N20       1.0  0.28529  0.8736299999999998  0.9428299999999997  1.0000
  N   N21       1.0  0.12933  0.32425  0.78477  1.0000
  N   N22       1.0  0.15476  0.2126  0.81517  1.0000
  N   N23       1.0  0.04106  0.24647999999999998  0.8295999999999999  1.0000
  N   N24       1.0  0.1207  0.28763  0.94261  1.0000
  N   N25       1.0  0.67519  0.12854  0.78456  1.0000
  N   N26       1.0  0.78752  0.15409  0.8162999999999999  1.0000
  N   N27       1.0  0.75359  0.04093999999999999  0.8365099999999999  1.0000
  N   N28       1.0  0.71171  0.12215999999999999  0.94239  1.0000
  N   N29       1.0  0.87156  0.67531  0.7841799999999999  1.0000
  N   N30       1.0  0.84557  0.78756  0.8150899999999998  1.0000
  N   N31       1.0  0.9586500000000002  0.75365  0.83792  1.0000
  N   N32       1.0  0.87271  0.7149  0.94247  1.0000
  N   N33       1.0  0.67516  0.8710199999999998  0.78516  1.0000
  N   N34       1.0  0.7876100000000003  0.84585  0.8156  1.0000
  N   N35       1.0  0.75364  0.95876  0.8371499999999998  1.0000
  N   N36       1.0  0.7154100000000002  0.87398  0.9435499999999999  1.0000
  N   N37       1.0  0.12848  0.67576  0.78366  1.0000
  N   N38       1.0  0.15356  0.7881199999999998  0.8162799999999999  1.0000
  N   N39       1.0  0.04088  0.7537199999999998  0.83737  1.0000
  N   N40       1.0  0.12397  0.71219  0.94238  1.0000
  N   N41       1.0  0.32468  0.12863  0.78437  1.0000
  N   N42       1.0  0.21244  0.15399  0.81533  1.0000
  N   N43       1.0  0.24682  0.040949999999999986  0.8387199999999998  1.0000
  N   N44       1.0  0.28547  0.12618  0.94237  1.0000
  N   N45       1.0  0.8709800000000001  0.32502  0.78486  1.0000
  N   N46       1.0  0.8446100000000001  0.2133  0.81481  1.0000
  N   N47       1.0  0.95877  0.24682  0.8286199999999999  1.0000
  N   N48       1.0  0.87962  0.28815  0.94209  1.0000
  N   N49       1.0  0.67579  0.12898  0.21595  1.0000
  N   N50       1.0  0.7871  0.15478999999999998  0.18491  1.0000
  N   N51       1.0  0.75287  0.04103  0.1694  1.0000
  N   N52       1.0  0.71177  0.12215  0.057449999999999994  1.0000
  N   N53       1.0  0.87161  0.6757199999999998  0.21637  1.0000
  N   N54       1.0  0.84617  0.78768  0.1858  1.0000
  N   N55       1.0  0.95892  0.75378  0.16125  1.0000
  N   N56       1.0  0.87276  0.715  0.057499999999999996  1.0000
  N   N57       1.0  0.32485  0.87085  0.21541  1.0000
  N   N58       1.0  0.21308  0.8449399999999999  0.18658999999999995  1.0000
  N   N59       1.0  0.24728000000000003  0.9588399999999999  0.16871999999999995  1.0000
  N   N60       1.0  0.28486  0.87377  0.057849999999999985  1.0000
  N   N61       1.0  0.1293  0.3251099999999999  0.21476999999999996  1.0000
  N   N62       1.0  0.1554  0.21344  0.18656  1.0000
  N   N63       1.0  0.04126000000000001  0.24696  0.17128999999999997  1.0000
  N   N64       1.0  0.12066  0.28765  0.05767  1.0000
  N   N65       1.0  0.82497  0.62861  0.7151499999999998  1.0000
  N   N66       1.0  0.71239  0.6543799999999999  0.6843699999999999  1.0000
  N   N67       1.0  0.74573  0.54131  0.66509  1.0000
  N   N68       1.0  0.7876400000000001  0.62236  0.5578  1.0000
  N   N69       1.0  0.3711900000000001  0.82449  0.7157499999999999  1.0000
  N   N70       1.0  0.34604  0.71238  0.6862199999999999  1.0000
  N   N71       1.0  0.45886  0.7471  0.6614899999999999  1.0000
  N   N72       1.0  0.37247  0.7848299999999998  0.55747  1.0000
  N   N73       1.0  0.1759  0.37077  0.71584  1.0000
  N   N74       1.0  0.2875  0.3453799999999999  0.6857799999999998  1.0000
  N   N75       1.0  0.25237  0.45901999999999993  0.6680799999999999  1.0000
  N   N76       1.0  0.21508  0.37386  0.5574099999999999  1.0000
  N   N77       1.0  0.62848  0.17525  0.71558  1.0000
  N   N78       1.0  0.65433  0.28755  0.68447  1.0000
  N   N79       1.0  0.54116  0.25353  0.6636399999999999  1.0000
  N   N80       1.0  0.62589  0.21465  0.55784  1.0000
  N   N81       1.0  0.82445  0.3711  0.2840899999999999  1.0000
  N   N82       1.0  0.71314  0.34503  0.31401  1.0000
  N   N83       1.0  0.74725  0.45896  0.3296699999999999  1.0000
  N   N84       1.0  0.78766  0.37784  0.44266  1.0000
  N   N85       1.0  0.62796  0.82406  0.28414999999999996  1.0000
  N   N86       1.0  0.65398  0.71227  0.31542  1.0000
  N   N87       1.0  0.54107  0.74583  0.34024  1.0000
  N   N88       1.0  0.62718  0.78519  0.44262  1.0000
  N   N89       1.0  0.17511  0.6285099999999999  0.2847899999999999  1.0000
  N   N90       1.0  0.28767  0.6541399999999999  0.31486  1.0000
  N   N91       1.0  0.25373  0.54133  0.33867  1.0000
  N   N92       1.0  0.21503  0.62665  0.44237999999999994  1.0000
  N   N93       1.0  0.3710400000000001  0.17567999999999995  0.28461999999999993  1.0000
  N   N94       1.0  0.34518  0.28743  0.31496  1.0000
  N   N95       1.0  0.4588400000000001  0.25335  0.33135999999999993  1.0000
  N   N96       1.0  0.37752  0.21237999999999999  0.4427299999999999  1.0000
  N   N97       1.0  0.1758  0.37187999999999993  0.28376  1.0000
  N   N98       1.0  0.28785  0.34637999999999997  0.31520999999999993  1.0000
  N   N99       1.0  0.25388  0.45917  0.33918  1.0000
  N   N100      1.0  0.21486  0.37386999999999987  0.44239  1.0000
  N   N101      1.0  0.62928  0.17561999999999997  0.2846  1.0000
  N   N102      1.0  0.65496  0.28687  0.31396999999999997  1.0000
  N   N103      1.0  0.54113  0.25293  0.33163  1.0000
  N   N104      1.0  0.62589  0.21498999999999993  0.44283999999999996  1.0000
  N   N105      1.0  0.82508  0.6292799999999997  0.28553  1.0000
  N   N106      1.0  0.71322  0.65524  0.3146099999999999  1.0000
  N   N107      1.0  0.74731  0.54121  0.32965  1.0000
  N   N108      1.0  0.7876  0.62238  0.44277  1.0000
  N   N109      1.0  0.37173  0.82412  0.28418  1.0000
  N   N110      1.0  0.34619  0.7118599999999998  0.31528999999999996  1.0000
  N   N111      1.0  0.45886  0.7456799999999999  0.34025  1.0000
  N   N112      1.0  0.37263  0.78479  0.4424699999999999  1.0000
  N   N113      1.0  0.17513  0.62958  0.71457  1.0000
  N   N114      1.0  0.28712  0.65497  0.6869  1.0000
  N   N115      1.0  0.25215  0.54128  0.6684099999999998  1.0000
  N   N116      1.0  0.21534  0.62666  0.5573899999999999  1.0000
  N   N117      1.0  0.37132  0.17513999999999996  0.7154499999999999  1.0000
  N   N118      1.0  0.3460900000000001  0.28765  0.68499  1.0000
  N   N119      1.0  0.45896  0.25337  0.6644299999999997  1.0000
  N   N120      1.0  0.37740000000000007  0.21229  0.55775  1.0000
  N   N121      1.0  0.8243800000000002  0.37179  0.71582  1.0000
  N   N122      1.0  0.71207  0.34607  0.6837699999999999  1.0000
  N   N123      1.0  0.7455  0.45912  0.66435  1.0000
  N   N124      1.0  0.7877200000000002  0.378  0.5577099999999999  1.0000
  N   N125      1.0  0.62856  0.82457  0.71581  1.0000
  N   N126      1.0  0.65408  0.71235  0.6846  1.0000
  N   N127      1.0  0.54107  0.74702  0.66123  1.0000
  N   N128      1.0  0.6272400000000002  0.78535  0.5576  1.0000
