data_image0
_chemical_formula_structural       Tm4H6C30O24
_chemical_formula_sum              "Tm4 H6 C30 O24"
_cell_length_a       10.285
_cell_length_b       11.5717
_cell_length_c       13.5114
_cell_angle_alpha    85.581
_cell_angle_beta     69.209
_cell_angle_gamma    63.755

_symmetry_space_group_name_H-M    'P 1'
_symmetry_Int_Tables_number       1

loop_
  _symmetry_equiv_pos_as_xyz
  'x,y,z'

loop_
  _atom_site_type_symbol
  _atom_site_label
  _atom_site_symmetry_multiplicity
  _atom_site_fract_x
  _atom_site_fract_y
  _atom_site_fract_z
  _atom_site_occupancy
  Tm  Tm1       1.0  0.4446099999999999  0.72456  0.6796900000000002  1.0000
  Tm  Tm2       1.0  0.4688199999999997  0.20302  0.6907  1.0000
  Tm  Tm3       1.0  0.55539  0.27544  0.32031000000000004  1.0000
  Tm  Tm4       1.0  0.5311799999999998  0.7969800000000001  0.3093  1.0000
  H   H1        1.0  0.9895000000000002  0.8894  0.6022  1.0000
  H   H2        1.0  0.6345999999999996  0.7961  0.9087  1.0000
  H   H3        1.0  0.006999999999999981  0.5833  0.3898  1.0000
  H   H4        1.0  0.010499999999999982  0.1106  0.3978  1.0000
  H   H5        1.0  0.36539999999999995  0.20389999999999997  0.0913  1.0000
  H   H6        1.0  0.993  0.4167  0.6102  1.0000
  C   C1        1.0  0.8618  0.7528000000000001  0.48130000000000006  1.0000
  C   C2        1.0  0.1345  0.7224  0.5079  1.0000
  C   C3        1.0  0.4432999999999998  0.9513  0.816  1.0000
  C   C4        1.0  0.8572  0.8437  0.5478  1.0000
  C   C5        1.0  0.1396999999999999  0.6281  0.44570000000000004  1.0000
  C   C6        1.0  0.9933  0.828  0.5593  1.0000
  C   C7        1.0  0.7222  0.7658  0.46110000000000007  1.0000
  C   C8        1.0  0.47200000000000003  0.9786  0.9108000000000003  1.0000
  C   C9        1.0  0.5799999999999998  0.8777000000000001  0.9460000000000002  1.0000
  C   C10       1.0  0.003099999999999974  0.6452  0.4323000000000001  1.0000
  C   C11       1.0  0.26559999999999995  0.21660000000000001  0.9398  1.0000
  C   C12       1.0  0.39319999999999994  0.1028  0.965  1.0000
  C   C13       1.0  0.27370000000000005  0.7217  0.522  1.0000
  C   C14       1.0  0.2873  0.5081  0.3966  1.0000
  C   C15       1.0  0.7118999999999999  0.9623  0.6046  1.0000
  C   C16       1.0  0.1382  0.24720000000000003  0.5187  1.0000
  C   C17       1.0  0.8654999999999999  0.2776  0.4921  1.0000
  C   C18       1.0  0.5567  0.0487  0.184  1.0000
  C   C19       1.0  0.14279999999999998  0.1563  0.4522  1.0000
  C   C20       1.0  0.8602999999999997  0.3719  0.5543  1.0000
  C   C21       1.0  0.006700000000000017  0.172  0.4407  1.0000
  C   C22       1.0  0.27779999999999994  0.23419999999999996  0.5389  1.0000
  C   C23       1.0  0.528  0.0214  0.0892  1.0000
  C   C24       1.0  0.4200000000000001  0.1223  0.054  1.0000
  C   C25       1.0  0.9969000000000002  0.3548  0.5677  1.0000
  C   C26       1.0  0.7344  0.7834  0.060200000000000004  1.0000
  C   C27       1.0  0.6067999999999998  0.8972000000000001  0.035  1.0000
  C   C28       1.0  0.7262999999999998  0.2783  0.478  1.0000
  C   C29       1.0  0.7127  0.4919  0.6034  1.0000
  C   C30       1.0  0.2880999999999999  0.03770000000000002  0.3954000000000001  1.0000
  O   O1        1.0  0.6071000000000001  0.0151  0.56473  1.0000
  O   O2        1.0  0.38039999999999985  0.0462  0.76827  1.0000
  O   O3        1.0  0.4007  0.4814  0.426  1.0000
  O   O4        1.0  0.2847999999999998  0.6976  0.6115  1.0000
  O   O5        1.0  0.2997  0.2797  0.86117  1.0000
  O   O6        1.0  0.2967  0.43320000000000003  0.328  1.0000
  O   O7        1.0  0.7283999999999998  0.7747  0.3655  1.0000
  O   O8        1.0  0.4856  0.8350000000000001  0.788  1.0000
  O   O9        1.0  0.13179999999999997  0.24630000000000002  0.003  1.0000
  O   O10       1.0  0.6995  0.012400000000000008  0.6897  1.0000
  O   O11       1.0  0.36170000000000013  0.7546  0.4484  1.0000
  O   O12       1.0  0.6087  0.7644  0.5363  1.0000
  O   O13       1.0  0.39289999999999997  0.9849  0.4352700000000001  1.0000
  O   O14       1.0  0.6195999999999998  0.9538  0.23173000000000002  1.0000
  O   O15       1.0  0.5993  0.5186  0.574  1.0000
  O   O16       1.0  0.7152  0.3024  0.3885  1.0000
  O   O17       1.0  0.7003000000000001  0.7203  0.13883  1.0000
  O   O18       1.0  0.7033  0.5668  0.672  1.0000
  O   O19       1.0  0.2716  0.22530000000000003  0.6345  1.0000
  O   O20       1.0  0.5144000000000001  0.165  0.212  1.0000
  O   O21       1.0  0.8681999999999997  0.7537  0.997  1.0000
  O   O22       1.0  0.3004999999999998  0.9876  0.3103  1.0000
  O   O23       1.0  0.6383  0.2454  0.5516  1.0000
  O   O24       1.0  0.3912999999999999  0.23559999999999998  0.4637000000000001  1.0000
