data_image0
_chemical_formula_structural       NHO7C2HCHC2HCHC2HC2HC2HC4ZnNHO7C2HCHC2HCHC2HC2HC2HC4Zn2
_chemical_formula_sum              "N2 H16 O14 C32 Zn3"
_cell_length_a       8.4358
_cell_length_b       10.074
_cell_length_c       15.079
_cell_angle_alpha    71.071
_cell_angle_beta     87.93100000000001
_cell_angle_gamma    67.631

_symmetry_space_group_name_H-M    'P 1'
_symmetry_Int_Tables_number       1

loop_
  _symmetry_equiv_pos_as_xyz
  'x,y,z'

loop_
  _atom_site_type_symbol
  _atom_site_label
  _atom_site_symmetry_multiplicity
  _atom_site_fract_x
  _atom_site_fract_y
  _atom_site_fract_z
  _atom_site_occupancy
  N   N1        1.0  0.7808000000000002  0.9124999999999999  0.6063  1.0000
  H   H1        1.0  0.7171000000000001  0.008200000000000124  0.5842999999999998  1.0000
  O   O1        1.0  0.5753  0.3292  0.12419999999999998  1.0000
  O   O2        1.0  0.7685  0.13130000000000003  0.09049999999999997  1.0000
  O   O3        1.0  0.8322000000000003  0.3940000000000001  0.8458  1.0000
  O   O4        1.0  0.7652000000000002  0.44860000000000005  0.9743999999999999  1.0000
  O   O5        1.0  0.8027  0.09130000000000009  0.8798999999999999  1.0000
  O   O6        1.0  0.9234000000000004  0.8748999999999999  0.0015  1.0000
  O   O7        1.0  0.9498999999999999  0.7074000000000001  0.5675  1.0000
  C   C1        1.0  0.7235000000000003  0.10369999999999999  0.2495  1.0000
  C   C2        1.0  0.8492000000000001  0.9571  0.2802  1.0000
  H   H2        1.0  0.9084  0.9132999999999999  0.23689999999999994  1.0000
  C   C3        1.0  0.8859  0.8765  0.3757999999999999  1.0000
  H   H3        1.0  0.9699000000000001  0.7779  0.396  1.0000
  C   C4        1.0  0.8020000000000002  0.9376  0.44169999999999987  1.0000
  C   C5        1.0  0.6754000000000002  0.0813  0.4096  1.0000
  H   H4        1.0  0.6140999999999999  0.12400000000000005  0.45279999999999987  1.0000
  C   C6        1.0  0.6369  0.16400000000000006  0.31469999999999987  1.0000
  H   H5        1.0  0.5512  0.2618  0.2948  1.0000
  C   C7        1.0  0.8042000000000001  0.8405000000000001  0.7064999999999998  1.0000
  C   C8        1.0  0.8069  0.6958999999999999  0.7482  1.0000
  H   H6        1.0  0.8016999999999999  0.6393000000000001  0.7112  1.0000
  C   C9        1.0  0.8174  0.6347  0.8461999999999998  1.0000
  C   C10       1.0  0.8353000000000002  0.7152999999999998  0.9021  1.0000
  H   H7        1.0  0.8474000000000002  0.6729000000000002  0.9674999999999999  1.0000
  C   C11       1.0  0.8346000000000002  0.8609000000000002  0.8584  1.0000
  C   C12       1.0  0.8157000000000001  0.9234  0.7614  1.0000
  H   H8        1.0  0.8107  0.02200000000000006  0.7327999999999999  1.0000
  C   C13       1.0  0.6855  0.1955  0.1459  1.0000
  C   C14       1.0  0.8039000000000003  0.48439999999999983  0.8906  1.0000
  C   C15       1.0  0.8572  0.9467999999999999  0.9183  1.0000
  C   C16       1.0  0.8510000000000004  0.8418999999999999  0.5434  1.0000
  Zn  Zn1       1.0  0.81853  0.21036000000000007  0.9582399999999998  1.0000
  N   N2        1.0  0.2192000000000001  0.08749999999999998  0.3937  1.0000
  H   H9        1.0  0.28290000000000004  0.9918000000000001  0.4156999999999999  1.0000
  O   O8        1.0  0.42469999999999997  0.6708  0.8758  1.0000
  O   O9        1.0  0.23149999999999993  0.8687000000000002  0.9095  1.0000
  O   O10       1.0  0.16780000000000003  0.6059999999999999  0.1542  1.0000
  O   O11       1.0  0.23479999999999998  0.5514  0.0256  1.0000
  O   O12       1.0  0.1973  0.9086999999999998  0.12009999999999997  1.0000
  O   O13       1.0  0.07659999999999999  0.12510000000000002  0.9985  1.0000
  O   O14       1.0  0.05009999999999998  0.2926000000000001  0.4324999999999999  1.0000
  C   C17       1.0  0.2765000000000001  0.8963  0.7505  1.0000
  C   C18       1.0  0.15079999999999996  0.04290000000000011  0.7197999999999998  1.0000
  H   H10       1.0  0.09159999999999995  0.0867000000000001  0.7630999999999998  1.0000
  C   C19       1.0  0.11410000000000002  0.12349999999999996  0.6242  1.0000
  H   H11       1.0  0.030100000000000023  0.22209999999999996  0.604  1.0000
  C   C20       1.0  0.198  0.06240000000000001  0.5583  1.0000
  C   C21       1.0  0.3246  0.9187  0.5904  1.0000
  H   H12       1.0  0.3859000000000001  0.876  0.5472  1.0000
  C   C22       1.0  0.36310000000000003  0.836  0.6852999999999999  1.0000
  H   H13       1.0  0.4488000000000002  0.7382  0.7052  1.0000
  C   C23       1.0  0.19579999999999997  0.1595000000000001  0.29349999999999987  1.0000
  C   C24       1.0  0.19309999999999994  0.30410000000000004  0.2518  1.0000
  H   H14       1.0  0.19830000000000003  0.3607  0.2888  1.0000
  C   C25       1.0  0.18260000000000004  0.36529999999999996  0.15379999999999996  1.0000
  C   C26       1.0  0.1647  0.2847  0.0979  1.0000
  H   H15       1.0  0.1526000000000001  0.3271  0.0325  1.0000
  C   C27       1.0  0.1654  0.13910000000000003  0.1416  1.0000
  C   C28       1.0  0.18429999999999996  0.07660000000000003  0.23859999999999995  1.0000
  H   H16       1.0  0.18930000000000002  0.978  0.2672  1.0000
  C   C29       1.0  0.31449999999999995  0.8045000000000001  0.8541  1.0000
  C   C30       1.0  0.19609999999999997  0.5156  0.10939999999999997  1.0000
  C   C31       1.0  0.14280000000000007  0.05319999999999999  0.0817  1.0000
  C   C32       1.0  0.149  0.1581  0.4566  1.0000
  Zn  Zn2       1.0  0.18146999999999994  0.78964  0.04175999999999999  1.0000
  Zn  Zn3       1.0  0.5  0.5  0.0  1.0000
