data_image0
_chemical_formula_structural       Mn6H48C84O24
_chemical_formula_sum              "Mn6 H48 C84 O24"
_cell_length_a       12.351
_cell_length_b       13.958000000000002
_cell_length_c       18.507
_cell_angle_alpha    90.0
_cell_angle_beta     90.0
_cell_angle_gamma    113.79

_symmetry_space_group_name_H-M    'P 1'
_symmetry_Int_Tables_number       1

loop_
  _symmetry_equiv_pos_as_xyz
  'x,y,z'

loop_
  _atom_site_type_symbol
  _atom_site_label
  _atom_site_symmetry_multiplicity
  _atom_site_fract_x
  _atom_site_fract_y
  _atom_site_fract_z
  _atom_site_occupancy
  Mn  Mn1       1.0  0.67721  0.9150799999999998  0.48099000000000003  1.0000
  Mn  Mn2       1.0  0.82279  0.08492  0.98099  1.0000
  Mn  Mn3       1.0  0.3227900000000001  0.08492  0.5190100000000001  1.0000
  Mn  Mn4       1.0  0.17720999999999995  0.9150799999999998  0.019010000000000006  1.0000
  Mn  Mn5       1.0  0.9999999999999999  0.9999999999999998  0.5  1.0000
  Mn  Mn6       1.0  0.5  0.0  0.0  1.0000
  H   H1        1.0  0.5982000000000001  0.6620999999999999  0.6277  1.0000
  H   H2        1.0  0.5651  0.5123  0.6933000000000002  1.0000
  H   H3        1.0  0.9094000000000001  0.6199  0.7393  1.0000
  H   H4        1.0  0.9431  0.7724  0.6767  1.0000
  H   H5        1.0  0.8629000000000001  0.4352  0.7297000000000001  1.0000
  H   H6        1.0  0.8431  0.2935  0.8012000000000001  1.0000
  H   H7        1.0  0.5353000000000001  0.2846  0.8767  1.0000
  H   H8        1.0  0.5578  0.4286  0.8081000000000003  1.0000
  H   H9        1.0  0.9985  0.23089999999999997  0.4481  1.0000
  H   H10       1.0  0.08519999999999994  0.4106999999999999  0.43830000000000013  1.0000
  H   H11       1.0  0.8469000000000001  0.4313  0.5763000000000001  1.0000
  H   H12       1.0  0.7556  0.2512  0.5828000000000001  1.0000
  H   H13       1.0  0.9018000000000003  0.33789999999999987  0.1277  1.0000
  H   H14       1.0  0.9348999999999998  0.48769999999999997  0.1933  1.0000
  H   H15       1.0  0.5906000000000001  0.3800999999999999  0.2393  1.0000
  H   H16       1.0  0.5569  0.22759999999999997  0.1767  1.0000
  H   H17       1.0  0.6371000000000002  0.5647999999999999  0.22970000000000004  1.0000
  H   H18       1.0  0.6569  0.7065  0.3012  1.0000
  H   H19       1.0  0.9647  0.7154  0.3767  1.0000
  H   H20       1.0  0.9422  0.5713999999999999  0.3081  1.0000
  H   H21       1.0  0.5015  0.7690999999999998  0.9481000000000002  1.0000
  H   H22       1.0  0.4148  0.5893  0.9383  1.0000
  H   H23       1.0  0.6531000000000002  0.5686999999999999  0.0763  1.0000
  H   H24       1.0  0.7444  0.7488  0.0828  1.0000
  H   H25       1.0  0.40180000000000005  0.33789999999999987  0.37230000000000013  1.0000
  H   H26       1.0  0.43490000000000006  0.48769999999999997  0.3067  1.0000
  H   H27       1.0  0.09059999999999996  0.3800999999999999  0.26070000000000004  1.0000
  H   H28       1.0  0.0569  0.22759999999999997  0.3233  1.0000
  H   H29       1.0  0.1371  0.5647999999999999  0.2703  1.0000
  H   H30       1.0  0.1569  0.7065  0.1988  1.0000
  H   H31       1.0  0.4647  0.7154  0.1233  1.0000
  H   H32       1.0  0.4421999999999999  0.5713999999999999  0.19190000000000004  1.0000
  H   H33       1.0  0.0014999999999999371  0.7690999999999998  0.5519  1.0000
  H   H34       1.0  0.9148  0.5893  0.5617  1.0000
  H   H35       1.0  0.15309999999999996  0.5686999999999999  0.4237000000000001  1.0000
  H   H36       1.0  0.24440000000000006  0.7488  0.41720000000000007  1.0000
  H   H37       1.0  0.09819999999999995  0.6620999999999999  0.8723000000000001  1.0000
  H   H38       1.0  0.0651  0.5123  0.8067  1.0000
  H   H39       1.0  0.4094  0.6199  0.7607  1.0000
  H   H40       1.0  0.44309999999999994  0.7724  0.8233000000000003  1.0000
  H   H41       1.0  0.3629  0.4352  0.7703  1.0000
  H   H42       1.0  0.3431  0.2935  0.6988  1.0000
  H   H43       1.0  0.035300000000000026  0.2846  0.6233  1.0000
  H   H44       1.0  0.0578  0.4286  0.6919  1.0000
  H   H45       1.0  0.4985000000000001  0.23089999999999997  0.05190000000000001  1.0000
  H   H46       1.0  0.5852  0.4106999999999999  0.0617  1.0000
  H   H47       1.0  0.3469  0.4313  0.9237  1.0000
  H   H48       1.0  0.2556  0.2512  0.9172000000000001  1.0000
  C   C1        1.0  0.7741  0.7325999999999999  0.6439  1.0000
  C   C2        1.0  0.6615  0.6540999999999998  0.6500000000000002  1.0000
  C   C3        1.0  0.6417  0.5634  0.6891  1.0000
  C   C4        1.0  0.7346000000000003  0.548  0.722  1.0000
  C   C5        1.0  0.8462000000000002  0.6278  0.7167000000000001  1.0000
  C   C6        1.0  0.8671  0.7197999999999999  0.6787  1.0000
  C   C7        1.0  0.7144  0.4501  0.7628  1.0000
  C   C8        1.0  0.7979  0.4063  0.7602  1.0000
  C   C9        1.0  0.7853000000000001  0.32029999999999986  0.8025  1.0000
  C   C10       1.0  0.6864  0.27369999999999994  0.8471  1.0000
  C   C11       1.0  0.6022000000000001  0.3153  0.8479  1.0000
  C   C12       1.0  0.6158000000000001  0.4019999999999999  0.8065  1.0000
  C   C13       1.0  0.7957  0.8273  0.5964  1.0000
  C   C14       1.0  0.6752  0.18239999999999995  0.8955  1.0000
  C   C15       1.0  0.8673000000000001  0.22259999999999994  0.5153000000000001  1.0000
  C   C16       1.0  0.9663000000000003  0.2711  0.47300000000000003  1.0000
  C   C17       1.0  0.01850000000000001  0.3792  0.46710000000000007  1.0000
  C   C18       1.0  0.9722  0.4414999999999999  0.504  1.0000
  C   C19       1.0  0.8761  0.3912999999999999  0.5488  1.0000
  C   C20       1.0  0.822  0.2829999999999999  0.5537  1.0000
  C   C21       1.0  0.806  0.10609999999999999  0.516  1.0000
  C   C22       1.0  0.7259  0.2674  0.14390000000000003  1.0000
  C   C23       1.0  0.8385  0.3459  0.15  1.0000
  C   C24       1.0  0.8583000000000002  0.43659999999999993  0.18910000000000002  1.0000
  C   C25       1.0  0.7654000000000001  0.452  0.22200000000000003  1.0000
  C   C26       1.0  0.6538000000000003  0.37219999999999986  0.2167  1.0000
  C   C27       1.0  0.6329  0.2802  0.1787  1.0000
  C   C28       1.0  0.7856  0.5499  0.2628  1.0000
  C   C29       1.0  0.7021  0.5937  0.2602  1.0000
  C   C30       1.0  0.7147000000000002  0.6796999999999997  0.3025  1.0000
  C   C31       1.0  0.8136000000000002  0.7263  0.3471  1.0000
  C   C32       1.0  0.8978  0.6846999999999998  0.3479000000000001  1.0000
  C   C33       1.0  0.8842000000000001  0.598  0.3065  1.0000
  C   C34       1.0  0.7043  0.17269999999999996  0.09640000000000001  1.0000
  C   C35       1.0  0.8248  0.8175999999999998  0.3955  1.0000
  C   C36       1.0  0.6327000000000003  0.7774  0.0153  1.0000
  C   C37       1.0  0.5337  0.7289  0.9730000000000001  1.0000
  C   C38       1.0  0.48150000000000004  0.6208  0.9671000000000001  1.0000
  C   C39       1.0  0.5278  0.5585  0.004  1.0000
  C   C40       1.0  0.6239000000000001  0.6087  0.0488  1.0000
  C   C41       1.0  0.678  0.717  0.0537  1.0000
  C   C42       1.0  0.694  0.8939  0.016  1.0000
  C   C43       1.0  0.22590000000000005  0.2674  0.3561  1.0000
  C   C44       1.0  0.3385  0.3459  0.35  1.0000
  C   C45       1.0  0.35830000000000006  0.43659999999999993  0.31090000000000007  1.0000
  C   C46       1.0  0.2654  0.452  0.278  1.0000
  C   C47       1.0  0.1538  0.37219999999999986  0.2833000000000001  1.0000
  C   C48       1.0  0.1329  0.2802  0.3213  1.0000
  C   C49       1.0  0.2856  0.5499  0.2372  1.0000
  C   C50       1.0  0.20210000000000003  0.5937  0.23980000000000004  1.0000
  C   C51       1.0  0.21469999999999995  0.6796999999999997  0.19750000000000004  1.0000
  C   C52       1.0  0.3136  0.7263  0.1529  1.0000
  C   C53       1.0  0.3978  0.6846999999999998  0.1521  1.0000
  C   C54       1.0  0.3842  0.598  0.1935  1.0000
  C   C55       1.0  0.2043  0.17269999999999996  0.4036  1.0000
  C   C56       1.0  0.3247999999999999  0.8175999999999998  0.1045  1.0000
  C   C57       1.0  0.1327000000000001  0.7774  0.4847  1.0000
  C   C58       1.0  0.0337  0.7289  0.527  1.0000
  C   C59       1.0  0.9815000000000002  0.6208  0.5329  1.0000
  C   C60       1.0  0.027800000000000012  0.5585  0.496  1.0000
  C   C61       1.0  0.12390000000000004  0.6087  0.45120000000000005  1.0000
  C   C62       1.0  0.17799999999999996  0.717  0.4463  1.0000
  C   C63       1.0  0.194  0.8939  0.484  1.0000
  C   C64       1.0  0.27409999999999995  0.7325999999999999  0.8561000000000002  1.0000
  C   C65       1.0  0.16149999999999992  0.6540999999999998  0.85  1.0000
  C   C66       1.0  0.14170000000000002  0.5634  0.8109000000000001  1.0000
  C   C67       1.0  0.23460000000000014  0.548  0.778  1.0000
  C   C68       1.0  0.3462  0.6278  0.7833  1.0000
  C   C69       1.0  0.3671000000000001  0.7197999999999999  0.8213  1.0000
  C   C70       1.0  0.21440000000000006  0.4501  0.7372  1.0000
  C   C71       1.0  0.2979  0.4063  0.7398000000000001  1.0000
  C   C72       1.0  0.28529999999999994  0.32029999999999986  0.6975  1.0000
  C   C73       1.0  0.18640000000000007  0.27369999999999994  0.6529000000000003  1.0000
  C   C74       1.0  0.10220000000000003  0.3153  0.6521000000000001  1.0000
  C   C75       1.0  0.11579999999999999  0.4019999999999999  0.6935  1.0000
  C   C76       1.0  0.2957  0.8273  0.9036  1.0000
  C   C77       1.0  0.1752  0.18239999999999995  0.6045000000000003  1.0000
  C   C78       1.0  0.3673000000000001  0.22259999999999994  0.9847  1.0000
  C   C79       1.0  0.4663  0.2711  0.027000000000000007  1.0000
  C   C80       1.0  0.5185000000000001  0.3792  0.0329  1.0000
  C   C81       1.0  0.4722000000000001  0.4414999999999999  0.9960000000000001  1.0000
  C   C82       1.0  0.3761  0.3912999999999999  0.9512000000000002  1.0000
  C   C83       1.0  0.322  0.2829999999999999  0.9463  1.0000
  C   C84       1.0  0.30600000000000005  0.10609999999999999  0.984  1.0000
  O   O1        1.0  0.9009999999999999  0.8886999999999998  0.5851  1.0000
  O   O2        1.0  0.7055  0.8359  0.5725  1.0000
  O   O3        1.0  0.7707  0.1719  0.9062  1.0000
  O   O4        1.0  0.5765  0.1269  0.9204000000000001  1.0000
  O   O5        1.0  0.8563000000000001  0.0521  0.4859  1.0000
  O   O6        1.0  0.7031000000000001  0.06239999999999998  0.5409  1.0000
  O   O7        1.0  0.599  0.11129999999999997  0.0851  1.0000
  O   O8        1.0  0.7945  0.16409999999999994  0.0725  1.0000
  O   O9        1.0  0.7293  0.8281  0.4062000000000001  1.0000
  O   O10       1.0  0.9235  0.8731  0.4204  1.0000
  O   O11       1.0  0.6437000000000002  0.9479  0.9859  1.0000
  O   O12       1.0  0.7969000000000002  0.9375999999999998  0.0409  1.0000
  O   O13       1.0  0.09899999999999999  0.11129999999999997  0.4149  1.0000
  O   O14       1.0  0.29450000000000004  0.16409999999999994  0.4275000000000001  1.0000
  O   O15       1.0  0.22930000000000006  0.8281  0.0938  1.0000
  O   O16       1.0  0.42349999999999993  0.8731  0.0796  1.0000
  O   O17       1.0  0.14370000000000002  0.9479  0.5141  1.0000
  O   O18       1.0  0.29689999999999994  0.9375999999999998  0.45910000000000006  1.0000
  O   O19       1.0  0.401  0.8886999999999998  0.9149  1.0000
  O   O20       1.0  0.2055  0.8359  0.9275000000000001  1.0000
  O   O21       1.0  0.2707  0.1719  0.5938  1.0000
  O   O22       1.0  0.07650000000000001  0.1269  0.5796000000000002  1.0000
  O   O23       1.0  0.3563  0.0521  0.014100000000000001  1.0000
  O   O24       1.0  0.2031  0.06239999999999998  0.9591000000000001  1.0000
