data_image0
_chemical_formula_structural       Mn6H48C84O24
_chemical_formula_sum              "Mn6 H48 C84 O24"
_cell_length_a       12.1687
_cell_length_b       13.943000000000001
_cell_length_c       18.2501
_cell_angle_alpha    90.0
_cell_angle_beta     90.0
_cell_angle_gamma    113.16899999999998

_symmetry_space_group_name_H-M    'P 1'
_symmetry_Int_Tables_number       1

loop_
  _symmetry_equiv_pos_as_xyz
  'x,y,z'

loop_
  _atom_site_type_symbol
  _atom_site_label
  _atom_site_symmetry_multiplicity
  _atom_site_fract_x
  _atom_site_fract_y
  _atom_site_fract_z
  _atom_site_occupancy
  Mn  Mn1       1.0  0.32687  0.58237  0.51938  1.0000
  Mn  Mn2       1.0  0.17312999999999998  0.41762999999999995  0.01938  1.0000
  Mn  Mn3       1.0  0.67313  0.41762999999999995  0.48061999999999994  1.0000
  Mn  Mn4       1.0  0.82687  0.58237  0.98062  1.0000
  Mn  Mn5       1.0  0.0  0.5  0.5  1.0000
  Mn  Mn6       1.0  0.5  0.5  0.0  1.0000
  H   H1        1.0  0.3461  0.792  0.7016  1.0000
  H   H2        1.0  0.3661  0.937  0.772  1.0000
  H   H3        1.0  0.05480000000000001  0.9315  0.69  1.0000
  H   H4        1.0  0.031199999999999953  0.7831  0.6225  1.0000
  H   H5        1.0  0.0602  0.014399999999999998  0.8063  1.0000
  H   H6        1.0  0.09390000000000001  0.1676  0.8707  1.0000
  H   H7        1.0  0.44539999999999996  0.2753  0.821  1.0000
  H   H8        1.0  0.4134  0.1212  0.7582  1.0000
  H   H9        1.0  0.24949999999999997  0.24739999999999998  0.4166  1.0000
  H   H10       1.0  0.1573  0.0666  0.4229  1.0000
  H   H11       1.0  0.9127  0.0897  0.5639  1.0000
  H   H12       1.0  0.9998000000000001  0.2704  0.5536  1.0000
  H   H13       1.0  0.1539  0.208  0.2016  1.0000
  H   H14       1.0  0.1339  0.063  0.272  1.0000
  H   H15       1.0  0.4452  0.0685  0.19  1.0000
  H   H16       1.0  0.4688  0.2169  0.1225  1.0000
  H   H17       1.0  0.4398  0.9856  0.3063  1.0000
  H   H18       1.0  0.4061  0.8324  0.3707  1.0000
  H   H19       1.0  0.05460000000000002  0.7247  0.321  1.0000
  H   H20       1.0  0.08659999999999989  0.8787999999999998  0.2582  1.0000
  H   H21       1.0  0.25050000000000006  0.7526  0.9166  1.0000
  H   H22       1.0  0.3427  0.9334  0.9229000000000002  1.0000
  H   H23       1.0  0.5873  0.9102999999999999  0.0639  1.0000
  H   H24       1.0  0.5002  0.7296  0.0536  1.0000
  H   H25       1.0  0.6539  0.208  0.2984  1.0000
  H   H26       1.0  0.6339  0.063  0.22800000000000004  1.0000
  H   H27       1.0  0.9452  0.0685  0.31  1.0000
  H   H28       1.0  0.9688  0.2169  0.3775  1.0000
  H   H29       1.0  0.9398  0.9856  0.1937  1.0000
  H   H30       1.0  0.9061000000000001  0.8324  0.1293  1.0000
  H   H31       1.0  0.5546  0.7247  0.179  1.0000
  H   H32       1.0  0.5866  0.8787999999999998  0.24179999999999996  1.0000
  H   H33       1.0  0.7505  0.7526  0.5834  1.0000
  H   H34       1.0  0.8427  0.9334  0.5771  1.0000
  H   H35       1.0  0.08730000000000003  0.9102999999999999  0.4361  1.0000
  H   H36       1.0  0.00020000000000006075  0.7296  0.44639999999999996  1.0000
  H   H37       1.0  0.8461  0.792  0.7984  1.0000
  H   H38       1.0  0.8661000000000001  0.937  0.728  1.0000
  H   H39       1.0  0.5548  0.9315  0.81  1.0000
  H   H40       1.0  0.5311999999999999  0.7831  0.8775000000000001  1.0000
  H   H41       1.0  0.5602  0.014399999999999998  0.6937  1.0000
  H   H42       1.0  0.5939  0.1676  0.6293  1.0000
  H   H43       1.0  0.9454  0.2753  0.679  1.0000
  H   H44       1.0  0.9134  0.1212  0.7418  1.0000
  H   H45       1.0  0.7495  0.24739999999999998  0.0834  1.0000
  H   H46       1.0  0.6573  0.0666  0.0771  1.0000
  H   H47       1.0  0.41269999999999996  0.0897  0.9361  1.0000
  H   H48       1.0  0.4998  0.2704  0.9464  1.0000
  C   C1        1.0  0.18764999999999993  0.77397  0.65357  1.0000
  C   C2        1.0  0.2867499999999999  0.8202299999999998  0.69904  1.0000
  C   C3        1.0  0.299  0.9071999999999998  0.74058  1.0000
  C   C4        1.0  0.2145  0.95165  0.73702  1.0000
  C   C5        1.0  0.11438000000000001  0.90351  0.69246  1.0000
  C   C6        1.0  0.10062999999999998  0.81542  0.65182  1.0000
  C   C7        1.0  0.23380999999999996  0.05018  0.77679  1.0000
  C   C8        1.0  0.13900999999999997  0.06641  0.80991  1.0000
  C   C9        1.0  0.1592  0.15802  0.84813  1.0000
  C   C10       1.0  0.27306  0.2357  0.85392  1.0000
  C   C11       1.0  0.36733  0.22172  0.81901  1.0000
  C   C12       1.0  0.34799  0.12996  0.7813  1.0000
  C   C13       1.0  0.17742000000000002  0.68225  0.6055  1.0000
  C   C14       1.0  0.29465  0.3308  0.90136  1.0000
  C   C15       1.0  0.13449  0.27699  0.48539  1.0000
  C   C16       1.0  0.18068  0.21549  0.4464600000000001  1.0000
  C   C17       1.0  0.12644  0.10764999999999998  0.45114000000000004  1.0000
  C   C18       1.0  0.02779  0.05798  0.4961999999999999  1.0000
  C   C19       1.0  0.98128  0.12123  0.53384  1.0000
  C   C20       1.0  0.03352  0.22909  0.52807  1.0000
  C   C21       1.0  0.19669  0.39292  0.48526  1.0000
  C   C22       1.0  0.31235  0.22603  0.15357  1.0000
  C   C23       1.0  0.21325  0.17977  0.19904  1.0000
  C   C24       1.0  0.201  0.0928  0.24058  1.0000
  C   C25       1.0  0.2855  0.04834999999999999  0.23702  1.0000
  C   C26       1.0  0.38562  0.09649  0.19246  1.0000
  C   C27       1.0  0.39937  0.18457999999999997  0.15182  1.0000
  C   C28       1.0  0.26619  0.94982  0.27679  1.0000
  C   C29       1.0  0.36098999999999987  0.9335899999999999  0.30991  1.0000
  C   C30       1.0  0.34079999999999994  0.84198  0.34813  1.0000
  C   C31       1.0  0.22693999999999992  0.7643  0.35392  1.0000
  C   C32       1.0  0.13267  0.77828  0.31901  1.0000
  C   C33       1.0  0.15201  0.87004  0.2813  1.0000
  C   C34       1.0  0.32258  0.31775  0.1055  1.0000
  C   C35       1.0  0.20535  0.6692  0.40136  1.0000
  C   C36       1.0  0.36551  0.72301  0.98539  1.0000
  C   C37       1.0  0.31932  0.78451  0.94646  1.0000
  C   C38       1.0  0.37356  0.89235  0.95114  1.0000
  C   C39       1.0  0.47221  0.94202  0.9962000000000001  1.0000
  C   C40       1.0  0.51872  0.8787699999999998  0.03384  1.0000
  C   C41       1.0  0.46648000000000006  0.77091  0.028070000000000005  1.0000
  C   C42       1.0  0.30331  0.60708  0.9852599999999999  1.0000
  C   C43       1.0  0.8123500000000001  0.22603  0.34643  1.0000
  C   C44       1.0  0.71325  0.17977  0.30096  1.0000
  C   C45       1.0  0.701  0.0928  0.25942  1.0000
  C   C46       1.0  0.7855  0.04834999999999999  0.26298  1.0000
  C   C47       1.0  0.88562  0.09649  0.30754  1.0000
  C   C48       1.0  0.8993699999999999  0.18457999999999997  0.34818  1.0000
  C   C49       1.0  0.76619  0.94982  0.22321  1.0000
  C   C50       1.0  0.8609899999999999  0.9335899999999999  0.19009  1.0000
  C   C51       1.0  0.8408  0.84198  0.15187  1.0000
  C   C52       1.0  0.7269399999999999  0.7643  0.14608  1.0000
  C   C53       1.0  0.63267  0.77828  0.18099  1.0000
  C   C54       1.0  0.65201  0.87004  0.2187  1.0000
  C   C55       1.0  0.82258  0.31775  0.3945  1.0000
  C   C56       1.0  0.70535  0.6692  0.09864  1.0000
  C   C57       1.0  0.86551  0.72301  0.51461  1.0000
  C   C58       1.0  0.81932  0.78451  0.55354  1.0000
  C   C59       1.0  0.87356  0.89235  0.54886  1.0000
  C   C60       1.0  0.97221  0.94202  0.5038  1.0000
  C   C61       1.0  0.01871999999999992  0.8787699999999998  0.46616  1.0000
  C   C62       1.0  0.96648  0.77091  0.47193  1.0000
  C   C63       1.0  0.80331  0.60708  0.51474  1.0000
  C   C64       1.0  0.68765  0.77397  0.84643  1.0000
  C   C65       1.0  0.7867499999999998  0.8202299999999998  0.80096  1.0000
  C   C66       1.0  0.7990000000000002  0.9071999999999998  0.75942  1.0000
  C   C67       1.0  0.7145  0.95165  0.76298  1.0000
  C   C68       1.0  0.61438  0.90351  0.80754  1.0000
  C   C69       1.0  0.60063  0.81542  0.84818  1.0000
  C   C70       1.0  0.73381  0.05018  0.72321  1.0000
  C   C71       1.0  0.63901  0.06641  0.69009  1.0000
  C   C72       1.0  0.6592  0.15802  0.65187  1.0000
  C   C73       1.0  0.77306  0.2357  0.64608  1.0000
  C   C74       1.0  0.86733  0.22172  0.68099  1.0000
  C   C75       1.0  0.8479899999999999  0.12996  0.7187  1.0000
  C   C76       1.0  0.6774199999999999  0.68225  0.8945  1.0000
  C   C77       1.0  0.79465  0.3308  0.59864  1.0000
  C   C78       1.0  0.63449  0.27699  0.01461  1.0000
  C   C79       1.0  0.68068  0.21549  0.05354  1.0000
  C   C80       1.0  0.62644  0.10764999999999998  0.04886  1.0000
  C   C81       1.0  0.52779  0.05798  0.0038000000000000004  1.0000
  C   C82       1.0  0.48128  0.12123  0.96616  1.0000
  C   C83       1.0  0.53352  0.22909  0.97193  1.0000
  C   C84       1.0  0.69669  0.39292  0.01474  1.0000
  O   O1        1.0  0.27340999999999993  0.6702599999999999  0.59499  1.0000
  O   O2        1.0  0.07685000000000003  0.62702  0.58007  1.0000
  O   O3        1.0  0.20268  0.33994  0.92583  1.0000
  O   O4        1.0  0.40099  0.39108  0.9130000000000001  1.0000
  O   O5        1.0  0.29999  0.43472  0.45986000000000005  1.0000
  O   O6        1.0  0.14492999999999998  0.44682  0.51554  1.0000
  O   O7        1.0  0.22659  0.3297399999999999  0.09499  1.0000
  O   O8        1.0  0.42315  0.37298  0.08007  1.0000
  O   O9        1.0  0.29732  0.66006  0.42583  1.0000
  O   O10       1.0  0.09901  0.60892  0.413  1.0000
  O   O11       1.0  0.20001  0.56528  0.95986  1.0000
  O   O12       1.0  0.35507  0.55318  0.015540000000000002  1.0000
  O   O13       1.0  0.72659  0.3297399999999999  0.40501  1.0000
  O   O14       1.0  0.92315  0.37298  0.41993  1.0000
  O   O15       1.0  0.79732  0.66006  0.07417  1.0000
  O   O16       1.0  0.59901  0.60892  0.087  1.0000
  O   O17       1.0  0.7000099999999999  0.56528  0.54014  1.0000
  O   O18       1.0  0.8550700000000001  0.55318  0.48446  1.0000
  O   O19       1.0  0.77341  0.6702599999999999  0.90501  1.0000
  O   O20       1.0  0.57685  0.62702  0.91993  1.0000
  O   O21       1.0  0.7026800000000001  0.33994  0.57417  1.0000
  O   O22       1.0  0.90099  0.39108  0.587  1.0000
  O   O23       1.0  0.79999  0.43472  0.04014  1.0000
  O   O24       1.0  0.64493  0.44682  0.9844600000000001  1.0000
