data_image0
_chemical_formula_structural       Nd4H36C72O24
_chemical_formula_sum              "Nd4 H36 C72 O24"
_cell_length_a       9.26367064
_cell_length_b       20.73776561
_cell_length_c       14.67511383
_cell_angle_alpha    90.02572713
_cell_angle_beta     105.38069785000002
_cell_angle_gamma    89.99701652000002

_space_group_name_H-M_alt    "P 1"
_space_group_IT_number       1

loop_
  _space_group_symop_operation_xyz
  'x, y, z'

loop_
  _atom_site_type_symbol
  _atom_site_label
  _atom_site_symmetry_multiplicity
  _atom_site_fract_x
  _atom_site_fract_y
  _atom_site_fract_z
  _atom_site_occupancy
  Nd  Nd1       1.0  0.23779710999999998  0.01967137  0.47503719  1.0000
  Nd  Nd2       1.0  0.2623672  0.51988209  0.02507763  1.0000
  Nd  Nd3       1.0  0.7622680499999999  0.98020826  0.5250525000000001  1.0000
  Nd  Nd4       1.0  0.7373143699999999  0.48026569  0.9749837800000002  1.0000
  H   H1        1.0  0.7605651499999998  0.13252482999999998  0.61392028  1.0000
  H   H2        1.0  0.7129216  0.22009554  0.71707755  1.0000
  H   H3        1.0  0.80939971  0.31235221  0.82667719  1.0000
  H   H4        1.0  0.26226459  0.37810377  0.86554219  1.0000
  H   H5        1.0  0.31028116  0.28946464  0.76275155  1.0000
  H   H6        1.0  0.2193580500000001  0.19299087  0.6634543500000002  1.0000
  H   H7        1.0  0.25545989  0.9279472499999999  0.00232373  1.0000
  H   H8        1.0  0.32316453  0.9427596799999999  0.17761594000000006  1.0000
  H   H9        1.0  0.92266807  0.05287266999999999  0.15581970000000006  1.0000
  H   H10       1.0  0.73912176  0.63234432  0.8861110700000002  1.0000
  H   H11       1.0  0.78721058  0.7199287  0.78325528  1.0000
  H   H12       1.0  0.69091569  0.812061  0.67337272  1.0000
  H   H13       1.0  0.23807012000000002  0.87796246  0.63425296  1.0000
  H   H14       1.0  0.18997780000000006  0.7895330199999999  0.7372882800000002  1.0000
  H   H15       1.0  0.28042916  0.69302649  0.83632263  1.0000
  H   H16       1.0  0.24481046  0.42797186  0.49778603  1.0000
  H   H17       1.0  0.1770343  0.44281068  0.32252958  1.0000
  H   H18       1.0  0.57756396  0.55285598  0.3444052100000001  1.0000
  H   H19       1.0  0.23941540999999997  0.86754781  0.38617333  1.0000
  H   H20       1.0  0.28727692999999993  0.7800013599999999  0.28307311  1.0000
  H   H21       1.0  0.19079736999999997  0.68791677  0.17313311  1.0000
  H   H22       1.0  0.73791934  0.62205841  0.1340803  1.0000
  H   H23       1.0  0.69003531  0.71045799  0.23729003  1.0000
  H   H24       1.0  0.78072379  0.8069737099999998  0.33653321  1.0000
  H   H25       1.0  0.74456051  0.0720362  0.99772485  1.0000
  H   H26       1.0  0.67686631  0.05724267  0.82240516  1.0000
  H   H27       1.0  0.07742595  0.9471331799999999  0.84424965  1.0000
  H   H28       1.0  0.26026797  0.36729475  0.11398207000000003  1.0000
  H   H29       1.0  0.21278639  0.27979491  0.2172699  1.0000
  H   H30       1.0  0.30927606  0.18776925999999997  0.32681466  1.0000
  H   H31       1.0  0.76210692  0.12194426999999998  0.3658185000000001  1.0000
  H   H32       1.0  0.81022347  0.21043045  0.26293236  1.0000
  H   H33       1.0  0.71909373  0.30691969  0.16339243000000003  1.0000
  H   H34       1.0  0.75565643  0.57202741  0.5024282  1.0000
  H   H35       1.0  0.8234786300000001  0.5573336499999999  0.6777378900000002  1.0000
  H   H36       1.0  0.4229860600000001  0.44718354  0.6559449300000002  1.0000
  C   C1        1.0  0.99480246  0.15771544  0.63364294  1.0000
  C   C2        1.0  0.8496398999999999  0.16577883999999998  0.6474536000000002  1.0000
  C   C3        1.0  0.82358707  0.21432358  0.70497075  1.0000
  C   C4        1.0  0.93973188  0.25758857  0.75009096  1.0000
  C   C5        1.0  0.91767989  0.30698699  0.8112673000000002  1.0000
  C   C6        1.0  0.032325300000000105  0.34943152  0.8518529700000003  1.0000
  C   C7        1.0  0.17460979999999998  0.3438313499999999  0.83316747  1.0000
  C   C8        1.0  0.2005390800000001  0.29496763  0.7762136600000002  1.0000
  C   C9        1.0  0.0851156000000001  0.25079063  0.7335456200000002  1.0000
  C   C10       1.0  0.1092675400000001  0.19984421999999996  0.6756221200000002  1.0000
  C   C11       1.0  0.02847795000000011  0.10400657  0.5754481900000002  1.0000
  C   C12       1.0  0.0037565400000000764  0.40164178999999994  0.9144599800000002  1.0000
  C   C13       1.0  0.18282151999999996  0.9551339699999999  0.03602739  1.0000
  C   C14       1.0  0.22068240999999997  0.96317581  0.13248235000000005  1.0000
  C   C15       1.0  0.12561535  0.99891093  0.17554571  1.0000
  C   C16       1.0  0.9940387  0.0257461  0.12110284000000003  1.0000
  C   C17       1.0  0.95183419  0.01800686  0.02180776  1.0000
  C   C18       1.0  0.1671316  0.00711411  0.27983416  1.0000
  C   C19       1.0  0.50487944  0.65761835  0.86622168  1.0000
  C   C20       1.0  0.65018814  0.6656492699999998  0.85261181  1.0000
  C   C21       1.0  0.67649487  0.7141949  0.7952358500000002  1.0000
  C   C22       1.0  0.5605185299999998  0.7574867  0.75005073  1.0000
  C   C23       1.0  0.5826438  0.8067698  0.68878966  1.0000
  C   C24       1.0  0.46802758999999994  0.8491777999999999  0.64805438  1.0000
  C   C25       1.0  0.3257106400000001  0.84371249  0.6667316300000002  1.0000
  C   C26       1.0  0.29972611  0.79497372  0.7238037700000002  1.0000
  C   C27       1.0  0.41507799  0.75078433  0.76651429  1.0000
  C   C28       1.0  0.39062787000000004  0.6998436399999999  0.8242882800000002  1.0000
  C   C29       1.0  0.47056239  0.60383479  0.9240269600000002  1.0000
  C   C30       1.0  0.49660648  0.90125015  0.5853369  1.0000
  C   C31       1.0  0.31745974  0.45516811999999995  0.4640613800000001  1.0000
  C   C32       1.0  0.27956245  0.46322990999999997  0.36761045  1.0000
  C   C33       1.0  0.3746248  0.49895977999999996  0.32456091  1.0000
  C   C34       1.0  0.50621533  0.52575144  0.37905376  1.0000
  C   C35       1.0  0.5484784000000001  0.51802053  0.47833803000000014  1.0000
  C   C36       1.0  0.33294842  0.50722366  0.22033937  1.0000
  C   C37       1.0  0.005210100000000058  0.84229756  0.3663865200000001  1.0000
  C   C38       1.0  0.150421  0.83425807  0.35264389  1.0000
  C   C39       1.0  0.17659428  0.78573418  0.29513855  1.0000
  C   C40       1.0  0.060489140000000004  0.74248683  0.24993561  1.0000
  C   C41       1.0  0.08252268000000001  0.69322063  0.18857130000000005  1.0000
  C   C42       1.0  0.96783113  0.65084404  0.14779420000000004  1.0000
  C   C43       1.0  0.8255714  0.65630956  0.16655953  1.0000
  C   C44       1.0  0.79970664  0.70504001  0.22373120000000005  1.0000
  C   C45       1.0  0.9150966199999999  0.74920923  0.26647155  1.0000
  C   C46       1.0  0.8908352999999999  0.80012527  0.32440068  1.0000
  C   C47       1.0  0.9713003899999999  0.89603644  0.42447625  1.0000
  C   C48       1.0  0.99639691  0.59881831  0.0849534  1.0000
  C   C49       1.0  0.81726122  0.04484427  0.96398771  1.0000
  C   C50       1.0  0.7793904  0.03680847  0.86751203  1.0000
  C   C51       1.0  0.87449241  0.00108324  0.8244740000000003  1.0000
  C   C52       1.0  0.006048779999999962  0.9742503799999999  0.87892858  1.0000
  C   C53       1.0  0.0483007700000001  0.9819654399999999  0.9782108300000002  1.0000
  C   C54       1.0  0.83295101  0.9928756199999998  0.72025583  1.0000
  C   C55       1.0  0.4944443  0.34212689999999996  0.13362642  1.0000
  C   C56       1.0  0.34931946  0.33405993  0.14752604  1.0000
  C   C57       1.0  0.32336987  0.2855826  0.20510107  1.0000
  C   C58       1.0  0.4395526799999999  0.24237374999999997  0.2502203  1.0000
  C   C59       1.0  0.41753596  0.193081  0.31144337000000005  1.0000
  C   C60       1.0  0.5321639  0.15067981  0.3520770900000001  1.0000
  C   C61       1.0  0.6744438599999999  0.15620184  0.33340116000000003  1.0000
  C   C62       1.0  0.7004068399999999  0.20498958  0.2763708  1.0000
  C   C63       1.0  0.58493084  0.2491395  0.23363811  1.0000
  C   C64       1.0  0.60898766  0.30004313999999993  0.17561335000000006  1.0000
  C   C65       1.0  0.5278008499999998  0.39582829999999997  0.07535262  1.0000
  C   C66       1.0  0.50348559  0.09859272  0.41471381000000007  1.0000
  C   C67       1.0  0.68305519  0.54487168  0.53615521  1.0000
  C   C68       1.0  0.7209891700000001  0.53689443  0.6326043600000002  1.0000
  C   C69       1.0  0.6258693899999999  0.50116774  0.6756289900000001  1.0000
  C   C70       1.0  0.49430987  0.47428791  0.62120458  1.0000
  C   C71       1.0  0.45205692999999997  0.48200191  0.52190904  1.0000
  C   C72       1.0  0.6672828599999999  0.49301248999999997  0.7798853300000003  1.0000
  O   O1        1.0  0.16366462000000007  0.09619773  0.57213095  1.0000
  O   O2        1.0  0.9226751799999999  0.06726887  0.52997042  1.0000
  O   O3        1.0  0.8906344199999999  0.39630471  0.9479742400000002  1.0000
  O   O4        1.0  0.09205762000000012  0.45012973999999994  0.9316806800000003  1.0000
  O   O5        1.0  0.08385952000000003  0.0413028  0.3190102100000001  1.0000
  O   O6        1.0  0.28565917  0.9795830699999999  0.3302998  1.0000
  O   O7        1.0  0.33507785  0.59590827  0.92663157  1.0000
  O   O8        1.0  0.5761181399999998  0.56711568  0.9699033500000003  1.0000
  O   O9        1.0  0.60978474  0.89587923  0.55190632  1.0000
  O   O10       1.0  0.40824822  0.9497279699999999  0.56789563  1.0000
  O   O11       1.0  0.41656907  0.54117152  0.18114161  1.0000
  O   O12       1.0  0.21397559  0.48002883  0.16982026000000006  1.0000
  O   O13       1.0  0.8359999999999999  0.9038475499999999  0.42755137000000004  1.0000
  O   O14       1.0  0.07701148000000002  0.93277774  0.47006990000000004  1.0000
  O   O15       1.0  0.10962894999999999  0.60422472  0.05155769000000002  1.0000
  O   O16       1.0  0.90802158  0.5503534  0.06740275000000003  1.0000
  O   O17       1.0  0.9162655  0.95873243  0.6810721900000002  1.0000
  O   O18       1.0  0.71436196  0.02032081  0.66974354  1.0000
  O   O19       1.0  0.66291018  0.40383057999999994  0.07195907  1.0000
  O   O20       1.0  0.42164013  0.43238748999999993  0.02996375  1.0000
  O   O21       1.0  0.3903142699999999  0.10398739  0.4481446  1.0000
  O   O22       1.0  0.59166437  0.05005128  0.4321060300000001  1.0000
  O   O23       1.0  0.58409726  0.45864857  0.8188828200000002  1.0000
  O   O24       1.0  0.78546506  0.52071313  0.8304713100000002  1.0000
