data_image0
_chemical_formula_structural       Zn36H160C296O164
_chemical_formula_sum              "Zn36 H160 C296 O164"
_cell_length_a       18.902
_cell_length_b       30.464
_cell_length_c       31.004
_cell_angle_alpha    90.0
_cell_angle_beta     90.0
_cell_angle_gamma    90.0

_symmetry_space_group_name_H-M    'P 1'
_symmetry_Int_Tables_number       1

loop_
  _symmetry_equiv_pos_as_xyz
  'x,y,z'

loop_
  _atom_site_type_symbol
  _atom_site_label
  _atom_site_symmetry_multiplicity
  _atom_site_fract_x
  _atom_site_fract_y
  _atom_site_fract_z
  _atom_site_occupancy
  Zn  Zn1       1.0  0.77172  0.03115  0.5228  1.0000
  Zn  Zn2       1.0  0.8494399999999999  0.94588  0.50661  1.0000
  Zn  Zn3       1.0  0.24479  0.00016  0.96021  1.0000
  Zn  Zn4       1.0  0.34739  0.79933  0.73712  1.0000
  Zn  Zn5       1.0  0.32512  0.00388  0.04468  1.0000
  Zn  Zn6       1.0  0.25318  0.79423  0.64294  1.0000
  Zn  Zn7       1.0  0.30068  0.70856  0.285  1.0000
  Zn  Zn8       1.0  0.3287  0.74406  0.18045  1.0000
  Zn  Zn9       1.0  0.33358999999999994  0.7057  0.67847  1.0000
  Zn  Zn10      1.0  0.27172  0.96885  0.4772  1.0000
  Zn  Zn11      1.0  0.3494399999999999  0.05412  0.49339  1.0000
  Zn  Zn12      1.0  0.74479  0.99984  0.03978999999999999  1.0000
  Zn  Zn13      1.0  0.8473899999999999  0.20067  0.26288  1.0000
  Zn  Zn14      1.0  0.82512  0.99612  0.95532  1.0000
  Zn  Zn15      1.0  0.75318  0.20577  0.35706  1.0000
  Zn  Zn16      1.0  0.80068  0.29144  0.715  1.0000
  Zn  Zn17      1.0  0.8287  0.25594  0.81955  1.0000
  Zn  Zn18      1.0  0.83359  0.29429999999999995  0.32153  1.0000
  Zn  Zn19      1.0  0.77172  0.53115  0.9772  1.0000
  Zn  Zn20      1.0  0.8494399999999999  0.44588  0.99339  1.0000
  Zn  Zn21      1.0  0.24479  0.50016  0.53979  1.0000
  Zn  Zn22      1.0  0.34739  0.29933  0.76288  1.0000
  Zn  Zn23      1.0  0.32512  0.50388  0.45532  1.0000
  Zn  Zn24      1.0  0.25318  0.29423  0.85706  1.0000
  Zn  Zn25      1.0  0.30068  0.20856  0.215  1.0000
  Zn  Zn26      1.0  0.3287  0.24406  0.31955  1.0000
  Zn  Zn27      1.0  0.33358999999999994  0.2057  0.8215300000000001  1.0000
  Zn  Zn28      1.0  0.27172  0.46884999999999993  0.0228  1.0000
  Zn  Zn29      1.0  0.3494399999999999  0.55412  0.00661  1.0000
  Zn  Zn30      1.0  0.74479  0.49984  0.46021  1.0000
  Zn  Zn31      1.0  0.8473899999999999  0.70067  0.23712  1.0000
  Zn  Zn32      1.0  0.82512  0.49612  0.54468  1.0000
  Zn  Zn33      1.0  0.75318  0.70577  0.14294  1.0000
  Zn  Zn34      1.0  0.80068  0.79144  0.785  1.0000
  Zn  Zn35      1.0  0.8287  0.75594  0.68045  1.0000
  Zn  Zn36      1.0  0.83359  0.7943  0.17847  1.0000
  H   H1        1.0  0.4238  0.9995  0.8786  1.0000
  H   H2        1.0  0.6383  0.0013  0.8737  1.0000
  H   H3        1.0  0.537  0.9873  0.9883  1.0000
  H   H4        1.0  0.6224999999999999  0.0277  0.8102  1.0000
  H   H5        1.0  0.6073  0.9783999999999998  0.7982  1.0000
  H   H6        1.0  0.6623999999999999  0.0425  0.7328  1.0000
  H   H7        1.0  0.6164  0.0235  0.6947  1.0000
  H   H8        1.0  0.46609999999999996  0.9887  0.7557000000000001  1.0000
  H   H9        1.0  0.5251  0.9597  0.7338  1.0000
  H   H10       1.0  0.4316999999999999  0.024599999999999997  0.6231  1.0000
  H   H11       1.0  0.30859999999999993  0.9194  0.6039  1.0000
  H   H12       1.0  0.4209  0.9277  0.7132  1.0000
  H   H13       1.0  0.7242  0.9096  0.7473  1.0000
  H   H14       1.0  0.8213999999999998  0.8928  0.6357  1.0000
  H   H15       1.0  0.7095  0.0014  0.6563  1.0000
  H   H16       1.0  0.5649  0.9927999999999999  0.4851  1.0000
  H   H17       1.0  0.4476  0.8888  0.4445  1.0000
  H   H18       1.0  0.6531  0.8729  0.4681  1.0000
  H   H19       1.0  0.6314  0.801  0.434  1.0000
  H   H20       1.0  0.6052  0.8008  0.4822  1.0000
  H   H21       1.0  0.6498  0.7161  0.4339  1.0000
  H   H22       1.0  0.59  0.6875  0.4556  1.0000
  H   H23       1.0  0.459  0.7716  0.4699  1.0000
  H   H24       1.0  0.5095  0.7519  0.5053  1.0000
  H   H25       1.0  0.399  0.6349  0.4684  1.0000
  H   H26       1.0  0.2641  0.6465  0.5661  1.0000
  H   H27       1.0  0.3847999999999999  0.7504  0.5277  1.0000
  H   H28       1.0  0.47089999999999993  0.1457  0.7606  1.0000
  H   H29       1.0  0.5688  0.2617  0.7439000000000001  1.0000
  H   H30       1.0  0.6844  0.1507  0.7716  1.0000
  H   H31       1.0  0.5237  0.0755  0.7219  1.0000
  H   H32       1.0  0.49000000000000005  0.068  0.7678  1.0000
  H   H33       1.0  0.6769  0.6436  0.4769  1.0000
  H   H34       1.0  0.8154999999999998  0.6282  0.5764  1.0000
  H   H35       1.0  0.7101  0.7419  0.5602  1.0000
  H   H36       1.0  0.5597  0.735  0.2083  1.0000
  H   H37       1.0  0.6805  0.7391  0.3137  1.0000
  H   H38       1.0  0.46869999999999995  0.7544  0.3248  1.0000
  H   H39       1.0  0.49649999999999994  0.7732  0.3933  1.0000
  H   H40       1.0  0.5042  0.7218  0.3963  1.0000
  H   H41       1.0  0.9237999999999998  0.0005  0.1214  1.0000
  H   H42       1.0  0.1383  0.9987  0.1263  1.0000
  H   H43       1.0  0.037  0.0127  0.0117  1.0000
  H   H44       1.0  0.12250000000000001  0.9723  0.1898  1.0000
  H   H45       1.0  0.1073  0.0216  0.2018  1.0000
  H   H46       1.0  0.1624  0.9575  0.2672  1.0000
  H   H47       1.0  0.1164  0.9765  0.3053  1.0000
  H   H48       1.0  0.9660999999999998  0.0113  0.2443  1.0000
  H   H49       1.0  0.0251  0.0403  0.2662  1.0000
  H   H50       1.0  0.9317  0.9754  0.3769  1.0000
  H   H51       1.0  0.8086  0.0806  0.3961  1.0000
  H   H52       1.0  0.9209  0.0723  0.2868  1.0000
  H   H53       1.0  0.2242  0.0904  0.2527  1.0000
  H   H54       1.0  0.3214  0.1072  0.3643  1.0000
  H   H55       1.0  0.2095  0.9986  0.3437  1.0000
  H   H56       1.0  0.0649  0.0072  0.5149  1.0000
  H   H57       1.0  0.9475999999999999  0.1112  0.5555  1.0000
  H   H58       1.0  0.1531  0.1271  0.5319  1.0000
  H   H59       1.0  0.1314  0.199  0.566  1.0000
  H   H60       1.0  0.1052  0.1992  0.5178  1.0000
  H   H61       1.0  0.1498  0.2839  0.5661  1.0000
  H   H62       1.0  0.09  0.3125  0.5444  1.0000
  H   H63       1.0  0.9589999999999999  0.2284  0.5301  1.0000
  H   H64       1.0  0.0095  0.2481  0.4947  1.0000
  H   H65       1.0  0.8989999999999999  0.3651  0.5316  1.0000
  H   H66       1.0  0.7641  0.3535  0.4339  1.0000
  H   H67       1.0  0.8848  0.2496  0.4723  1.0000
  H   H68       1.0  0.9709  0.8543  0.2394  1.0000
  H   H69       1.0  0.0688  0.7383  0.2561  1.0000
  H   H70       1.0  0.1844  0.8492999999999999  0.2284  1.0000
  H   H71       1.0  0.0237  0.9245  0.2781  1.0000
  H   H72       1.0  0.99  0.932  0.23219999999999996  1.0000
  H   H73       1.0  0.17689999999999997  0.3564  0.5231  1.0000
  H   H74       1.0  0.3155  0.3718  0.4236  1.0000
  H   H75       1.0  0.2101  0.2581  0.4398  1.0000
  H   H76       1.0  0.059699999999999996  0.265  0.7917  1.0000
  H   H77       1.0  0.1805  0.2609  0.6863  1.0000
  H   H78       1.0  0.9686999999999999  0.2456  0.6752  1.0000
  H   H79       1.0  0.9964999999999999  0.2268  0.6067  1.0000
  H   H80       1.0  0.0042  0.2782  0.6037  1.0000
  H   H81       1.0  0.4238  0.4995  0.6214  1.0000
  H   H82       1.0  0.6383  0.5013  0.6263  1.0000
  H   H83       1.0  0.537  0.4873  0.5117  1.0000
  H   H84       1.0  0.6224999999999999  0.5277  0.6898  1.0000
  H   H85       1.0  0.6073  0.4784  0.7018  1.0000
  H   H86       1.0  0.6623999999999999  0.5425  0.7672  1.0000
  H   H87       1.0  0.6164  0.5235  0.8053  1.0000
  H   H88       1.0  0.46609999999999996  0.4887  0.7443  1.0000
  H   H89       1.0  0.5251  0.4597  0.7662  1.0000
  H   H90       1.0  0.4316999999999999  0.5246  0.8769  1.0000
  H   H91       1.0  0.30859999999999993  0.4194  0.8961  1.0000
  H   H92       1.0  0.4209  0.4277  0.7868  1.0000
  H   H93       1.0  0.7242  0.4096  0.7527  1.0000
  H   H94       1.0  0.8213999999999998  0.3928  0.8643  1.0000
  H   H95       1.0  0.7095  0.5014  0.8437  1.0000
  H   H96       1.0  0.5649  0.4928  0.0149  1.0000
  H   H97       1.0  0.4476  0.3888  0.0555  1.0000
  H   H98       1.0  0.6531  0.3729  0.0319  1.0000
  H   H99       1.0  0.6314  0.301  0.066  1.0000
  H   H100      1.0  0.6052  0.3008  0.0178  1.0000
  H   H101      1.0  0.6498  0.2161  0.0661  1.0000
  H   H102      1.0  0.59  0.1875  0.0444  1.0000
  H   H103      1.0  0.459  0.2716  0.0301  1.0000
  H   H104      1.0  0.5095  0.2519  0.9947  1.0000
  H   H105      1.0  0.399  0.1349  0.0316  1.0000
  H   H106      1.0  0.2641  0.1465  0.9339  1.0000
  H   H107      1.0  0.3847999999999999  0.2504  0.9723  1.0000
  H   H108      1.0  0.47089999999999993  0.6457  0.7394  1.0000
  H   H109      1.0  0.5688  0.7617  0.7561  1.0000
  H   H110      1.0  0.6844  0.6507  0.7284  1.0000
  H   H111      1.0  0.5237  0.5755  0.7781  1.0000
  H   H112      1.0  0.49000000000000005  0.568  0.7322  1.0000
  H   H113      1.0  0.6769  0.1436  0.0231  1.0000
  H   H114      1.0  0.8154999999999998  0.1282  0.9236  1.0000
  H   H115      1.0  0.7101  0.2419  0.9398  1.0000
  H   H116      1.0  0.5597  0.235  0.29169999999999996  1.0000
  H   H117      1.0  0.6805  0.2391  0.1863  1.0000
  H   H118      1.0  0.46869999999999995  0.2544  0.1752  1.0000
  H   H119      1.0  0.49649999999999994  0.2732  0.1067  1.0000
  H   H120      1.0  0.5042  0.2218  0.1037  1.0000
  H   H121      1.0  0.9237999999999998  0.5005  0.3786  1.0000
  H   H122      1.0  0.1383  0.4987  0.3737  1.0000
  H   H123      1.0  0.037  0.5127  0.4883  1.0000
  H   H124      1.0  0.12250000000000001  0.4723  0.3102  1.0000
  H   H125      1.0  0.1073  0.5216  0.2982  1.0000
  H   H126      1.0  0.1624  0.4575  0.2328  1.0000
  H   H127      1.0  0.1164  0.4765  0.1947  1.0000
  H   H128      1.0  0.9660999999999998  0.5113  0.2557  1.0000
  H   H129      1.0  0.0251  0.5403  0.2338  1.0000
  H   H130      1.0  0.9317  0.4754  0.1231  1.0000
  H   H131      1.0  0.8086  0.5806  0.1039  1.0000
  H   H132      1.0  0.9209  0.5723  0.2132  1.0000
  H   H133      1.0  0.2242  0.5904  0.2473  1.0000
  H   H134      1.0  0.3214  0.6072  0.1357  1.0000
  H   H135      1.0  0.2095  0.4986  0.1563  1.0000
  H   H136      1.0  0.0649  0.5072  0.9851  1.0000
  H   H137      1.0  0.9475999999999999  0.6112  0.9445  1.0000
  H   H138      1.0  0.1531  0.6271  0.9681  1.0000
  H   H139      1.0  0.1314  0.699  0.934  1.0000
  H   H140      1.0  0.1052  0.6992  0.9822  1.0000
  H   H141      1.0  0.1498  0.7839  0.9339  1.0000
  H   H142      1.0  0.09  0.8125  0.9556  1.0000
  H   H143      1.0  0.9589999999999999  0.7284  0.9699  1.0000
  H   H144      1.0  0.0095  0.7481  0.0053  1.0000
  H   H145      1.0  0.8989999999999999  0.8651  0.9684  1.0000
  H   H146      1.0  0.7641  0.8535  0.0661  1.0000
  H   H147      1.0  0.8848  0.7496  0.0277  1.0000
  H   H148      1.0  0.9709  0.3543  0.2606  1.0000
  H   H149      1.0  0.0688  0.2383  0.2439  1.0000
  H   H150      1.0  0.1844  0.3493  0.2716  1.0000
  H   H151      1.0  0.0237  0.4245  0.2219  1.0000
  H   H152      1.0  0.99  0.432  0.2678  1.0000
  H   H153      1.0  0.17689999999999997  0.8564  0.9769  1.0000
  H   H154      1.0  0.3155  0.8718  0.07640000000000001  1.0000
  H   H155      1.0  0.2101  0.7581  0.0602  1.0000
  H   H156      1.0  0.059699999999999996  0.7649999999999999  0.7083  1.0000
  H   H157      1.0  0.1805  0.7608999999999999  0.8137  1.0000
  H   H158      1.0  0.9686999999999999  0.7456  0.8248  1.0000
  H   H159      1.0  0.9964999999999999  0.7268  0.8933  1.0000
  H   H160      1.0  0.0042  0.7782  0.8963  1.0000
  C   C1        1.0  0.4024  0.9922  0.9618  1.0000
  C   C2        1.0  0.7649  0.5828  0.5114  1.0000
  C   C3        1.0  0.67  0.9874  0.9561  1.0000
  C   C4        1.0  0.4698  0.993  0.9367  1.0000
  C   C5        1.0  0.4671  0.9972999999999997  0.8927  1.0000
  C   C6        1.0  0.5299  0.9985  0.8698  1.0000
  C   C7        1.0  0.5971  0.9971  0.8896  1.0000
  C   C8        1.0  0.5995  0.9892  0.9337  1.0000
  C   C9        1.0  0.5355  0.9894  0.9584  1.0000
  C   C10       1.0  0.5873  0.0077  0.7988  1.0000
  C   C11       1.0  0.5644  0.022  0.7526  1.0000
  C   C12       1.0  0.6288  0.0199  0.7248  1.0000
  C   C13       1.0  0.5061  0.9892  0.7361  1.0000
  C   C14       1.0  0.43499999999999994  0.9806  0.6727  1.0000
  C   C15       1.0  0.4143  0.9976  0.6323  1.0000
  C   C16       1.0  0.3674  0.9739  0.6057  1.0000
  C   C17       1.0  0.3409  0.9347999999999997  0.6207  1.0000
  C   C18       1.0  0.3614  0.9178  0.6607  1.0000
  C   C19       1.0  0.4075  0.9395  0.6867  1.0000
  C   C20       1.0  0.3341  0.8751999999999999  0.6753  1.0000
  C   C21       1.0  0.7071  0.9561999999999999  0.7032  1.0000
  C   C22       1.0  0.7343  0.9186  0.7193  1.0000
  C   C23       1.0  0.776  0.895  0.6937  1.0000
  C   C24       1.0  0.7922  0.9096  0.6533  1.0000
  C   C25       1.0  0.7662  0.9487999999999999  0.6382  1.0000
  C   C26       1.0  0.7249  0.9737  0.6645  1.0000
  C   C27       1.0  0.8018  0.8503  0.7085  1.0000
  C   C28       1.0  0.7851999999999999  0.9652  0.5929  1.0000
  C   C29       1.0  0.42860000000000004  0.9729  0.4684  1.0000
  C   C30       1.0  0.3448  0.9944  0.5638  1.0000
  C   C31       1.0  0.6909  0.9557  0.4914  1.0000
  C   C32       1.0  0.6205  0.9363  0.4786  1.0000
  C   C33       1.0  0.5612  0.9633  0.478  1.0000
  C   C34       1.0  0.49429999999999996  0.9448  0.46610000000000007  1.0000
  C   C35       1.0  0.49039999999999995  0.9006  0.4537  1.0000
  C   C36       1.0  0.5499999999999999  0.8746  0.4552  1.0000
  C   C37       1.0  0.6137  0.8911  0.4673  1.0000
  C   C38       1.0  0.5902  0.7978999999999999  0.4524  1.0000
  C   C39       1.0  0.5557999999999998  0.7538  0.4454  1.0000
  C   C40       1.0  0.6126  0.7161  0.4555  1.0000
  C   C41       1.0  0.4935999999999999  0.7489  0.4757  1.0000
  C   C42       1.0  0.4043  0.6934  0.4955  1.0000
  C   C43       1.0  0.3795  0.6519  0.4903  1.0000
  C   C44       1.0  0.327  0.6332  0.5155  1.0000
  C   C45       1.0  0.29789999999999994  0.6584999999999999  0.5477  1.0000
  C   C46       1.0  0.3199  0.7036  0.5528  1.0000
  C   C47       1.0  0.37189999999999995  0.7209999999999999  0.5257  1.0000
  C   C48       1.0  0.3029  0.5874  0.51  1.0000
  C   C49       1.0  0.2915  0.7313  0.5892  1.0000
  C   C50       1.0  0.4374  0.2279  0.7524  1.0000
  C   C51       1.0  0.5126  0.1617  0.7592  1.0000
  C   C52       1.0  0.5098  0.206  0.7531  1.0000
  C   C53       1.0  0.5713999999999999  0.232  0.7506  1.0000
  C   C54       1.0  0.6377  0.2113  0.7584  1.0000
  C   C55       1.0  0.7051  0.23709999999999998  0.7601  1.0000
  C   C56       1.0  0.6414  0.1643  0.7656  1.0000
  C   C57       1.0  0.579  0.1398  0.7635  1.0000
  C   C58       1.0  0.5336  0.0668  0.7514  1.0000
  C   C59       1.0  0.69  0.6978  0.5136  1.0000
  C   C60       1.0  0.7013  0.6554  0.5002  1.0000
  C   C61       1.0  0.7531  0.6298  0.524  1.0000
  C   C62       1.0  0.7853  0.6461  0.5604  1.0000
  C   C63       1.0  0.7725999999999998  0.6907  0.5741  1.0000
  C   C64       1.0  0.7226  0.7139999999999999  0.5507  1.0000
  C   C65       1.0  0.8062  0.7077  0.6122  1.0000
  C   C66       1.0  0.4318  0.7454  0.2433  1.0000
  C   C67       1.0  0.5642  0.7387  0.2379  1.0000
  C   C68       1.0  0.6298  0.7387  0.2567  1.0000
  C   C69       1.0  0.6934999999999999  0.7288  0.2307  1.0000
  C   C70       1.0  0.6362  0.7412  0.3007  1.0000
  C   C71       1.0  0.5746  0.7471  0.3263  1.0000
  C   C72       1.0  0.5088  0.7495  0.3081  1.0000
  C   C73       1.0  0.5291  0.7495  0.3997  1.0000
  C   C74       1.0  0.5045  0.7444  0.2634  1.0000
  C   C75       1.0  0.9023999999999999  0.0078  0.038200000000000005  1.0000
  C   C76       1.0  0.2649  0.4172  0.4886  1.0000
  C   C77       1.0  0.17  0.0126  0.0439  1.0000
  C   C78       1.0  0.9697999999999999  0.007  0.0633  1.0000
  C   C79       1.0  0.9670999999999998  0.0027  0.1073  1.0000
  C   C80       1.0  0.0299  0.0015  0.1302  1.0000
  C   C81       1.0  0.0971  0.0029  0.1104  1.0000
  C   C82       1.0  0.0995  0.0108  0.0663  1.0000
  C   C83       1.0  0.0355  0.0106  0.0416  1.0000
  C   C84       1.0  0.0873  0.9923  0.2012  1.0000
  C   C85       1.0  0.06439999999999999  0.978  0.2474  1.0000
  C   C86       1.0  0.12879999999999997  0.9801  0.2752  1.0000
  C   C87       1.0  0.0060999999999999995  0.0108  0.26389999999999997  1.0000
  C   C88       1.0  0.935  0.0194  0.3273  1.0000
  C   C89       1.0  0.9143  0.0024  0.3677  1.0000
  C   C90       1.0  0.8674  0.0261  0.3943  1.0000
  C   C91       1.0  0.8409  0.0652  0.3793  1.0000
  C   C92       1.0  0.8613999999999999  0.0822  0.33930000000000005  1.0000
  C   C93       1.0  0.9075  0.0605  0.3133  1.0000
  C   C94       1.0  0.8341  0.1248  0.3247  1.0000
  C   C95       1.0  0.2071  0.0438  0.2968  1.0000
  C   C96       1.0  0.23429999999999998  0.0814  0.2807  1.0000
  C   C97       1.0  0.276  0.105  0.3063  1.0000
  C   C98       1.0  0.2922  0.0904  0.3467  1.0000
  C   C99       1.0  0.2662  0.0512  0.3618  1.0000
  C   C100      1.0  0.2249  0.0263  0.3355  1.0000
  C   C101      1.0  0.3018  0.1497  0.2915  1.0000
  C   C102      1.0  0.2852  0.0348  0.4071  1.0000
  C   C103      1.0  0.9286  0.0271  0.5316  1.0000
  C   C104      1.0  0.8448  0.0056  0.4362  1.0000
  C   C105      1.0  0.1909  0.0443  0.5086  1.0000
  C   C106      1.0  0.12049999999999998  0.0637  0.5214  1.0000
  C   C107      1.0  0.0612  0.0367  0.522  1.0000
  C   C108      1.0  0.9942999999999999  0.0552  0.5339  1.0000
  C   C109      1.0  0.9903999999999998  0.0994  0.5463  1.0000
  C   C110      1.0  0.04999999999999999  0.1254  0.5448  1.0000
  C   C111      1.0  0.1137  0.1089  0.5327  1.0000
  C   C112      1.0  0.09019999999999999  0.2021  0.5476  1.0000
  C   C113      1.0  0.055799999999999995  0.2462  0.5546  1.0000
  C   C114      1.0  0.1126  0.2839  0.5445  1.0000
  C   C115      1.0  0.9935999999999999  0.2511  0.5243  1.0000
  C   C116      1.0  0.9043  0.3066  0.5045  1.0000
  C   C117      1.0  0.8795  0.3481  0.5097  1.0000
  C   C118      1.0  0.827  0.3668  0.4845  1.0000
  C   C119      1.0  0.7978999999999999  0.3415  0.4523  1.0000
  C   C120      1.0  0.8198999999999999  0.2964  0.4472  1.0000
  C   C121      1.0  0.8719  0.279  0.4743  1.0000
  C   C122      1.0  0.8028999999999998  0.4126  0.49  1.0000
  C   C123      1.0  0.7915  0.2687  0.4108  1.0000
  C   C124      1.0  0.9373999999999999  0.7721  0.2476  1.0000
  C   C125      1.0  0.0126  0.8383  0.2408  1.0000
  C   C126      1.0  0.0098  0.794  0.2469  1.0000
  C   C127      1.0  0.0714  0.768  0.2494  1.0000
  C   C128      1.0  0.1377  0.7887  0.2416  1.0000
  C   C129      1.0  0.2051  0.7629  0.2399  1.0000
  C   C130      1.0  0.1414  0.8357  0.2344  1.0000
  C   C131      1.0  0.079  0.8602  0.2365  1.0000
  C   C132      1.0  0.0336  0.9332  0.2486  1.0000
  C   C133      1.0  0.18999999999999995  0.3022  0.4864  1.0000
  C   C134      1.0  0.20129999999999998  0.3446  0.4998000000000001  1.0000
  C   C135      1.0  0.2531  0.3702  0.476  1.0000
  C   C136      1.0  0.2853  0.3539  0.4396  1.0000
  C   C137      1.0  0.2726  0.3093  0.4259  1.0000
  C   C138      1.0  0.2226  0.286  0.4493  1.0000
  C   C139      1.0  0.3062  0.2923  0.3878  1.0000
  C   C140      1.0  0.9318  0.2546  0.7567  1.0000
  C   C141      1.0  0.0642  0.2613  0.7621  1.0000
  C   C142      1.0  0.1298  0.2613  0.7433  1.0000
  C   C143      1.0  0.1935  0.2712  0.7693  1.0000
  C   C144      1.0  0.1362  0.2588  0.6993  1.0000
  C   C145      1.0  0.0746  0.2529  0.6737  1.0000
  C   C146      1.0  0.0088  0.2505  0.6919  1.0000
  C   C147      1.0  0.0291  0.2505  0.6003  1.0000
  C   C148      1.0  0.0045  0.2556  0.7366  1.0000
  C   C149      1.0  0.4024  0.4922  0.5382  1.0000
  C   C150      1.0  0.7649  0.0828  0.9886  1.0000
  C   C151      1.0  0.67  0.4874  0.5439  1.0000
  C   C152      1.0  0.4698  0.493  0.5633  1.0000
  C   C153      1.0  0.4671  0.4973  0.6073  1.0000
  C   C154      1.0  0.5299  0.4985  0.6302  1.0000
  C   C155      1.0  0.5971  0.4971  0.6104  1.0000
  C   C156      1.0  0.5995  0.4891999999999999  0.5663  1.0000
  C   C157      1.0  0.5355  0.4894  0.5416  1.0000
  C   C158      1.0  0.5873  0.5077  0.7012  1.0000
  C   C159      1.0  0.5644  0.522  0.7474  1.0000
  C   C160      1.0  0.6288  0.5199  0.7752  1.0000
  C   C161      1.0  0.5061  0.4891999999999999  0.7639  1.0000
  C   C162      1.0  0.43499999999999994  0.4806  0.8272999999999999  1.0000
  C   C163      1.0  0.4143  0.4976  0.8677  1.0000
  C   C164      1.0  0.3674  0.4739  0.8943  1.0000
  C   C165      1.0  0.3409  0.4348  0.8793  1.0000
  C   C166      1.0  0.3614  0.4178  0.8393  1.0000
  C   C167      1.0  0.4075  0.4395  0.8133  1.0000
  C   C168      1.0  0.3341  0.3752  0.8247  1.0000
  C   C169      1.0  0.7071  0.4562  0.7968  1.0000
  C   C170      1.0  0.7343  0.4186  0.7807  1.0000
  C   C171      1.0  0.776  0.395  0.8063  1.0000
  C   C172      1.0  0.7922  0.4096  0.8467  1.0000
  C   C173      1.0  0.7662  0.4488  0.8618  1.0000
  C   C174      1.0  0.7249  0.4737  0.8355  1.0000
  C   C175      1.0  0.8018  0.3503  0.7915  1.0000
  C   C176      1.0  0.7851999999999999  0.4652  0.9071  1.0000
  C   C177      1.0  0.42860000000000004  0.4729  0.0316  1.0000
  C   C178      1.0  0.3448  0.4944  0.9362  1.0000
  C   C179      1.0  0.6909  0.4557  0.0086  1.0000
  C   C180      1.0  0.6205  0.4363  0.0214  1.0000
  C   C181      1.0  0.5612  0.4633  0.022  1.0000
  C   C182      1.0  0.49429999999999996  0.4448  0.0339  1.0000
  C   C183      1.0  0.49039999999999995  0.4006  0.0463  1.0000
  C   C184      1.0  0.5499999999999999  0.3746  0.0448  1.0000
  C   C185      1.0  0.6137  0.3911  0.0327  1.0000
  C   C186      1.0  0.5902  0.2979  0.0476  1.0000
  C   C187      1.0  0.5557999999999998  0.2538  0.0546  1.0000
  C   C188      1.0  0.6126  0.2161  0.0445  1.0000
  C   C189      1.0  0.4935999999999999  0.2489  0.0243  1.0000
  C   C190      1.0  0.4043  0.1934  0.0045  1.0000
  C   C191      1.0  0.3795  0.1519  0.0097  1.0000
  C   C192      1.0  0.327  0.1332  0.9845  1.0000
  C   C193      1.0  0.29789999999999994  0.1585  0.9523  1.0000
  C   C194      1.0  0.3199  0.2036  0.9472  1.0000
  C   C195      1.0  0.37189999999999995  0.221  0.9743  1.0000
  C   C196      1.0  0.3029  0.0874  0.99  1.0000
  C   C197      1.0  0.2915  0.2313  0.9108  1.0000
  C   C198      1.0  0.4374  0.7279  0.7476  1.0000
  C   C199      1.0  0.5126  0.6617  0.7408  1.0000
  C   C200      1.0  0.5098  0.706  0.7469  1.0000
  C   C201      1.0  0.5713999999999999  0.732  0.7494  1.0000
  C   C202      1.0  0.6377  0.7113  0.7416  1.0000
  C   C203      1.0  0.7051  0.7371  0.7399  1.0000
  C   C204      1.0  0.6414  0.6643  0.7344  1.0000
  C   C205      1.0  0.579  0.6398  0.7365  1.0000
  C   C206      1.0  0.5336  0.5667999999999999  0.7486  1.0000
  C   C207      1.0  0.69  0.1978  0.9864  1.0000
  C   C208      1.0  0.7013  0.1554  0.9998  1.0000
  C   C209      1.0  0.7531  0.1298  0.976  1.0000
  C   C210      1.0  0.7853  0.1461  0.9396  1.0000
  C   C211      1.0  0.7725999999999998  0.1907  0.9259  1.0000
  C   C212      1.0  0.7226  0.214  0.9493  1.0000
  C   C213      1.0  0.8062  0.2077  0.8878  1.0000
  C   C214      1.0  0.4318  0.2454  0.2567  1.0000
  C   C215      1.0  0.5642  0.2387  0.2621  1.0000
  C   C216      1.0  0.6298  0.2387  0.2433  1.0000
  C   C217      1.0  0.6934999999999999  0.2288  0.2693  1.0000
  C   C218      1.0  0.6362  0.2412  0.1993  1.0000
  C   C219      1.0  0.5746  0.2471  0.1737  1.0000
  C   C220      1.0  0.5088  0.2495  0.1919  1.0000
  C   C221      1.0  0.5291  0.2495  0.1003  1.0000
  C   C222      1.0  0.5045  0.2444  0.2366  1.0000
  C   C223      1.0  0.9023999999999999  0.5078  0.4618  1.0000
  C   C224      1.0  0.2649  0.9172  0.0114  1.0000
  C   C225      1.0  0.17  0.5126  0.4561  1.0000
  C   C226      1.0  0.9697999999999999  0.507  0.4367  1.0000
  C   C227      1.0  0.9670999999999998  0.5027  0.3927  1.0000
  C   C228      1.0  0.0299  0.5015  0.3698  1.0000
  C   C229      1.0  0.0971  0.5029  0.3896  1.0000
  C   C230      1.0  0.0995  0.5108  0.4337  1.0000
  C   C231      1.0  0.0355  0.5106  0.4584  1.0000
  C   C232      1.0  0.0873  0.4923  0.2988  1.0000
  C   C233      1.0  0.06439999999999999  0.478  0.2526  1.0000
  C   C234      1.0  0.12879999999999997  0.4801  0.2248  1.0000
  C   C235      1.0  0.0060999999999999995  0.5108  0.2361  1.0000
  C   C236      1.0  0.935  0.5194  0.1727  1.0000
  C   C237      1.0  0.9143  0.5024  0.1323  1.0000
  C   C238      1.0  0.8674  0.5260999999999999  0.1057  1.0000
  C   C239      1.0  0.8409  0.5652  0.1207  1.0000
  C   C240      1.0  0.8613999999999999  0.5822  0.1607  1.0000
  C   C241      1.0  0.9075  0.5605  0.1867  1.0000
  C   C242      1.0  0.8341  0.6248  0.1753  1.0000
  C   C243      1.0  0.2071  0.5438  0.2032  1.0000
  C   C244      1.0  0.23429999999999998  0.5814  0.2193  1.0000
  C   C245      1.0  0.276  0.605  0.1937  1.0000
  C   C246      1.0  0.2922  0.5904  0.1533  1.0000
  C   C247      1.0  0.2662  0.5512  0.1382  1.0000
  C   C248      1.0  0.2249  0.5263  0.1645  1.0000
  C   C249      1.0  0.3018  0.6497  0.2085  1.0000
  C   C250      1.0  0.2852  0.5348  0.0929  1.0000
  C   C251      1.0  0.9286  0.5271  0.9684  1.0000
  C   C252      1.0  0.8448  0.5056  0.0638  1.0000
  C   C253      1.0  0.1909  0.5443  0.9914  1.0000
  C   C254      1.0  0.12049999999999998  0.5637  0.9786  1.0000
  C   C255      1.0  0.0612  0.5367  0.978  1.0000
  C   C256      1.0  0.9942999999999999  0.5552  0.9661  1.0000
  C   C257      1.0  0.9903999999999998  0.5994  0.9537  1.0000
  C   C258      1.0  0.04999999999999999  0.6254  0.9552  1.0000
  C   C259      1.0  0.1137  0.6089  0.9673  1.0000
  C   C260      1.0  0.09019999999999999  0.7021  0.9523999999999999  1.0000
  C   C261      1.0  0.055799999999999995  0.7462  0.9454  1.0000
  C   C262      1.0  0.1126  0.7839  0.9555  1.0000
  C   C263      1.0  0.9935999999999999  0.7511  0.9757  1.0000
  C   C264      1.0  0.9043  0.8066  0.9955  1.0000
  C   C265      1.0  0.8795  0.8481  0.9903  1.0000
  C   C266      1.0  0.827  0.8668  0.015500000000000002  1.0000
  C   C267      1.0  0.7978999999999999  0.8415  0.0477  1.0000
  C   C268      1.0  0.8198999999999999  0.7964  0.0528  1.0000
  C   C269      1.0  0.8719  0.779  0.0257  1.0000
  C   C270      1.0  0.8028999999999998  0.9125999999999999  0.01  1.0000
  C   C271      1.0  0.7915  0.7686999999999999  0.0892  1.0000
  C   C272      1.0  0.9373999999999999  0.27209999999999995  0.2524  1.0000
  C   C273      1.0  0.0126  0.33830000000000005  0.2592  1.0000
  C   C274      1.0  0.0098  0.294  0.2531  1.0000
  C   C275      1.0  0.0714  0.268  0.2506  1.0000
  C   C276      1.0  0.1377  0.2887  0.2584  1.0000
  C   C277      1.0  0.2051  0.2629  0.2601  1.0000
  C   C278      1.0  0.1414  0.3357  0.2656  1.0000
  C   C279      1.0  0.079  0.3602  0.2635  1.0000
  C   C280      1.0  0.0336  0.4332  0.2514  1.0000
  C   C281      1.0  0.18999999999999995  0.8022  0.0136  1.0000
  C   C282      1.0  0.20129999999999998  0.8446  0.0002  1.0000
  C   C283      1.0  0.2531  0.8702  0.024  1.0000
  C   C284      1.0  0.2853  0.8539  0.0604  1.0000
  C   C285      1.0  0.2726  0.8093  0.0741  1.0000
  C   C286      1.0  0.2226  0.786  0.0507  1.0000
  C   C287      1.0  0.3062  0.7923  0.1122  1.0000
  C   C288      1.0  0.9318  0.7546  0.7433  1.0000
  C   C289      1.0  0.0642  0.7612999999999999  0.7379  1.0000
  C   C290      1.0  0.1298  0.7612999999999999  0.7567  1.0000
  C   C291      1.0  0.1935  0.7712  0.7307  1.0000
  C   C292      1.0  0.1362  0.7588  0.8007  1.0000
  C   C293      1.0  0.0746  0.7529  0.8263  1.0000
  C   C294      1.0  0.0088  0.7505  0.8081  1.0000
  C   C295      1.0  0.0291  0.7505  0.8997  1.0000
  C   C296      1.0  0.0045  0.7556  0.7634  1.0000
  O   O1        1.0  0.4093  0.99433  0.00264  1.0000
  O   O2        1.0  0.3465  0.99129  0.94101  1.0000
  O   O3        1.0  0.7229999999999999  0.98908  0.93289  1.0000
  O   O4        1.0  0.667  0.98727  0.99825  1.0000
  O   O5        1.0  0.8046  0.5615  0.53819  1.0000
  O   O6        1.0  0.7362  0.56667  0.47883  1.0000
  O   O7        1.0  0.355  0.85922  0.71095  1.0000
  O   O8        1.0  0.2875  0.85626  0.65194  1.0000
  O   O9        1.0  0.263  0.71217  0.61983  1.0000
  O   O10       1.0  0.2923  0.7712  0.58515  1.0000
  O   O11       1.0  0.385  0.2051  0.76011  1.0000
  O   O12       1.0  0.43589999999999995  0.26839999999999997  0.74716  1.0000
  O   O13       1.0  0.2712  0.5673  0.53868  1.0000
  O   O14       1.0  0.3265  0.56835  0.4744  1.0000
  O   O15       1.0  0.38039999999999996  0.74595  0.26848  1.0000
  O   O16       1.0  0.4276  0.74768  0.20232  1.0000
  O   O17       1.0  0.7516  0.72248  0.25162  1.0000
  O   O18       1.0  0.6885  0.72479  0.1898  1.0000
  O   O19       1.0  0.8413  0.6843999999999999  0.6381  1.0000
  O   O20       1.0  0.801  0.7492  0.61989  1.0000
  O   O21       1.0  0.8053  0.8447  0.7521  1.0000
  O   O22       1.0  0.8140999999999999  0.81996  0.6822699999999999  1.0000
  O   O23       1.0  0.7582  0.00116  0.58139  1.0000
  O   O24       1.0  0.8242  0.94004  0.57099  1.0000
  O   O25       1.0  0.6894  0.99605  0.50041  1.0000
  O   O26       1.0  0.7439  0.93079  0.49193  1.0000
  O   O27       1.0  0.371  0.95237  0.45991  1.0000
  O   O28       1.0  0.4352  0.01317  0.47794  1.0000
  O   O29       1.0  0.3103  0.96608  0.5394  1.0000
  O   O30       1.0  0.3629  0.03159  0.55468  1.0000
  O   O31       1.0  0.5875  0.096  0.77065  1.0000
  O   O32       1.0  0.4617  0.70603  0.46951  1.0000
  O   O33       1.0  0.6401999999999999  0.72592  0.49623  1.0000
  O   O34       1.0  0.5381  0.83158  0.44204  1.0000
  O   O35       1.0  0.5882  0.75117  0.37091  1.0000
  O   O36       1.0  0.6584  0.9758  0.7326  1.0000
  O   O37       1.0  0.4847  0.00531  0.69392  1.0000
  O   O38       1.0  0.5213  0.00868  0.82579  1.0000
  O   O39       1.0  0.7503999999999998  0.22708  0.78817  1.0000
  O   O40       1.0  0.7134999999999999  0.2654  0.7323  1.0000
  O   O41       1.0  0.3437  0.77021  0.67483  1.0000
  O   O42       1.0  0.9093  0.00567  0.99736  1.0000
  O   O43       1.0  0.8464999999999999  0.008709999999999999  0.05899  1.0000
  O   O44       1.0  0.22300000000000003  0.01092  0.06711  1.0000
  O   O45       1.0  0.167  0.01273  0.00175  1.0000
  O   O46       1.0  0.3046  0.4385  0.46181  1.0000
  O   O47       1.0  0.2362  0.43333  0.52117  1.0000
  O   O48       1.0  0.855  0.14078  0.28905  1.0000
  O   O49       1.0  0.7875  0.14373999999999998  0.34806  1.0000
  O   O50       1.0  0.7629999999999999  0.28783  0.38017  1.0000
  O   O51       1.0  0.7923  0.2288  0.41485  1.0000
  O   O52       1.0  0.885  0.7949  0.23989  1.0000
  O   O53       1.0  0.9359  0.7316  0.25284  1.0000
  O   O54       1.0  0.7711999999999999  0.4327  0.46132  1.0000
  O   O55       1.0  0.8265  0.43165  0.5256  1.0000
  O   O56       1.0  0.8803999999999998  0.25405  0.73152  1.0000
  O   O57       1.0  0.9276  0.25232  0.79768  1.0000
  O   O58       1.0  0.2516  0.27752  0.74838  1.0000
  O   O59       1.0  0.1885  0.27521  0.8102  1.0000
  O   O60       1.0  0.3413  0.3156  0.3619  1.0000
  O   O61       1.0  0.301  0.2508  0.38011  1.0000
  O   O62       1.0  0.3053  0.1553  0.2479  1.0000
  O   O63       1.0  0.3141  0.18004  0.31773  1.0000
  O   O64       1.0  0.2582  0.99884  0.41861  1.0000
  O   O65       1.0  0.3242  0.05996  0.42901  1.0000
  O   O66       1.0  0.1894  0.00395  0.49959  1.0000
  O   O67       1.0  0.2439  0.06921  0.50807  1.0000
  O   O68       1.0  0.8709999999999999  0.04763  0.54009  1.0000
  O   O69       1.0  0.9352  0.98683  0.52206  1.0000
  O   O70       1.0  0.8103  0.03392  0.4606  1.0000
  O   O71       1.0  0.8628999999999999  0.96841  0.44532  1.0000
  O   O72       1.0  0.0875  0.904  0.22935  1.0000
  O   O73       1.0  0.9616999999999999  0.29397  0.53049  1.0000
  O   O74       1.0  0.1402  0.27408  0.50377  1.0000
  O   O75       1.0  0.0381  0.16842  0.5579599999999999  1.0000
  O   O76       1.0  0.0882  0.24883  0.62909  1.0000
  O   O77       1.0  0.15839999999999999  0.0242  0.2674  1.0000
  O   O78       1.0  0.9846999999999999  0.99469  0.30608  1.0000
  O   O79       1.0  0.021299999999999996  0.99132  0.17421  1.0000
  O   O80       1.0  0.2504  0.77292  0.21183  1.0000
  O   O81       1.0  0.21349999999999997  0.7346  0.2677  1.0000
  O   O82       1.0  0.8436999999999999  0.22979  0.32517  1.0000
  O   O83       1.0  0.4093  0.49433  0.49736  1.0000
  O   O84       1.0  0.3465  0.49129  0.55899  1.0000
  O   O85       1.0  0.7229999999999999  0.48908  0.56711  1.0000
  O   O86       1.0  0.667  0.48727  0.50175  1.0000
  O   O87       1.0  0.8046  0.0615  0.96181  1.0000
  O   O88       1.0  0.7362  0.06667  0.02117  1.0000
  O   O89       1.0  0.355  0.35922  0.78905  1.0000
  O   O90       1.0  0.2875  0.35626  0.84806  1.0000
  O   O91       1.0  0.263  0.21217  0.88017  1.0000
  O   O92       1.0  0.2923  0.2712  0.91485  1.0000
  O   O93       1.0  0.385  0.7051  0.73989  1.0000
  O   O94       1.0  0.43589999999999995  0.7684  0.75284  1.0000
  O   O95       1.0  0.2712  0.0673  0.9613200000000001  1.0000
  O   O96       1.0  0.3265  0.06835  0.0256  1.0000
  O   O97       1.0  0.38039999999999996  0.24595  0.23152  1.0000
  O   O98       1.0  0.4276  0.24768  0.29768  1.0000
  O   O99       1.0  0.7516  0.22248  0.24838  1.0000
  O   O100      1.0  0.6885  0.22479  0.3102  1.0000
  O   O101      1.0  0.8413  0.1844  0.8619  1.0000
  O   O102      1.0  0.801  0.2492  0.88011  1.0000
  O   O103      1.0  0.8053  0.3447  0.7479  1.0000
  O   O104      1.0  0.8140999999999999  0.31996  0.81773  1.0000
  O   O105      1.0  0.7582  0.50116  0.91861  1.0000
  O   O106      1.0  0.8242  0.44004  0.92901  1.0000
  O   O107      1.0  0.6894  0.49605  0.99959  1.0000
  O   O108      1.0  0.7439  0.43079  0.00807  1.0000
  O   O109      1.0  0.371  0.45237  0.04009  1.0000
  O   O110      1.0  0.4352  0.51317  0.02206  1.0000
  O   O111      1.0  0.3103  0.46608  0.9606  1.0000
  O   O112      1.0  0.3629  0.53159  0.94532  1.0000
  O   O113      1.0  0.5875  0.5959999999999999  0.72935  1.0000
  O   O114      1.0  0.4617  0.20603  0.03049  1.0000
  O   O115      1.0  0.6401999999999999  0.22592  0.00377  1.0000
  O   O116      1.0  0.5381  0.33158  0.05796  1.0000
  O   O117      1.0  0.5882  0.25117  0.12909  1.0000
  O   O118      1.0  0.6584  0.4758  0.7674  1.0000
  O   O119      1.0  0.4847  0.50531  0.80608  1.0000
  O   O120      1.0  0.5213  0.50868  0.67421  1.0000
  O   O121      1.0  0.7503999999999998  0.72708  0.71183  1.0000
  O   O122      1.0  0.7134999999999999  0.7653999999999999  0.7677  1.0000
  O   O123      1.0  0.3437  0.27021  0.82517  1.0000
  O   O124      1.0  0.9093  0.50567  0.50264  1.0000
  O   O125      1.0  0.8464999999999999  0.50871  0.44101  1.0000
  O   O126      1.0  0.22300000000000003  0.51092  0.43289  1.0000
  O   O127      1.0  0.167  0.51273  0.49825  1.0000
  O   O128      1.0  0.3046  0.9385  0.03819  1.0000
  O   O129      1.0  0.2362  0.93333  0.97883  1.0000
  O   O130      1.0  0.855  0.64078  0.21095  1.0000
  O   O131      1.0  0.7875  0.64374  0.15194  1.0000
  O   O132      1.0  0.7629999999999999  0.78783  0.11983  1.0000
  O   O133      1.0  0.7923  0.7288  0.08515  1.0000
  O   O134      1.0  0.885  0.2949  0.26011  1.0000
  O   O135      1.0  0.9359  0.2316  0.24716  1.0000
  O   O136      1.0  0.7711999999999999  0.9327  0.03868  1.0000
  O   O137      1.0  0.8265  0.93165  0.9744  1.0000
  O   O138      1.0  0.8803999999999998  0.75405  0.76848  1.0000
  O   O139      1.0  0.9276  0.75232  0.70232  1.0000
  O   O140      1.0  0.2516  0.77752  0.75162  1.0000
  O   O141      1.0  0.1885  0.77521  0.6898  1.0000
  O   O142      1.0  0.3413  0.8156  0.1381  1.0000
  O   O143      1.0  0.301  0.7508  0.11989  1.0000
  O   O144      1.0  0.3053  0.6553  0.2521  1.0000
  O   O145      1.0  0.3141  0.68004  0.18227  1.0000
  O   O146      1.0  0.2582  0.49884  0.08139  1.0000
  O   O147      1.0  0.3242  0.55996  0.07099  1.0000
  O   O148      1.0  0.1894  0.50395  0.00041  1.0000
  O   O149      1.0  0.2439  0.56921  0.99193  1.0000
  O   O150      1.0  0.8709999999999999  0.54763  0.95991  1.0000
  O   O151      1.0  0.9352  0.48683  0.97794  1.0000
  O   O152      1.0  0.8103  0.53392  0.0394  1.0000
  O   O153      1.0  0.8628999999999999  0.46841  0.05468  1.0000
  O   O154      1.0  0.0875  0.404  0.27065  1.0000
  O   O155      1.0  0.9616999999999999  0.79397  0.96951  1.0000
  O   O156      1.0  0.1402  0.77408  0.99623  1.0000
  O   O157      1.0  0.0381  0.66842  0.94204  1.0000
  O   O158      1.0  0.0882  0.74883  0.87091  1.0000
  O   O159      1.0  0.15839999999999999  0.5242  0.2326  1.0000
  O   O160      1.0  0.9846999999999999  0.49469  0.19392  1.0000
  O   O161      1.0  0.021299999999999996  0.49132  0.3257900000000001  1.0000
  O   O162      1.0  0.2504  0.27292  0.28817  1.0000
  O   O163      1.0  0.21349999999999997  0.2346  0.2323  1.0000
  O   O164      1.0  0.8436999999999999  0.72979  0.17483  1.0000
