data_image0
_chemical_formula_structural       Tb16H16C80N32O64
_chemical_formula_sum              "Tb16 H16 C80 N32 O64"
_cell_length_a       16.047
_cell_length_b       16.3995
_cell_length_c       16.3995
_cell_angle_alpha    76.1507
_cell_angle_beta     60.7085
_cell_angle_gamma    60.7084

_space_group_name_H-M_alt    "P 1"
_space_group_IT_number       1

loop_
  _space_group_symop_operation_xyz
  'x, y, z'

loop_
  _atom_site_type_symbol
  _atom_site_label
  _atom_site_symmetry_multiplicity
  _atom_site_fract_x
  _atom_site_fract_y
  _atom_site_fract_z
  _atom_site_occupancy
  Tb  Tb1       1.0  0.20389000000000013  0.3793699999999999  0.53309  1.0000
  Tb  Tb2       1.0  0.011810000000000036  0.11327999999999998  0.52442  1.0000
  Tb  Tb3       1.0  0.6163499999999998  0.12062999999999997  0.96691  1.0000
  Tb  Tb4       1.0  0.14951000000000014  0.3867199999999999  0.9755799999999998  1.0000
  Tb  Tb5       1.0  0.7369799999999999  0.4669099999999999  0.87937  1.0000
  Tb  Tb6       1.0  0.53623  0.47558  0.61328  1.0000
  Tb  Tb7       1.0  0.5832599999999999  0.033089999999999994  0.62063  1.0000
  Tb  Tb8       1.0  0.12509000000000017  0.02442  0.8867199999999997  1.0000
  Tb  Tb9       1.0  0.7961100000000004  0.62063  0.4669099999999999  1.0000
  Tb  Tb10      1.0  0.9881900000000001  0.88672  0.4755799999999999  1.0000
  Tb  Tb11      1.0  0.38365000000000016  0.8793699999999998  0.033089999999999994  1.0000
  Tb  Tb12      1.0  0.8504900000000001  0.6132799999999998  0.024419999999999994  1.0000
  Tb  Tb13      1.0  0.2630199999999999  0.53309  0.12062999999999997  1.0000
  Tb  Tb14      1.0  0.46377  0.52442  0.38672  1.0000
  Tb  Tb15      1.0  0.4167399999999999  0.96691  0.37937  1.0000
  Tb  Tb16      1.0  0.87491  0.97558  0.11327999999999999  1.0000
  H   H1        1.0  0.8052000000000004  0.24999999999999994  0.7521999999999998  1.0000
  H   H2        1.0  0.08150000000000014  0.3989  0.7820999999999999  1.0000
  H   H3        1.0  0.30740000000000006  0.24999999999999994  0.7477999999999998  1.0000
  H   H4        1.0  0.7625000000000002  0.10109999999999998  0.7178999999999998  1.0000
  H   H5        1.0  0.5574  0.24779999999999994  0.75  1.0000
  H   H6        1.0  0.8636000000000001  0.2179  0.8988999999999998  1.0000
  H   H7        1.0  0.05520000000000003  0.2522  0.75  1.0000
  H   H8        1.0  0.48040000000000016  0.2821  0.6010999999999999  1.0000
  H   H9        1.0  0.1948000000000001  0.7499999999999999  0.2478  1.0000
  H   H10       1.0  0.9185000000000006  0.6011  0.21789999999999995  1.0000
  H   H11       1.0  0.6926000000000002  0.7499999999999999  0.2522  1.0000
  H   H12       1.0  0.2375  0.8989  0.2821  1.0000
  H   H13       1.0  0.4426000000000001  0.7522  0.24999999999999994  1.0000
  H   H14       1.0  0.13640000000000016  0.7820999999999998  0.10109999999999997  1.0000
  H   H15       1.0  0.9448  0.7478  0.24999999999999994  1.0000
  H   H16       1.0  0.5196  0.7179  0.39889999999999987  1.0000
  C   C1        1.0  0.8525999999999999  0.276  0.7168  1.0000
  C   C2        1.0  0.9844  0.2966  0.6064  1.0000
  C   C3        1.0  0.9249000000000002  0.3676999999999999  0.6716999999999999  1.0000
  C   C4        1.0  0.07859999999999998  0.2753  0.5151  1.0000
  C   C5        1.0  0.9370000000000003  0.4489  0.6788999999999997  1.0000
  C   C6        1.0  0.13770000000000002  0.41439999999999994  0.759  1.0000
  C   C7        1.0  0.2704  0.4433999999999999  0.6638  1.0000
  C   C8        1.0  0.2498000000000001  0.4524999999999999  0.7540999999999998  1.0000
  C   C9        1.0  0.34710000000000013  0.4546999999999999  0.5694999999999998  1.0000
  C   C10       1.0  0.3058000000000003  0.46999999999999986  0.7935999999999998  1.0000
  C   C11       1.0  0.3454  0.224  0.7832  1.0000
  C   C12       1.0  0.3874  0.20339999999999994  0.8936  1.0000
  C   C13       1.0  0.46430000000000027  0.1323  0.8282999999999998  1.0000
  C   C14       1.0  0.36900000000000005  0.22469999999999996  0.9849  1.0000
  C   C15       1.0  0.5648000000000002  0.0511  0.8210999999999999  1.0000
  C   C16       1.0  0.8111  0.08559999999999997  0.741  1.0000
  C   C17       1.0  0.8775999999999999  0.056599999999999984  0.8362  1.0000
  C   C18       1.0  0.9564  0.047499999999999994  0.7458999999999998  1.0000
  C   C19       1.0  0.8713000000000002  0.045299999999999986  0.9304999999999998  1.0000
  C   C20       1.0  0.06940000000000003  0.029999999999999992  0.7063999999999999  1.0000
  C   C21       1.0  0.5694000000000002  0.2832  0.7759999999999998  1.0000
  C   C22       1.0  0.5908000000000002  0.3936  0.7965999999999998  1.0000
  C   C23       1.0  0.5966000000000001  0.32829999999999987  0.8676999999999998  1.0000
  C   C24       1.0  0.5937000000000001  0.4849  0.7752999999999998  1.0000
  C   C25       1.0  0.6159000000000003  0.3210999999999999  0.9488999999999997  1.0000
  C   C26       1.0  0.8967000000000002  0.241  0.9143999999999999  1.0000
  C   C27       1.0  0.9342  0.33619999999999994  0.9433999999999998  1.0000
  C   C28       1.0  0.003899999999999987  0.2459  0.9525  1.0000
  C   C29       1.0  0.9166  0.4305  0.9546999999999998  1.0000
  C   C30       1.0  0.09940000000000015  0.20639999999999994  0.9699999999999998  1.0000
  C   C31       1.0  0.1286000000000001  0.2168  0.7239999999999999  1.0000
  C   C32       1.0  0.28100000000000014  0.10639999999999997  0.7033999999999998  1.0000
  C   C33       1.0  0.2926  0.1717  0.6322999999999999  1.0000
  C   C34       1.0  0.35390000000000005  0.015099999999999997  0.7247  1.0000
  C   C35       1.0  0.3859000000000001  0.1789  0.5511  1.0000
  C   C36       1.0  0.5521000000000005  0.25899999999999995  0.5855999999999998  1.0000
  C   C37       1.0  0.7138  0.1638  0.5566  1.0000
  C   C38       1.0  0.7023000000000001  0.2541  0.5475  1.0000
  C   C39       1.0  0.8018000000000001  0.0695  0.5453  1.0000
  C   C40       1.0  0.7758000000000004  0.2935999999999999  0.5299999999999998  1.0000
  C   C41       1.0  0.14739999999999995  0.724  0.2831999999999999  1.0000
  C   C42       1.0  0.015600000000000003  0.7034  0.39359999999999995  1.0000
  C   C43       1.0  0.07510000000000003  0.6323  0.32829999999999987  1.0000
  C   C44       1.0  0.9214000000000001  0.7247  0.48489999999999994  1.0000
  C   C45       1.0  0.06300000000000006  0.5511  0.3210999999999999  1.0000
  C   C46       1.0  0.8623000000000001  0.5856  0.24099999999999994  1.0000
  C   C47       1.0  0.7295999999999999  0.5566  0.3362  1.0000
  C   C48       1.0  0.7502000000000001  0.5475  0.24589999999999995  1.0000
  C   C49       1.0  0.6529000000000005  0.5453  0.4304999999999999  1.0000
  C   C50       1.0  0.6942  0.53  0.20639999999999994  1.0000
  C   C51       1.0  0.6546  0.776  0.21679999999999996  1.0000
  C   C52       1.0  0.6126000000000001  0.7966  0.10639999999999998  1.0000
  C   C53       1.0  0.5357000000000005  0.8676999999999998  0.1717  1.0000
  C   C54       1.0  0.631  0.7752999999999999  0.015099999999999997  1.0000
  C   C55       1.0  0.43520000000000003  0.9489  0.1789  1.0000
  C   C56       1.0  0.18890000000000018  0.9143999999999998  0.259  1.0000
  C   C57       1.0  0.12240000000000005  0.9434  0.1638  1.0000
  C   C58       1.0  0.04359999999999987  0.9525  0.2541  1.0000
  C   C59       1.0  0.12870000000000012  0.9546999999999998  0.0695  1.0000
  C   C60       1.0  0.9306000000000001  0.9699999999999998  0.2936  1.0000
  C   C61       1.0  0.4306000000000001  0.7167999999999999  0.224  1.0000
  C   C62       1.0  0.4092  0.6064  0.2034  1.0000
  C   C63       1.0  0.4034  0.6717  0.13229999999999997  1.0000
  C   C64       1.0  0.40630000000000016  0.5151  0.22469999999999996  1.0000
  C   C65       1.0  0.38410000000000005  0.6788999999999998  0.05109999999999999  1.0000
  C   C66       1.0  0.10329999999999996  0.759  0.0856  1.0000
  C   C67       1.0  0.0658  0.6638  0.056599999999999984  1.0000
  C   C68       1.0  0.9961  0.7541  0.04749999999999999  1.0000
  C   C69       1.0  0.08339999999999999  0.5695  0.045299999999999986  1.0000
  C   C70       1.0  0.9006000000000001  0.7935999999999998  0.03  1.0000
  C   C71       1.0  0.8714  0.7832  0.27599999999999997  1.0000
  C   C72       1.0  0.7190000000000001  0.8935999999999997  0.2966  1.0000
  C   C73       1.0  0.7074000000000001  0.8282999999999998  0.3676999999999999  1.0000
  C   C74       1.0  0.6461  0.9848999999999998  0.2753  1.0000
  C   C75       1.0  0.6141  0.8211  0.4488999999999999  1.0000
  C   C76       1.0  0.4479000000000003  0.7409999999999998  0.4144  1.0000
  C   C77       1.0  0.2862000000000001  0.8361999999999998  0.4433999999999999  1.0000
  C   C78       1.0  0.2977000000000004  0.7458999999999999  0.45249999999999996  1.0000
  C   C79       1.0  0.1982000000000002  0.9304999999999999  0.4546999999999999  1.0000
  C   C80       1.0  0.22420000000000004  0.7064  0.46999999999999986  1.0000
  N   N1        1.0  0.8415000000000002  0.35369999999999996  0.7420999999999998  1.0000
  N   N2        1.0  0.9371000000000005  0.23909999999999995  0.6366999999999998  1.0000
  N   N3        1.0  0.16600000000000031  0.4329  0.8134999999999998  1.0000
  N   N4        1.0  0.1971  0.4201  0.6685  1.0000
  N   N5        1.0  0.4373  0.1463  0.7578999999999999  1.0000
  N   N6        1.0  0.31290000000000007  0.2609  0.8632999999999998  1.0000
  N   N7        1.0  0.9124  0.0671  0.6865  1.0000
  N   N8        1.0  0.7857000000000001  0.07989999999999998  0.8314999999999998  1.0000
  N   N9        1.0  0.5836  0.25789999999999996  0.8536999999999998  1.0000
  N   N10       1.0  0.5738000000000002  0.3632999999999999  0.7391  1.0000
  N   N11       1.0  0.9795000000000004  0.18649999999999994  0.9328999999999997  1.0000
  N   N12       1.0  0.8655999999999999  0.33149999999999996  0.9201  1.0000
  N   N13       1.0  0.1952000000000001  0.24209999999999998  0.6463  1.0000
  N   N14       1.0  0.1762  0.1367  0.7609  1.0000
  N   N15       1.0  0.5989000000000001  0.3135  0.5670999999999999  1.0000
  N   N16       1.0  0.6171999999999999  0.1685  0.5799  1.0000
  N   N17       1.0  0.15850000000000009  0.6462999999999998  0.2579  1.0000
  N   N18       1.0  0.06290000000000008  0.7608999999999999  0.3633  1.0000
  N   N19       1.0  0.834  0.5671  0.18649999999999994  1.0000
  N   N20       1.0  0.8029000000000001  0.5798999999999997  0.3315  1.0000
  N   N21       1.0  0.5627000000000004  0.8537  0.24209999999999995  1.0000
  N   N22       1.0  0.6871  0.7391  0.13669999999999993  1.0000
  N   N23       1.0  0.0876000000000002  0.9328999999999997  0.3134999999999999  1.0000
  N   N24       1.0  0.21429999999999996  0.9201  0.16849999999999998  1.0000
  N   N25       1.0  0.4164000000000002  0.7420999999999998  0.14629999999999996  1.0000
  N   N26       1.0  0.42620000000000036  0.6367  0.2608999999999999  1.0000
  N   N27       1.0  0.020500000000000025  0.8134999999999999  0.06709999999999998  1.0000
  N   N28       1.0  0.13439999999999994  0.6685  0.0799  1.0000
  N   N29       1.0  0.8048000000000001  0.7579  0.3537  1.0000
  N   N30       1.0  0.8238000000000002  0.8632999999999997  0.2391  1.0000
  N   N31       1.0  0.40110000000000007  0.6865  0.4328999999999999  1.0000
  N   N32       1.0  0.3828000000000001  0.8314999999999998  0.4201  1.0000
  O   O1        1.0  0.13250000000000012  0.3216  0.4823999999999999  1.0000
  O   O2        1.0  0.10360000000000007  0.2063  0.4702999999999999  1.0000
  O   O3        1.0  0.8587000000000001  0.5075  0.7419  1.0000
  O   O4        1.0  0.02220000000000002  0.4555  0.6275  1.0000
  O   O5        1.0  0.34810000000000013  0.4317  0.5014999999999998  1.0000
  O   O6        1.0  0.41200000000000003  0.48659999999999987  0.5552  1.0000
  O   O7        1.0  0.37610000000000005  0.4949999999999999  0.7446  1.0000
  O   O8        1.0  0.27290000000000014  0.4561999999999999  0.8813999999999997  1.0000
  O   O9        1.0  0.4365  0.17839999999999995  0.017599999999999998  1.0000
  O   O10       1.0  0.28019999999999995  0.2937  0.029699999999999994  1.0000
  O   O11       1.0  0.6081000000000002  0.9924999999999999  0.7580999999999998  1.0000
  O   O12       1.0  0.6052000000000001  0.0445  0.8725  1.0000
  O   O13       1.0  0.7813000000000003  0.0683  0.9984999999999998  1.0000
  O   O14       1.0  0.9538000000000001  0.013399999999999999  0.9448  1.0000
  O   O15       1.0  0.11570000000000007  0.005  0.7553999999999997  1.0000
  O   O16       1.0  0.11050000000000003  0.0438  0.6185999999999999  1.0000
  O   O17       1.0  0.6149000000000001  0.5176  0.8215999999999998  1.0000
  O   O18       1.0  0.5738999999999995  0.5297  0.7063  1.0000
  O   O19       1.0  0.6006  0.2581  0.0075  1.0000
  O   O20       1.0  0.6497000000000002  0.3725  0.9554999999999998  1.0000
  O   O21       1.0  0.8496000000000004  0.4984999999999999  0.9316999999999998  1.0000
  O   O22       1.0  0.9672000000000006  0.4448  0.9865999999999998  1.0000
  O   O23       1.0  0.1207000000000002  0.25539999999999996  0.9949999999999998  1.0000
  O   O24       1.0  0.15430000000000016  0.11859999999999997  0.9561999999999998  1.0000
  O   O25       1.0  0.4541000000000002  0.9824  0.6783999999999998  1.0000
  O   O26       1.0  0.3099000000000001  0.9702999999999998  0.7937  1.0000
  O   O27       1.0  0.36620000000000014  0.24189999999999995  0.49249999999999994  1.0000
  O   O28       1.0  0.4777  0.1275  0.5445  1.0000
  O   O29       1.0  0.7798000000000002  0.0014999999999999996  0.5682999999999999  1.0000
  O   O30       1.0  0.8986000000000004  0.055199999999999985  0.5133999999999999  1.0000
  O   O31       1.0  0.8711000000000001  0.24459999999999998  0.5049999999999999  1.0000
  O   O32       1.0  0.7291000000000001  0.3814  0.5438  1.0000
  O   O33       1.0  0.8675  0.6784  0.5176  1.0000
  O   O34       1.0  0.8964  0.7937  0.5297  1.0000
  O   O35       1.0  0.14130000000000004  0.4924999999999999  0.2581  1.0000
  O   O36       1.0  0.9777999999999999  0.5445  0.3725  1.0000
  O   O37       1.0  0.6519000000000004  0.5683  0.4985  1.0000
  O   O38       1.0  0.5880000000000004  0.5134  0.44479999999999986  1.0000
  O   O39       1.0  0.6239  0.505  0.2554  1.0000
  O   O40       1.0  0.7271  0.5438  0.11859999999999997  1.0000
  O   O41       1.0  0.5635  0.8216  0.9823999999999998  1.0000
  O   O42       1.0  0.7198000000000003  0.7062999999999998  0.9702999999999998  1.0000
  O   O43       1.0  0.3919000000000002  0.007499999999999998  0.24189999999999995  1.0000
  O   O44       1.0  0.39480000000000015  0.9554999999999998  0.1275  1.0000
  O   O45       1.0  0.2187000000000001  0.9316999999999998  0.0015  1.0000
  O   O46       1.0  0.04620000000000001  0.9866  0.055199999999999985  1.0000
  O   O47       1.0  0.8843000000000001  0.9949999999999998  0.24459999999999996  1.0000
  O   O48       1.0  0.8895  0.9562  0.3813999999999999  1.0000
  O   O49       1.0  0.38510000000000005  0.4824  0.17839999999999995  1.0000
  O   O50       1.0  0.4261000000000001  0.4702999999999999  0.29369999999999996  1.0000
  O   O51       1.0  0.3994  0.7419  0.9924999999999998  1.0000
  O   O52       1.0  0.35030000000000017  0.6274999999999997  0.044499999999999984  1.0000
  O   O53       1.0  0.15039999999999998  0.5015  0.06829999999999997  1.0000
  O   O54       1.0  0.03280000000000007  0.5551999999999999  0.013399999999999997  1.0000
  O   O55       1.0  0.8793000000000001  0.7446  0.005  1.0000
  O   O56       1.0  0.8456999999999999  0.8814  0.0438  1.0000
  O   O57       1.0  0.5459000000000002  0.0176  0.32159999999999994  1.0000
  O   O58       1.0  0.6901000000000002  0.0297  0.20629999999999996  1.0000
  O   O59       1.0  0.6338000000000001  0.7581  0.5075  1.0000
  O   O60       1.0  0.5223  0.8725  0.4554999999999999  1.0000
  O   O61       1.0  0.22020000000000012  0.9984999999999998  0.43169999999999986  1.0000
  O   O62       1.0  0.10140000000000002  0.9448  0.4866  1.0000
  O   O63       1.0  0.12890000000000015  0.7553999999999997  0.495  1.0000
  O   O64       1.0  0.27090000000000025  0.6185999999999999  0.4562  1.0000
