data_image0
_chemical_formula_structural       La8P32H136C96N32O96
_chemical_formula_sum              "La8 P32 H136 C96 N32 O96"
_cell_length_a       14.3339
_cell_length_b       20.76
_cell_length_c       21.507
_cell_angle_alpha    69.992
_cell_angle_beta     73.154
_cell_angle_gamma    72.353

_space_group_name_H-M_alt    "P 1"
_space_group_IT_number       1

loop_
  _space_group_symop_operation_xyz
  'x, y, z'

loop_
  _atom_site_type_symbol
  _atom_site_label
  _atom_site_symmetry_multiplicity
  _atom_site_fract_x
  _atom_site_fract_y
  _atom_site_fract_z
  _atom_site_occupancy
  La  La1       1.0  0.5713800000000001  0.88566  0.5880699999999999  1.0000
  La  La2       1.0  0.8781999999999995  0.51704  0.61284  1.0000
  La  La3       1.0  0.5101  0.9107699999999999  0.93592  1.0000
  La  La4       1.0  0.43309  0.5489  0.13231  1.0000
  La  La5       1.0  0.42861999999999995  0.11434000000000002  0.41193  1.0000
  La  La6       1.0  0.1218  0.48296000000000006  0.38715999999999995  1.0000
  La  La7       1.0  0.4899  0.08923000000000002  0.06408  1.0000
  La  La8       1.0  0.56691  0.4511  0.8676899999999999  1.0000
  P   P1        1.0  0.5462899999999999  0.93987  0.74522  1.0000
  P   P2        1.0  0.33218999999999976  0.93123  0.82728  1.0000
  P   P3        1.0  0.3035999999999999  0.9977899999999998  0.06017  1.0000
  P   P4        1.0  0.3697400000000001  0.09979000000000005  0.9255199999999999  1.0000
  P   P5        1.0  0.62722  0.06896999999999998  0.51499  1.0000
  P   P6        1.0  0.6799799999999996  0.9884400000000001  0.41141  1.0000
  P   P7        1.0  0.16238000000000005  0.45954  0.56222  1.0000
  P   P8        1.0  0.07760999999999997  0.6082700000000001  0.49067999999999995  1.0000
  P   P9        1.0  0.42236000000000007  0.75097  0.06689  1.0000
  P   P10       1.0  0.62103  0.6574200000000001  0.09754999999999998  1.0000
  P   P11       1.0  0.8271200000000001  0.38209999999999994  0.77894  1.0000
  P   P12       1.0  0.6661500000000001  0.42051999999999995  0.6997  1.0000
  P   P13       1.0  0.7240400000000001  0.70559  0.56618  1.0000
  P   P14       1.0  0.8477399999999999  0.79889  0.57532  1.0000
  P   P15       1.0  0.63438  0.5417800000000003  0.9715399999999998  1.0000
  P   P16       1.0  0.6535499999999999  0.40781  0.09159  1.0000
  P   P17       1.0  0.45371000000000006  0.06013000000000002  0.25477999999999995  1.0000
  P   P18       1.0  0.6678099999999999  0.06877000000000003  0.17272  1.0000
  P   P19       1.0  0.6963999999999998  0.0022099999999999997  0.9398299999999999  1.0000
  P   P20       1.0  0.6302599999999999  0.9002100000000001  0.07448  1.0000
  P   P21       1.0  0.37277999999999994  0.9310300000000001  0.48500999999999994  1.0000
  P   P22       1.0  0.32001999999999997  0.011560000000000029  0.5885899999999998  1.0000
  P   P23       1.0  0.8376199999999998  0.54046  0.43777999999999995  1.0000
  P   P24       1.0  0.9223899999999997  0.39172999999999997  0.50932  1.0000
  P   P25       1.0  0.57764  0.24903  0.93311  1.0000
  P   P26       1.0  0.3789700000000001  0.34258000000000005  0.9024499999999999  1.0000
  P   P27       1.0  0.17288000000000003  0.6179  0.22106  1.0000
  P   P28       1.0  0.3338499999999999  0.57948  0.3003  1.0000
  P   P29       1.0  0.27596  0.29441  0.43382  1.0000
  P   P30       1.0  0.15226000000000006  0.20111000000000004  0.4246799999999999  1.0000
  P   P31       1.0  0.36562  0.45822  0.028459999999999996  1.0000
  P   P32       1.0  0.34645  0.5921900000000001  0.90841  1.0000
  H   H1        1.0  0.33379999999999993  0.05579999999999999  0.7983  1.0000
  H   H2        1.0  0.4395000000000001  0.045700000000000074  0.7934999999999998  1.0000
  H   H3        1.0  0.2511  0.045200000000000094  0.9104999999999999  1.0000
  H   H4        1.0  0.22540000000000002  0.9928  0.973  1.0000
  H   H5        1.0  0.8125999999999999  0.9492  0.4781  1.0000
  H   H6        1.0  0.8043  0.9969  0.5159  1.0000
  H   H7        1.0  0.2579  0.5972  0.4591  1.0000
  H   H8        1.0  0.29639999999999994  0.5222  0.4778  1.0000
  H   H9        1.0  0.426  0.6905  0.19549999999999998  1.0000
  H   H10       1.0  0.5225  0.6807  0.2096  1.0000
  H   H11       1.0  0.8886  0.3289  0.6805  1.0000
  H   H12       1.0  0.8067  0.3346  0.6515  1.0000
  H   H13       1.0  0.8401000000000001  0.8368  0.45469999999999994  1.0000
  H   H14       1.0  0.7464999999999999  0.8188000000000001  0.464  1.0000
  H   H15       1.0  0.8074999999999999  0.4170000000000001  0.9843  1.0000
  H   H16       1.0  0.8217999999999999  0.48790000000000006  0.9567  1.0000
  H   H17       1.0  0.3903999999999999  0.9910999999999999  0.7148  1.0000
  H   H18       1.0  0.4292  0.08150000000000002  0.6341  1.0000
  H   H19       1.0  0.4183999999999997  0.19200000000000006  0.5604  1.0000
  H   H20       1.0  0.3766999999999998  0.2908  0.6016  1.0000
  H   H21       1.0  0.34620000000000006  0.2742  0.7154999999999999  1.0000
  H   H22       1.0  0.21649999999999994  0.1057  0.0028  1.0000
  H   H23       1.0  0.063  0.1284  0.0115  1.0000
  H   H24       1.0  0.9008999999999996  0.153  0.9999  1.0000
  H   H25       1.0  0.8573999999999999  0.10790000000000004  0.9321999999999998  1.0000
  H   H26       1.0  0.9752999999999998  0.0384  0.8741  1.0000
  H   H27       1.0  0.7424  0.07950000000000002  0.41279999999999994  1.0000
  H   H28       1.0  0.883  0.1001  0.3757  1.0000
  H   H29       1.0  0.04939999999999999  0.10310000000000001  0.3337  1.0000
  H   H30       1.0  0.1746  0.008000000000000018  0.37439999999999996  1.0000
  H   H31       1.0  0.13009999999999997  0.9130000000000001  0.45399999999999996  1.0000
  H   H32       1.0  0.1658999999999999  0.5643  0.5783  1.0000
  H   H33       1.0  0.29749999999999976  0.5529  0.6168  1.0000
  H   H34       1.0  0.44309999999999994  0.5642000000000001  0.6339  1.0000
  H   H35       1.0  0.5755  0.5886  0.5462  1.0000
  H   H36       1.0  0.5662  0.5987  0.4422  1.0000
  H   H37       1.0  0.5449  0.7715  0.10459999999999998  1.0000
  H   H38       1.0  0.4510999999999998  0.8525000000000001  0.1503  1.0000
  H   H39       1.0  0.38700000000000007  0.9246  0.22079999999999994  1.0000
  H   H40       1.0  0.33430000000000004  0.8788  0.3366  1.0000
  H   H41       1.0  0.3367  0.7608999999999999  0.379  1.0000
  H   H42       1.0  0.7297  0.3138  0.7736  1.0000
  H   H43       1.0  0.8027000000000001  0.2034  0.796  1.0000
  H   H44       1.0  0.8615999999999999  0.08809999999999998  0.7944  1.0000
  H   H45       1.0  0.9551  0.059099999999999986  0.6944  1.0000
  H   H46       1.0  0.9815999999999999  0.1488  0.5992  1.0000
  H   H47       1.0  0.8897999999999998  0.7145000000000001  0.5164999999999998  1.0000
  H   H48       1.0  0.899  0.68  0.4257  1.0000
  H   H49       1.0  0.9467999999999996  0.6679  0.3181  1.0000
  H   H50       1.0  0.9226999999999999  0.7666000000000001  0.2252  1.0000
  H   H51       1.0  0.8471999999999997  0.8748000000000001  0.245  1.0000
  H   H52       1.0  0.7177  0.5068  0.05929999999999999  1.0000
  H   H53       1.0  0.9920999999999998  0.41160000000000013  0.9363999999999999  1.0000
  H   H54       1.0  0.13649999999999998  0.378  0.9787  1.0000
  H   H55       1.0  0.12670000000000006  0.37979999999999997  0.08769999999999999  1.0000
  H   H56       1.0  0.9724999999999999  0.4151000000000001  0.15439999999999998  1.0000
  H   H57       1.0  0.6054999999999998  0.0036999999999999898  0.6585  1.0000
  H   H58       1.0  0.38649999999999995  0.8284000000000001  0.8386  1.0000
  H   H59       1.0  0.17289999999999997  0.012899999999999998  0.1257  1.0000
  H   H60       1.0  0.6679  0.15029999999999996  0.5208  1.0000
  H   H61       1.0  0.2323  0.4209  0.6401  1.0000
  H   H62       1.0  0.3360000000000001  0.843  0.0818  1.0000
  H   H63       1.0  0.7319999999999999  0.6798  0.11949999999999997  1.0000
  H   H64       1.0  0.8694  0.3063  0.8594999999999999  1.0000
  H   H65       1.0  0.7319999999999999  0.6493  0.5046  1.0000
  H   H66       1.0  0.8733  0.7565000000000002  0.6689  1.0000
  H   H67       1.0  0.6534999999999997  0.6371  0.9123  1.0000
  H   H68       1.0  0.5742  0.40049999999999997  0.0322  1.0000
  H   H69       1.0  0.6661999999999997  0.9442  0.2017  1.0000
  H   H70       1.0  0.5604999999999999  0.9543  0.20649999999999996  1.0000
  H   H71       1.0  0.7488999999999999  0.9548000000000001  0.08949999999999997  1.0000
  H   H72       1.0  0.7746  0.007200000000000001  0.027  1.0000
  H   H73       1.0  0.1874  0.050799999999999984  0.5219  1.0000
  H   H74       1.0  0.19570000000000004  0.003099999999999997  0.4841  1.0000
  H   H75       1.0  0.7420999999999996  0.40280000000000005  0.5409  1.0000
  H   H76       1.0  0.7036  0.4778  0.5222  1.0000
  H   H77       1.0  0.5740000000000001  0.30950000000000005  0.8044999999999998  1.0000
  H   H78       1.0  0.47749999999999987  0.3193  0.7904  1.0000
  H   H79       1.0  0.11140000000000001  0.6711  0.3195  1.0000
  H   H80       1.0  0.19330000000000008  0.6654  0.3484999999999999  1.0000
  H   H81       1.0  0.15989999999999993  0.1632  0.5453  1.0000
  H   H82       1.0  0.2535000000000001  0.1812  0.536  1.0000
  H   H83       1.0  0.1925  0.583  0.015699999999999995  1.0000
  H   H84       1.0  0.17819999999999991  0.5121  0.0433  1.0000
  H   H85       1.0  0.6096  0.008899999999999996  0.2852  1.0000
  H   H86       1.0  0.5707999999999999  0.9185  0.3659  1.0000
  H   H87       1.0  0.5816000000000002  0.8079999999999999  0.4396  1.0000
  H   H88       1.0  0.6233  0.7092000000000002  0.39839999999999987  1.0000
  H   H89       1.0  0.6538  0.7258  0.2845  1.0000
  H   H90       1.0  0.7834999999999994  0.8943000000000001  0.9972  1.0000
  H   H91       1.0  0.937  0.8716000000000002  0.9885  1.0000
  H   H92       1.0  0.09909999999999991  0.8470000000000001  9.999999999999999e-05  1.0000
  H   H93       1.0  0.14259999999999998  0.8921000000000001  0.0678  1.0000
  H   H94       1.0  0.02469999999999995  0.9616000000000001  0.12589999999999998  1.0000
  H   H95       1.0  0.25760000000000005  0.9205  0.5872  1.0000
  H   H96       1.0  0.1169999999999998  0.8999000000000001  0.6242999999999999  1.0000
  H   H97       1.0  0.9505999999999997  0.8969  0.6663  1.0000
  H   H98       1.0  0.8254  0.992  0.6255999999999999  1.0000
  H   H99       1.0  0.8699000000000001  0.08699999999999998  0.546  1.0000
  H   H100      1.0  0.8340999999999998  0.4357  0.4217  1.0000
  H   H101      1.0  0.7025000000000001  0.44710000000000005  0.38319999999999993  1.0000
  H   H102      1.0  0.5569  0.4358000000000001  0.3661  1.0000
  H   H103      1.0  0.42449999999999993  0.4114  0.4538  1.0000
  H   H104      1.0  0.43380000000000013  0.4013000000000001  0.5577999999999999  1.0000
  H   H105      1.0  0.4551  0.22849999999999998  0.8954  1.0000
  H   H106      1.0  0.5489000000000002  0.14750000000000002  0.8497  1.0000
  H   H107      1.0  0.6129999999999999  0.07540000000000008  0.7791999999999998  1.0000
  H   H108      1.0  0.6657  0.12120000000000004  0.6633999999999999  1.0000
  H   H109      1.0  0.6633  0.2391  0.6209999999999999  1.0000
  H   H110      1.0  0.2703  0.6862  0.22639999999999996  1.0000
  H   H111      1.0  0.1972999999999999  0.7966000000000001  0.20399999999999996  1.0000
  H   H112      1.0  0.13839999999999994  0.9119  0.2056  1.0000
  H   H113      1.0  0.04490000000000007  0.9409  0.3056  1.0000
  H   H114      1.0  0.018399999999999975  0.8512  0.4008  1.0000
  H   H115      1.0  0.1102  0.2855  0.4834999999999999  1.0000
  H   H116      1.0  0.101  0.32  0.5743  1.0000
  H   H117      1.0  0.053199999999999956  0.3321  0.6819  1.0000
  H   H118      1.0  0.07730000000000001  0.23339999999999997  0.7748  1.0000
  H   H119      1.0  0.1528  0.1252  0.755  1.0000
  H   H120      1.0  0.28230000000000005  0.4932  0.9407  1.0000
  H   H121      1.0  0.007899999999999952  0.5884000000000001  0.0636  1.0000
  H   H122      1.0  0.8634999999999998  0.6220000000000001  0.0213  1.0000
  H   H123      1.0  0.8733  0.6202  0.9123  1.0000
  H   H124      1.0  0.02749999999999994  0.5849  0.8456  1.0000
  H   H125      1.0  0.39449999999999985  0.9963  0.3415  1.0000
  H   H126      1.0  0.6134999999999999  0.17160000000000003  0.1614  1.0000
  H   H127      1.0  0.8271000000000001  0.9871000000000001  0.8743  1.0000
  H   H128      1.0  0.33209999999999995  0.8496999999999999  0.47919999999999996  1.0000
  H   H129      1.0  0.7677  0.5791  0.3599  1.0000
  H   H130      1.0  0.6639999999999999  0.157  0.9182  1.0000
  H   H131      1.0  0.26799999999999996  0.3202  0.8805  1.0000
  H   H132      1.0  0.1305999999999999  0.6937  0.14049999999999999  1.0000
  H   H133      1.0  0.26799999999999996  0.35070000000000007  0.4954  1.0000
  H   H134      1.0  0.1266999999999999  0.2435  0.3311  1.0000
  H   H135      1.0  0.3465  0.3629  0.08769999999999999  1.0000
  H   H136      1.0  0.4258  0.5995  0.9678  1.0000
  C   C1        1.0  0.4122000000000001  0.9828  0.7565999999999999  1.0000
  C   C2        1.0  0.39419999999999994  0.1118  0.7209  1.0000
  C   C3        1.0  0.41269999999999984  0.12050000000000002  0.6503  1.0000
  C   C4        1.0  0.40619999999999995  0.18620000000000003  0.6066999999999999  1.0000
  C   C5        1.0  0.3811  0.24579999999999994  0.6312  1.0000
  C   C6        1.0  0.36360000000000015  0.23549999999999996  0.6986  1.0000
  C   C7        1.0  0.2647  0.06660000000000005  0.9872999999999998  1.0000
  C   C8        1.0  0.12040000000000003  0.062099999999999975  0.9493  1.0000
  C   C9        1.0  0.04619999999999998  0.10880000000000002  0.9844  1.0000
  C   C10       1.0  0.9503  0.12360000000000002  0.9765999999999999  1.0000
  C   C11       1.0  0.9236999999999999  0.09690000000000006  0.9360999999999999  1.0000
  C   C12       1.0  0.9930000000000001  0.05550000000000003  0.9027  1.0000
  C   C13       1.0  0.7239  0.03840000000000002  0.44849999999999995  1.0000
  C   C14       1.0  0.9072  0.0012999999999999958  0.4423  1.0000
  C   C15       1.0  0.9327000000000001  0.062100000000000016  0.3918  1.0000
  C   C16       1.0  0.03200000000000003  0.06359999999999999  0.367  1.0000
  C   C17       1.0  0.10750000000000003  0.006700000000000022  0.39099999999999996  1.0000
  C   C18       1.0  0.08060000000000006  0.951  0.43779999999999997  1.0000
  C   C19       1.0  0.17459999999999995  0.5503  0.5375  1.0000
  C   C20       1.0  0.3466000000000001  0.5682  0.5139  1.0000
  C   C21       1.0  0.351  0.5618  0.5808  1.0000
  C   C22       1.0  0.4382  0.5691  0.5903  1.0000
  C   C23       1.0  0.5181999999999998  0.5835  0.5381  1.0000
  C   C24       1.0  0.5118999999999998  0.5895  0.4774999999999999  1.0000
  C   C25       1.0  0.5177  0.7298  0.11659999999999998  1.0000
  C   C26       1.0  0.4345999999999998  0.7609000000000002  0.22459999999999997  1.0000
  C   C27       1.0  0.4292  0.8338000000000001  0.1965  1.0000
  C   C28       1.0  0.3909  0.8765000000000001  0.2388  1.0000
  C   C29       1.0  0.35769999999999996  0.8496  0.3081999999999999  1.0000
  C   C30       1.0  0.3606  0.7796000000000001  0.3331  1.0000
  C   C31       1.0  0.7632999999999996  0.34889999999999993  0.7384  1.0000
  C   C32       1.0  0.8592999999999997  0.2448  0.6959  1.0000
  C   C33       1.0  0.8392  0.19199999999999998  0.7562  1.0000
  C   C34       1.0  0.8745  0.1237  0.7549  1.0000
  C   C35       1.0  0.9299  0.10570000000000004  0.6951999999999999  1.0000
  C   C36       1.0  0.9447  0.159  0.6394  1.0000
  C   C37       1.0  0.8283  0.7502000000000001  0.5248  1.0000
  C   C38       1.0  0.8443  0.7863  0.3996  1.0000
  C   C39       1.0  0.8889  0.7194  0.389  1.0000
  C   C40       1.0  0.9173999999999999  0.7122  0.3247999999999999  1.0000
  C   C41       1.0  0.9028  0.771  0.2691  1.0000
  C   C42       1.0  0.8583999999999996  0.8351000000000001  0.28119999999999995  1.0000
  C   C43       1.0  0.7102999999999998  0.47990000000000005  0.0322  1.0000
  C   C44       1.0  0.8958  0.43350000000000005  0.020099999999999993  1.0000
  C   C45       1.0  0.9882  0.41230000000000006  0.9801  1.0000
  C   C46       1.0  0.07469999999999999  0.3922  0.0055  1.0000
  C   C47       1.0  0.06879999999999994  0.3932  0.0708  1.0000
  C   C48       1.0  0.9764000000000002  0.41440000000000005  0.11069999999999999  1.0000
  C   C49       1.0  0.5878  0.0172  0.2434  1.0000
  C   C50       1.0  0.6057999999999999  0.8882  0.2791  1.0000
  C   C51       1.0  0.5873  0.8795  0.3497  1.0000
  C   C52       1.0  0.5938000000000003  0.8138000000000001  0.3933  1.0000
  C   C53       1.0  0.6189000000000001  0.7542000000000001  0.36879999999999996  1.0000
  C   C54       1.0  0.6363999999999996  0.7645000000000001  0.3014  1.0000
  C   C55       1.0  0.7352999999999998  0.9334000000000001  0.0127  1.0000
  C   C56       1.0  0.8795999999999999  0.9379000000000001  0.0507  1.0000
  C   C57       1.0  0.9537999999999999  0.8912000000000001  0.015599999999999998  1.0000
  C   C58       1.0  0.0497  0.8764  0.023399999999999997  1.0000
  C   C59       1.0  0.07630000000000002  0.9031  0.0639  1.0000
  C   C60       1.0  0.006999999999999974  0.9445  0.0973  1.0000
  C   C61       1.0  0.27609999999999996  0.9616000000000003  0.5515  1.0000
  C   C62       1.0  0.09279999999999992  0.9987000000000003  0.5576999999999999  1.0000
  C   C63       1.0  0.06729999999999998  0.9379000000000001  0.6081999999999999  1.0000
  C   C64       1.0  0.968  0.9364  0.633  1.0000
  C   C65       1.0  0.8924999999999998  0.9933  0.609  1.0000
  C   C66       1.0  0.9194  0.04900000000000005  0.5621999999999999  1.0000
  C   C67       1.0  0.8253999999999998  0.4497  0.46249999999999997  1.0000
  C   C68       1.0  0.6534000000000001  0.4318  0.4860999999999999  1.0000
  C   C69       1.0  0.649  0.4382  0.4192  1.0000
  C   C70       1.0  0.5617999999999999  0.4309  0.40969999999999995  1.0000
  C   C71       1.0  0.48180000000000006  0.4165  0.4619  1.0000
  C   C72       1.0  0.48810000000000003  0.41050000000000003  0.5225  1.0000
  C   C73       1.0  0.48230000000000006  0.27020000000000005  0.8833999999999997  1.0000
  C   C74       1.0  0.5654  0.23910000000000006  0.7754  1.0000
  C   C75       1.0  0.5708  0.1662  0.8035  1.0000
  C   C76       1.0  0.6090999999999999  0.12349999999999998  0.7612  1.0000
  C   C77       1.0  0.6422999999999996  0.1504  0.6918  1.0000
  C   C78       1.0  0.6394  0.22039999999999996  0.6669  1.0000
  C   C79       1.0  0.23669999999999997  0.6511  0.2616  1.0000
  C   C80       1.0  0.14069999999999996  0.7552000000000001  0.3040999999999999  1.0000
  C   C81       1.0  0.16080000000000003  0.8079999999999999  0.2438  1.0000
  C   C82       1.0  0.12549999999999994  0.8763  0.24509999999999998  1.0000
  C   C83       1.0  0.07009999999999991  0.8943000000000001  0.30479999999999996  1.0000
  C   C84       1.0  0.05529999999999998  0.8409999999999999  0.3606  1.0000
  C   C85       1.0  0.17169999999999996  0.2498  0.4752  1.0000
  C   C86       1.0  0.1556999999999999  0.21370000000000003  0.6004  1.0000
  C   C87       1.0  0.11110000000000002  0.28059999999999996  0.611  1.0000
  C   C88       1.0  0.08260000000000005  0.28779999999999994  0.6752  1.0000
  C   C89       1.0  0.09719999999999997  0.229  0.7309  1.0000
  C   C90       1.0  0.1416  0.16490000000000002  0.7187999999999999  1.0000
  C   C91       1.0  0.28969999999999974  0.5201000000000002  0.9678  1.0000
  C   C92       1.0  0.10420000000000008  0.5665  0.9799  1.0000
  C   C93       1.0  0.011799999999999996  0.5877  0.0199  1.0000
  C   C94       1.0  0.9253000000000001  0.6077999999999999  0.9945  1.0000
  C   C95       1.0  0.9312000000000001  0.6068  0.9292  1.0000
  C   C96       1.0  0.023599999999999868  0.5856000000000002  0.8893  1.0000
  N   N1        1.0  0.3939  0.0503  0.77  1.0000
  N   N2        1.0  0.3707  0.1701  0.7423  1.0000
  N   N3        1.0  0.21579999999999996  0.03960000000000007  0.9533999999999999  1.0000
  N   N4        1.0  0.09130000000000006  0.037100000000000063  0.9091999999999999  1.0000
  N   N5        1.0  0.8132  0.9938  0.47379999999999994  1.0000
  N   N6        1.0  0.9827  0.9473  0.46329999999999993  1.0000
  N   N7        1.0  0.27109999999999984  0.5597  0.4944  1.0000
  N   N8        1.0  0.4274  0.583  0.46269999999999994  1.0000
  N   N9        1.0  0.4744  0.7128  0.1891  1.0000
  N   N10       1.0  0.39760000000000006  0.7361  0.292  1.0000
  N   N11       1.0  0.8314000000000001  0.3149  0.6895  1.0000
  N   N12       1.0  0.9086  0.2259  0.6395  1.0000
  N   N13       1.0  0.8129999999999997  0.8012000000000002  0.4593  1.0000
  N   N14       1.0  0.8305000000000001  0.8419  0.3447  1.0000
  N   N15       1.0  0.8110999999999997  0.45400000000000007  0.9957  1.0000
  N   N16       1.0  0.8899  0.4345  0.0854  1.0000
  N   N17       1.0  0.6060999999999995  0.9497  0.22999999999999998  1.0000
  N   N18       1.0  0.6292999999999999  0.8299  0.2577  1.0000
  N   N19       1.0  0.7842  0.9604000000000001  0.046599999999999996  1.0000
  N   N20       1.0  0.9086999999999998  0.9628999999999999  0.0908  1.0000
  N   N21       1.0  0.18680000000000002  0.006199999999999994  0.5262  1.0000
  N   N22       1.0  0.017300000000000006  0.05269999999999997  0.5367  1.0000
  N   N23       1.0  0.7289  0.4403  0.5056  1.0000
  N   N24       1.0  0.5726  0.417  0.5373  1.0000
  N   N25       1.0  0.5255999999999998  0.28720000000000007  0.8108999999999998  1.0000
  N   N26       1.0  0.6023999999999999  0.26390000000000013  0.7079999999999999  1.0000
  N   N27       1.0  0.16860000000000006  0.6851  0.31049999999999994  1.0000
  N   N28       1.0  0.09139999999999994  0.7741  0.3605  1.0000
  N   N29       1.0  0.18699999999999997  0.1988  0.5407  1.0000
  N   N30       1.0  0.16950000000000004  0.1581  0.6553  1.0000
  N   N31       1.0  0.1889  0.546  0.0043  1.0000
  N   N32       1.0  0.1101  0.5655000000000001  0.9145999999999999  1.0000
  O   O1        1.0  0.6008999999999999  0.000699999999999958  0.69822  1.0000
  O   O2        1.0  0.5672999999999999  0.8844  0.7094999999999999  1.0000
  O   O3        1.0  0.5741999999999999  0.9169  0.81303  1.0000
  O   O4        1.0  0.22449999999999998  0.9678  0.8254999999999999  1.0000
  O   O5        1.0  0.35549999999999987  0.8593000000000001  0.8114  1.0000
  O   O6        1.0  0.36060000000000003  0.9227  0.89218  1.0000
  O   O7        1.0  0.3598  0.9332400000000001  0.03636  1.0000
  O   O8        1.0  0.2032000000000001  0.9805  0.10879999999999998  1.0000
  O   O9        1.0  0.3549  0.026300000000000004  0.09294  1.0000
  O   O10       1.0  0.3249000000000001  0.16070000000000004  0.87117  1.0000
  O   O11       1.0  0.4223999999999999  0.1224  0.96338  1.0000
  O   O12       1.0  0.4323  0.03797999999999999  0.89804  1.0000
  O   O13       1.0  0.6088999999999999  0.00403000000000003  0.5719499999999998  1.0000
  O   O14       1.0  0.5411  0.11574000000000002  0.48310999999999993  1.0000
  O   O15       1.0  0.6748  0.10900000000000004  0.54334  1.0000
  O   O16       1.0  0.5884  0.03578  0.38503  1.0000
  O   O17       1.0  0.6589  0.9236100000000002  0.46854999999999997  1.0000
  O   O18       1.0  0.7676  0.9688400000000001  0.3558199999999999  1.0000
  O   O19       1.0  0.2477  0.4145  0.6025  1.0000
  O   O20       1.0  0.06080000000000003  0.45637  0.6050999999999999  1.0000
  O   O21       1.0  0.18980000000000005  0.43718  0.4981  1.0000
  O   O22       1.0  0.10310000000000002  0.58594  0.42629999999999996  1.0000
  O   O23       1.0  0.0903000000000001  0.68216  0.4755  1.0000
  O   O24       1.0  0.9773999999999999  0.59727  0.5347  1.0000
  O   O25       1.0  0.3301999999999998  0.8022  0.0998  1.0000
  O   O26       1.0  0.3913999999999999  0.6839600000000001  0.07898  1.0000
  O   O27       1.0  0.46159999999999984  0.7903100000000001  0.9956299999999999  1.0000
  O   O28       1.0  0.584  0.59047  0.1264  1.0000
  O   O29       1.0  0.6997  0.6494  0.1392  1.0000
  O   O30       1.0  0.6637  0.6780000000000002  0.02264  1.0000
  O   O31       1.0  0.7494000000000002  0.4175999999999999  0.8277  1.0000
  O   O32       1.0  0.8932999999999999  0.4257  0.7242  1.0000
  O   O33       1.0  0.8964999999999999  0.3162000000000001  0.8193999999999999  1.0000
  O   O34       1.0  0.7108  0.4844  0.6633  1.0000
  O   O35       1.0  0.6393999999999999  0.3933000000000001  0.6508999999999999  1.0000
  O   O36       1.0  0.5806  0.4284  0.7595  1.0000
  O   O37       1.0  0.6985000000000005  0.6881999999999999  0.5079  1.0000
  O   O38       1.0  0.6348000000000001  0.7588000000000001  0.5898  1.0000
  O   O39       1.0  0.759  0.63806  0.61711  1.0000
  O   O40       1.0  0.7571999999999995  0.8566000000000001  0.5842999999999999  1.0000
  O   O41       1.0  0.8604999999999996  0.7404000000000001  0.6433  1.0000
  O   O42       1.0  0.9428999999999998  0.8246  0.5419  1.0000
  O   O43       1.0  0.5299999999999998  0.5617000000000001  0.01154  1.0000
  O   O44       1.0  0.6841999999999997  0.6071  0.9402  1.0000
  O   O45       1.0  0.6454999999999997  0.5092000000000001  0.9167999999999998  1.0000
  O   O46       1.0  0.5627  0.44150000000000006  0.1351  1.0000
  O   O47       1.0  0.6229999999999999  0.3739  0.047099999999999996  1.0000
  O   O48       1.0  0.7314  0.3534  0.12589999999999998  1.0000
  O   O49       1.0  0.3990999999999998  0.9993000000000003  0.30178  1.0000
  O   O50       1.0  0.4327  0.11560000000000002  0.2905  1.0000
  O   O51       1.0  0.4258  0.08309999999999998  0.18697  1.0000
  O   O52       1.0  0.7754999999999997  0.0322  0.1745  1.0000
  O   O53       1.0  0.6445  0.14069999999999996  0.1886  1.0000
  O   O54       1.0  0.6393999999999999  0.0773  0.10782  1.0000
  O   O55       1.0  0.6402000000000001  0.06676000000000006  0.9636399999999999  1.0000
  O   O56       1.0  0.7967999999999998  0.019500000000000003  0.8912  1.0000
  O   O57       1.0  0.6451  0.9737  0.90706  1.0000
  O   O58       1.0  0.6751  0.8392999999999999  0.12882999999999997  1.0000
  O   O59       1.0  0.5776  0.8776000000000002  0.03662  1.0000
  O   O60       1.0  0.5677000000000001  0.96202  0.10195999999999998  1.0000
  O   O61       1.0  0.39109999999999995  0.9959700000000001  0.42805  1.0000
  O   O62       1.0  0.4589  0.88426  0.51689  1.0000
  O   O63       1.0  0.3252  0.891  0.45666  1.0000
  O   O64       1.0  0.4116000000000001  0.96422  0.6149699999999999  1.0000
  O   O65       1.0  0.34110000000000007  0.07639000000000001  0.53145  1.0000
  O   O66       1.0  0.23240000000000002  0.031160000000000045  0.6441799999999999  1.0000
  O   O67       1.0  0.7523  0.5855  0.3975  1.0000
  O   O68       1.0  0.9391999999999994  0.54363  0.3949  1.0000
  O   O69       1.0  0.8102  0.56282  0.5019  1.0000
  O   O70       1.0  0.8969000000000003  0.41406000000000004  0.5737  1.0000
  O   O71       1.0  0.9097000000000001  0.31784  0.5244999999999999  1.0000
  O   O72       1.0  0.022600000000000054  0.40273  0.4653  1.0000
  O   O73       1.0  0.6698  0.19780000000000006  0.9002  1.0000
  O   O74       1.0  0.6086  0.31604000000000004  0.9210199999999998  1.0000
  O   O75       1.0  0.5383999999999998  0.20969  0.00437  1.0000
  O   O76       1.0  0.41600000000000004  0.40953  0.8736  1.0000
  O   O77       1.0  0.3003  0.3506000000000001  0.8608  1.0000
  O   O78       1.0  0.3362999999999999  0.32200000000000006  0.9773599999999998  1.0000
  O   O79       1.0  0.25059999999999993  0.5824  0.1723  1.0000
  O   O80       1.0  0.10669999999999992  0.5743000000000001  0.2758  1.0000
  O   O81       1.0  0.1035  0.6838  0.1806  1.0000
  O   O82       1.0  0.28920000000000007  0.5156  0.3367  1.0000
  O   O83       1.0  0.3606  0.6067  0.34909999999999997  1.0000
  O   O84       1.0  0.4194  0.5716  0.2405  1.0000
  O   O85       1.0  0.3014999999999999  0.3118  0.4921  1.0000
  O   O86       1.0  0.36520000000000014  0.24120000000000003  0.41019999999999995  1.0000
  O   O87       1.0  0.241  0.36194000000000004  0.38288999999999995  1.0000
  O   O88       1.0  0.24280000000000002  0.1434  0.41569999999999996  1.0000
  O   O89       1.0  0.13949999999999999  0.2596000000000001  0.3567  1.0000
  O   O90       1.0  0.057099999999999984  0.17540000000000003  0.4581  1.0000
  O   O91       1.0  0.47000000000000003  0.4383000000000001  0.9884599999999998  1.0000
  O   O92       1.0  0.31579999999999997  0.3929  0.0598  1.0000
  O   O93       1.0  0.3544999999999998  0.4908  0.0832  1.0000
  O   O94       1.0  0.4373  0.5585  0.8648999999999999  1.0000
  O   O95       1.0  0.37700000000000006  0.6261  0.9529  1.0000
  O   O96       1.0  0.2686  0.6466  0.8741  1.0000
