data_image0
_chemical_formula_structural       Zn8H112C160N8O32F48
_chemical_formula_sum              "Zn8 H112 C160 N8 O32 F48"
_cell_length_a       19.26900218
_cell_length_b       19.26900229
_cell_length_c       27.63695499
_cell_angle_alpha    110.40116706000002
_cell_angle_beta     110.40116216
_cell_angle_gamma    90.00176087

_symmetry_space_group_name_H-M    'P 1'
_symmetry_Int_Tables_number       1

loop_
  _symmetry_equiv_pos_as_xyz
  'x,y,z'

loop_
  _atom_site_type_symbol
  _atom_site_label
  _atom_site_symmetry_multiplicity
  _atom_site_fract_x
  _atom_site_fract_y
  _atom_site_fract_z
  _atom_site_occupancy
  Zn  Zn1       1.0  0.50545925  0.43172872  0.51091685  1.0000
  Zn  Zn2       1.0  0.4317287  0.50545924  0.010916839999999999  1.0000
  Zn  Zn3       1.0  0.50543523  0.07916406999999999  0.51088541  1.0000
  Zn  Zn4       1.0  0.9208359500000001  0.49456476999999976  0.9891145999999997  1.0000
  Zn  Zn5       1.0  0.07916407  0.50543524  0.010885399999999998  1.0000
  Zn  Zn6       1.0  0.5682712799999999  0.49454076999999985  0.9890831599999999  1.0000
  Zn  Zn7       1.0  0.49454075999999997  0.56827131  0.48908315999999996  1.0000
  Zn  Zn8       1.0  0.49456476  0.9208359300000001  0.48911459  1.0000
  H   H1        1.0  0.76833545  0.51909595  0.9133514499999998  1.0000
  H   H2        1.0  0.74982297  0.82307675  0.19116074  1.0000
  H   H3        1.0  0.58213468  0.3071156199999999  0.38277819999999996  1.0000
  H   H4        1.0  0.2501833  0.63192064  0.80884485  1.0000
  H   H5        1.0  0.64502032  0.5191053300000001  0.9133551499999999  1.0000
  H   H6        1.0  0.16937918  0.34463285  0.20525148  1.0000
  H   H7        1.0  0.38006789  0.80010117  0.47697639  1.0000
  H   H8        1.0  0.32311403  0.40309805  0.023021539999999997  1.0000
  H   H9        1.0  0.51909593  0.76833545  0.41335144999999995  1.0000
  H   H10       1.0  0.74981669  0.36807937  0.19115515999999996  1.0000
  H   H11       1.0  0.6768787299999999  0.38006561999999994  0.9769775099999999  1.0000
  H   H12       1.0  0.40310115  0.19989996000000004  0.52302802  1.0000
  H   H13       1.0  0.7354807699999999  0.15094691999999998  0.6308561699999999  1.0000
  H   H14       1.0  0.26450122  0.52006978  0.36913567  1.0000
  H   H15       1.0  0.17692326  0.25017702  0.30883927  1.0000
  H   H16       1.0  0.53590064  0.86062282  0.20526393999999995  1.0000
  H   H17       1.0  0.41785177  0.92435238  0.61722414  1.0000
  H   H18       1.0  0.61993438  0.32312126  0.52302249  1.0000
  H   H19       1.0  0.6450258700000001  0.3942489099999999  0.9133565799999999  1.0000
  H   H20       1.0  0.84905307  0.2645192299999998  0.8691438399999998  1.0000
  H   H21       1.0  0.19989882  0.61993211  0.02302361  1.0000
  H   H22       1.0  0.72021858  0.48604385999999994  0.06374207  1.0000
  H   H23       1.0  0.47992285999999995  0.39535721  0.13086427  1.0000
  H   H24       1.0  0.48604866999999996  0.84351928  0.56374345  1.0000
  H   H25       1.0  0.47993023  0.73549878  0.13086433  1.0000
  H   H26       1.0  0.36807935  0.7498167  0.69115516  1.0000
  H   H27       1.0  0.86062282  0.53590065  0.70526393  1.0000
  H   H28       1.0  0.82307536  0.94134988  0.69115801  1.0000
  H   H29       1.0  0.3446243399999999  0.5358973799999999  0.7052601199999999  1.0000
  H   H30       1.0  0.67688597  0.59690197  0.97697846  1.0000
  H   H31       1.0  0.40309804000000005  0.32311403  0.52302154  1.0000
  H   H32       1.0  0.84351927  0.48604869  0.06374345  1.0000
  H   H33       1.0  0.15095149  0.39537034  0.13085392  1.0000
  H   H34       1.0  0.8306223899999999  0.13938777999999996  0.7947420099999999  1.0000
  H   H35       1.0  0.92435237  0.41785179  0.11722415  1.0000
  H   H36       1.0  0.84904849  0.60462968  0.86914608  1.0000
  H   H37       1.0  0.59689885  0.80010005  0.47697197  1.0000
  H   H38       1.0  0.30711652  0.30063788  0.88278054  1.0000
  H   H39       1.0  0.05864116999999998  0.63192896  0.80884078  1.0000
  H   H40       1.0  0.69936392  0.92434651  0.61721936  1.0000
  H   H41       1.0  0.60574854  0.2316619  0.58664359  1.0000
  H   H42       1.0  0.13938778  0.83062238  0.29474201  1.0000
  H   H43       1.0  0.27978142  0.5139561499999998  0.9362579199999999  1.0000
  H   H44       1.0  0.5191053199999999  0.64502031  0.41335514  1.0000
  H   H45       1.0  0.4808946800000001  0.3549797  0.58664486  1.0000
  H   H46       1.0  0.60462966  0.84904851  0.3691460899999999  1.0000
  H   H47       1.0  0.9243465  0.69936392  0.11721934999999999  1.0000
  H   H48       1.0  0.38006562  0.6768787499999999  0.47697752  1.0000
  H   H49       1.0  0.8001000500000001  0.59689886  0.97697198  1.0000
  H   H50       1.0  0.46409934999999997  0.13937718  0.79473606  1.0000
  H   H51       1.0  0.15647804  0.42229062999999994  0.9362632899999999  1.0000
  H   H52       1.0  0.83062085  0.6553671599999998  0.7947485199999998  1.0000
  H   H53       1.0  0.46410261  0.65537565  0.79473988  1.0000
  H   H54       1.0  0.82307675  0.74982297  0.69116074  1.0000
  H   H55       1.0  0.8435219500000001  0.57770938  0.06373672  1.0000
  H   H56       1.0  0.94134988  0.82307537  0.19115800999999996  1.0000
  H   H57       1.0  0.65536715  0.8306208299999999  0.29474853  1.0000
  H   H58       1.0  0.86061222  0.16937762  0.705258  1.0000
  H   H59       1.0  0.13937718  0.46409935  0.29473607  1.0000
  H   H60       1.0  0.5139513199999999  0.15648071999999996  0.43625654999999997  1.0000
  H   H61       1.0  0.42229062  0.15647804  0.43626329  1.0000
  H   H62       1.0  0.26451922999999994  0.8490531  0.36914383999999995  1.0000
  H   H63       1.0  0.0756476  0.5821482299999999  0.8827758499999999  1.0000
  H   H64       1.0  0.69936212  0.69288349  0.61721947  1.0000
  H   H65       1.0  0.30063787  0.3071165  0.38278053  1.0000
  H   H66       1.0  0.35497412000000006  0.6057511  0.08664342  1.0000
  H   H67       1.0  0.17692461999999998  0.05865012000000001  0.30884199  1.0000
  H   H68       1.0  0.48604385  0.7202185800000002  0.56374207  1.0000
  H   H69       1.0  0.058650129999999925  0.17692463  0.8088419899999999  1.0000
  H   H70       1.0  0.30063608  0.0756535  0.38278064  1.0000
  H   H71       1.0  0.59690196  0.67688597  0.47697846  1.0000
  H   H72       1.0  0.6928835  0.69936213  0.11721945999999998  1.0000
  H   H73       1.0  0.36807104  0.9413588499999999  0.69115923  1.0000
  H   H74       1.0  0.16937762  0.86061222  0.20525799  1.0000
  H   H75       1.0  0.53589738  0.34462435999999996  0.20526011999999996  1.0000
  H   H76       1.0  0.63192064  0.25018331  0.30884484  1.0000
  H   H77       1.0  0.25017702  0.17692326  0.80883926  1.0000
  H   H78       1.0  0.3953572  0.47992286  0.63086428  1.0000
  H   H79       1.0  0.15094691  0.73548078  0.13085616  1.0000
  H   H80       1.0  0.07565347999999998  0.30063608  0.88278064  1.0000
  H   H81       1.0  0.60575109  0.35497414  0.58664342  1.0000
  H   H82       1.0  0.8001011599999998  0.38006789999999985  0.9769763899999999  1.0000
  H   H83       1.0  0.9413588499999999  0.36807103999999996  0.19115922999999999  1.0000
  H   H84       1.0  0.5200771499999998  0.6046428099999998  0.8691357299999998  1.0000
  H   H85       1.0  0.51395616  0.27978140999999995  0.43625793  1.0000
  H   H86       1.0  0.19989995  0.40310115  0.023028019999999996  1.0000
  H   H87       1.0  0.6046428  0.5200771499999999  0.3691357199999999  1.0000
  H   H88       1.0  0.7202112  0.57770922  0.0637374  1.0000
  H   H89       1.0  0.4222907900000001  0.2797888  0.4362626  1.0000
  H   H90       1.0  0.30711562  0.58213468  0.8827781999999998  1.0000
  H   H91       1.0  0.58214822  0.07564763000000001  0.38277586  1.0000
  H   H92       1.0  0.23166454  0.48090407  0.08664855  1.0000
  H   H93       1.0  0.15648071999999996  0.51395132  0.93625655  1.0000
  H   H94       1.0  0.63192896  0.05864114999999998  0.30884077  1.0000
  H   H95       1.0  0.48090404999999997  0.23166456  0.58664855  1.0000
  H   H96       1.0  0.39425147  0.7683381100000001  0.41335641  1.0000
  H   H97       1.0  0.7683381  0.39425146  0.91335641  1.0000
  H   H98       1.0  0.65537565  0.46410261999999997  0.29473988  1.0000
  H   H99       1.0  0.6928844  0.41786533  0.11722179  1.0000
  H   H100      1.0  0.5777093699999999  0.8435219599999999  0.56373671  1.0000
  H   H101      1.0  0.2797887999999999  0.42229078999999997  0.9362625899999998  1.0000
  H   H102      1.0  0.73549878  0.4799302100000001  0.63086433  1.0000
  H   H103      1.0  0.6199321  0.19989883  0.52302361  1.0000
  H   H104      1.0  0.23166187999999996  0.60574854  0.08664359  1.0000
  H   H105      1.0  0.39424889999999996  0.64502587  0.41335658999999997  1.0000
  H   H106      1.0  0.35497968  0.48089469000000007  0.08664484999999998  1.0000
  H   H107      1.0  0.39537032  0.15095151  0.63085392  1.0000
  H   H108      1.0  0.57770921  0.7202112  0.5637374  1.0000
  H   H109      1.0  0.5200698  0.2645012200000001  0.86913567  1.0000
  H   H110      1.0  0.34463282999999995  0.1693791699999999  0.7052514899999999  1.0000
  H   H111      1.0  0.41786532  0.6928844  0.61722181  1.0000
  H   H112      1.0  0.32312126  0.61993439  0.02302248  1.0000
  C   C1        1.0  0.05725464999999998  0.35405239999999993  0.20437425999999997  1.0000
  C   C2        1.0  0.65848724  0.23477151999999998  0.21979881  1.0000
  C   C3        1.0  0.97802016  0.7351311099999999  0.13699833999999997  1.0000
  C   C4        1.0  0.26486737  0.34100934  0.36300359  1.0000
  C   C5        1.0  0.7555198599999999  0.5390796899999999  0.6446065099999999  1.0000
  C   C6        1.0  0.58497883  0.23191743  0.54434517  1.0000
  C   C7        1.0  0.23475907  0.061312019999999995  0.71977911  1.0000
  C   C8        1.0  0.06131387  0.9850098000000002  0.21978994  1.0000
  C   C9        1.0  0.19524704  0.011972480000000008  0.32118749  1.0000
  C   C10       1.0  0.34151277  0.76522848  0.78020119  1.0000
  C   C11       1.0  0.23191740999999993  0.58497883  0.04434517  1.0000
  C   C12       1.0  0.58971734  0.41671928  0.3801086  1.0000
  C   C13       1.0  0.0149902  0.9386861399999998  0.28021006  1.0000
  C   C14       1.0  0.011966360000000028  0.62595776  0.82119153  1.0000
  C   C15       1.0  0.9850098  0.06131384  0.71978993  1.0000
  C   C16       1.0  0.64594606  0.35285745  0.29562122  1.0000
  C   C17       1.0  0.03662376999999999  0.41028276  0.11988814999999999  1.0000
  C   C18       1.0  0.23191982000000003  0.4593773400000001  0.04435035  1.0000
  C   C19       1.0  0.35284357  0.14968714  0.79560766  1.0000
  C   C20       1.0  0.59813883  0.34101199  0.36300559  1.0000
  C   C21       1.0  0.82527083  0.11551205999999994  0.6861699799999998  1.0000
  C   C22       1.0  0.53907219  0.38907596  0.14460216  1.0000
  C   C23       1.0  0.58328059  0.70960683  0.11989475  1.0000
  C   C24       1.0  0.3662755  0.44961249999999997  0.42388243  1.0000
  C   C25       1.0  0.31242356  0.45937434  0.04434743  1.0000
  C   C26       1.0  0.70960683  0.58328054  0.61989476  1.0000
  C   C27       1.0  0.45937733  0.23191983999999996  0.54435036  1.0000
  C   C28       1.0  0.025698069999999993  0.63371629  0.07611378  1.0000
  C   C29       1.0  0.76522843  0.34151274  0.28020116  1.0000
  C   C30       1.0  0.025707090000000002  0.44237334999999994  0.07610233  1.0000
  C   C31       1.0  0.18850772999999996  0.47848974  0.95699541  1.0000
  C   C32       1.0  0.03661909  0.70959823  0.11989312  1.0000
  C   C33       1.0  0.45937433  0.31242358  0.54434743  1.0000
  C   C34       1.0  0.35285743  0.64594608  0.79562123  1.0000
  C   C35       1.0  0.9427453900000001  0.64594757  0.79562572  1.0000
  C   C36       1.0  0.41502118000000005  0.7680825800000001  0.45565483  1.0000
  C   C37       1.0  0.19524574  0.30920086  0.32118558  1.0000
  C   C38       1.0  0.9880275099999999  0.80475295  0.17881251  1.0000
  C   C39       1.0  0.44961218  0.36627553999999996  0.92388249  1.0000
  C   C40       1.0  0.26849219  0.4784897699999999  0.9569950899999999  1.0000
  C   C41       1.0  0.011972450000000029  0.19524703  0.82118748  1.0000
  C   C42       1.0  0.6875764300000001  0.54062568  0.95565257  1.0000
  C   C43       1.0  0.3662837099999999  0.97430211  0.42388623999999997  1.0000
  C   C44       1.0  0.62595364  0.30920898  0.3211946  1.0000
  C   C45       1.0  0.46092772999999987  0.6109240499999999  0.8553978299999998  1.0000
  C   C46       1.0  0.57068015  0.82528535  0.18617646  1.0000
  C   C47       1.0  0.11551203999999998  0.82527084  0.18616997  1.0000
  C   C48       1.0  0.63372449  0.55038759  0.57611755  1.0000
  C   C49       1.0  0.6391273799999998  0.4293266  0.31383153999999996  1.0000
  C   C50       1.0  0.46092028  0.2444801299999999  0.85539348  1.0000
  C   C51       1.0  0.76524096  0.9386879399999999  0.28022091  1.0000
  C   C52       1.0  0.24448014  0.46092031  0.3553935  1.0000
  C   C53       1.0  0.30920086999999996  0.19524572999999998  0.8211855599999999  1.0000
  C   C54       1.0  0.38909199  0.10554441000000003  0.64459811  1.0000
  C   C55       1.0  0.58971724  0.9633762099999998  0.38011186  1.0000
  C   C56       1.0  0.6589906399999998  0.73513265  0.13699640999999999  1.0000
  C   C57       1.0  0.10554443999999999  0.38909199  0.1445981  1.0000
  C   C58       1.0  0.4496042099999999  0.5576160799999998  0.9238887099999997  1.0000
  C   C59       1.0  0.3092089899999999  0.62595365  0.8211946099999999  1.0000
  C   C60       1.0  0.6459476  0.94274536  0.29562575  1.0000
  C   C61       1.0  0.34101195  0.59813883  0.8630056  1.0000
  C   C62       1.0  0.9880336100000001  0.37404225  0.17880846  1.0000
  C   C63       1.0  0.61092405  0.46092776999999996  0.35539782999999997  1.0000
  C   C64       1.0  0.7351310900000001  0.9780200999999998  0.63699834  1.0000
  C   C65       1.0  0.610908  0.89445557  0.35540190999999993  1.0000
  C   C66       1.0  0.8047542699999999  0.6907991399999999  0.6788144299999997  1.0000
  C   C67       1.0  0.07156363  0.32154386  0.24998921  1.0000
  C   C68       1.0  0.44237331  0.02570662999999999  0.57610227  1.0000
  C   C69       1.0  0.40186117  0.65898803  0.6369944  1.0000
  C   C70       1.0  0.35405241  0.057254619999999985  0.70437426  1.0000
  C   C71       1.0  0.41671933000000005  0.58971735  0.8801086  1.0000
  C   C72       1.0  0.59814225  0.021975260000000017  0.36300338  1.0000
  C   C73       1.0  0.9386880099999997  0.7652408799999999  0.7802208599999998  1.0000
  C   C74       1.0  0.76808258  0.4150211800000001  0.95565483  1.0000
  C   C75       1.0  0.658988  0.40186117  0.13699441  1.0000
  C   C76       1.0  0.37404225  0.9880336299999999  0.67880847  1.0000
  C   C77       1.0  0.11551301999999998  0.36088011999999997  0.18616080999999995  1.0000
  C   C78       1.0  0.6875763299999997  0.41502030999999984  0.9556559599999999  1.0000
  C   C79       1.0  0.82528533  0.57068013  0.68617646  1.0000
  C   C80       1.0  0.97430256  0.36628375000000013  0.9238863  1.0000
  C   C81       1.0  0.4102827499999999  0.03662383999999996  0.6198881499999999  1.0000
  C   C82       1.0  0.8047529599999999  0.9880275499999998  0.6788125199999998  1.0000
  C   C83       1.0  0.9284334599999999  0.07156655999999993  0.75  1.0000
  C   C84       1.0  0.42931988  0.17471467  0.81382353  1.0000
  C   C85       1.0  0.38907595  0.53907224  0.64460217  1.0000
  C   C86       1.0  0.4102826499999999  0.58328072  0.6198914  1.0000
  C   C87       1.0  0.8503076400000001  0.05725312999999998  0.70438529  1.0000
  C   C88       1.0  0.63911987  0.8844869800000001  0.3138392  1.0000
  C   C89       1.0  0.64714252  0.35405393  0.20437875999999996  1.0000
  C   C90       1.0  0.7680801799999999  0.54062268  0.9556496499999998  1.0000
  C   C91       1.0  0.5576266699999999  0.9742930899999999  0.4238977  1.0000
  C   C92       1.0  0.98500871  0.65849484  0.71980512  1.0000
  C   C93       1.0  0.9633761199999998  0.58971725  0.8801118399999999  1.0000
  C   C94       1.0  0.5406226599999999  0.76808017  0.4556496399999999  1.0000
  C   C95       1.0  0.9633808099999999  0.29040177  0.88010687  1.0000
  C   C96       1.0  0.75550204  0.10554022000000003  0.64460074  1.0000
  C   C97       1.0  0.55039524  0.44238397  0.07611138  1.0000
  C   C98       1.0  0.5503872699999999  0.63372452  0.07611759999999998  1.0000
  C   C99       1.0  0.9427468899999999  0.14969236  0.79561472  1.0000
  C   C100      1.0  0.93868617  0.014990200000000014  0.78021004  1.0000
  C   C101      1.0  0.97429353  0.55762669  0.92389775  1.0000
  C   C102      1.0  0.23477152999999998  0.65848724  0.71979882  1.0000
  C   C103      1.0  0.58497969  0.31242367  0.54434404  1.0000
  C   C104      1.0  0.32154386  0.07156365  0.7499892  1.0000
  C   C105      1.0  0.44238394  0.55039557  0.57611133  1.0000
  C   C106      1.0  0.02197530000000006  0.59814225  0.86300339  1.0000
  C   C107      1.0  0.26486889  0.021979870000000012  0.36300167  1.0000
  C   C108      1.0  0.2903931699999999  0.41671945  0.38010524  1.0000
  C   C109      1.0  0.061312069999999996  0.23475904  0.21977909999999998  1.0000
  C   C110      1.0  0.6471563899999999  0.8503128799999999  0.20439232999999996  1.0000
  C   C111      1.0  0.69079103  0.37404637  0.17880538  1.0000
  C   C112      1.0  0.6259577499999999  0.011966380000000004  0.32119155  1.0000
  C   C113      1.0  0.10554025999999998  0.75550203  0.14460072  1.0000
  C   C114      1.0  0.35405391999999997  0.6471425599999999  0.7043787699999999  1.0000
  C   C115      1.0  0.55761605  0.44960453999999994  0.42388866  1.0000
  C   C116      1.0  0.52151023  0.73150781  0.54300491  1.0000
  C   C117      1.0  0.32155254  0.67844747  0.75  1.0000
  C   C118      1.0  0.5706734  0.36087264  0.18616845  1.0000
  C   C119      1.0  0.36087262  0.5706734  0.68616846  1.0000
  C   C120      1.0  0.70959823  0.03661916  0.61989314  1.0000
  C   C121      1.0  0.52151026  0.81149227  0.54300458  1.0000
  C   C122      1.0  0.47848977  0.2684922  0.45699509  1.0000
  C   C123      1.0  0.05725314999999999  0.8503076400000001  0.20438526999999998  1.0000
  C   C124      1.0  0.41671951  0.2903931600000001  0.88010523  1.0000
  C   C125      1.0  0.8944556199999999  0.61090802  0.85540189  1.0000
  C   C126      1.0  0.47848973  0.18850773  0.45699542  1.0000
  C   C127      1.0  0.658495  0.98500872  0.21980513  1.0000
  C   C128      1.0  0.36088012  0.11551303999999997  0.68616081  1.0000
  C   C129      1.0  0.58328076  0.41028267  0.11989139999999998  1.0000
  C   C130      1.0  0.88448697  0.63911987  0.81383918  1.0000
  C   C131      1.0  0.8844879399999999  0.1747291699999999  0.8138300299999999  1.0000
  C   C132      1.0  0.67845615  0.92843636  0.25001081  1.0000
  C   C133      1.0  0.5406256699999997  0.6875764299999999  0.45565256999999987  1.0000
  C   C134      1.0  0.17471467  0.42931986000000005  0.31382354  1.0000
  C   C135      1.0  0.01499127  0.34150504  0.2801949  1.0000
  C   C136      1.0  0.41502030000000006  0.68757635  0.45565596  1.0000
  C   C137      1.0  0.8944597999999998  0.2444979599999999  0.8553992699999999  1.0000
  C   C138      1.0  0.7315078  0.52151024  0.043004909999999986  1.0000
  C   C139      1.0  0.37404634999999997  0.69079103  0.67880539  1.0000
  C   C140      1.0  0.42932662  0.63912738  0.81383155  1.0000
  C   C141      1.0  0.53907965  0.75551987  0.1446065  1.0000
  C   C142      1.0  0.34100930999999984  0.2648673899999999  0.8630035999999999  1.0000
  C   C143      1.0  0.24449797  0.89445976  0.35539927999999993  1.0000
  C   C144      1.0  0.07156655  0.92843346  0.25  1.0000
  C   C145      1.0  0.02197991999999987  0.26486891999999995  0.8630016699999998  1.0000
  C   C146      1.0  0.34150497  0.014991310000000011  0.78019489  1.0000
  C   C147      1.0  0.14968713  0.3528436  0.29560767  1.0000
  C   C148      1.0  0.9780247699999999  0.40185774  0.13699663  1.0000
  C   C149      1.0  0.2904017699999999  0.9633809  0.38010687999999987  1.0000
  C   C150      1.0  0.9284363499999999  0.67845608  0.75001076  1.0000
  C   C151      1.0  0.67844744  0.32155254  0.24999998  1.0000
  C   C152      1.0  0.81149227  0.52151028  0.04300459  1.0000
  C   C153      1.0  0.73513263  0.65899067  0.63699641  1.0000
  C   C154      1.0  0.14969236  0.9427468600000001  0.29561472  1.0000
  C   C155      1.0  0.63371626  0.025697600000000008  0.57611372  1.0000
  C   C156      1.0  0.40185776  0.9780247099999999  0.63699662  1.0000
  C   C157      1.0  0.17472916  0.88448795  0.31383003  1.0000
  C   C158      1.0  0.31242365  0.58497969  0.04434404  1.0000
  C   C159      1.0  0.85031287  0.6471564  0.70439231  1.0000
  C   C160      1.0  0.69079915  0.80475426  0.17881441999999997  1.0000
  N   N1        1.0  0.50759354  0.19075209000000004  0.51518349  1.0000
  N   N2        1.0  0.8092479299999998  0.49240646999999993  0.98481652  1.0000
  N   N3        1.0  0.49240646  0.8092479199999999  0.48481652  1.0000
  N   N4        1.0  0.32442953  0.50759451  0.01518309  1.0000
  N   N5        1.0  0.19075208  0.50759354  0.015183489999999997  1.0000
  N   N6        1.0  0.50759451  0.32442954  0.5151831  1.0000
  N   N7        1.0  0.4924054899999999  0.67557046  0.4848168999999999  1.0000
  N   N8        1.0  0.6755704499999999  0.4924055  0.9848169  1.0000
  O   O1        1.0  0.40019527  0.04097299000000001  0.449601  1.0000
  O   O2        1.0  0.59131017  0.45057323  0.05036892  1.0000
  O   O3        1.0  0.40021703  0.40868794999999997  0.4496128099999999  1.0000
  O   O4        1.0  0.08381771  0.45937081  0.06834869  1.0000
  O   O5        1.0  0.91619819  0.39105686000000006  0.93163424  1.0000
  O   O6        1.0  0.6089431799999999  0.08380173999999992  0.5683657799999999  1.0000
  O   O7        1.0  0.5405852099999999  0.51545367  0.4316088799999999  1.0000
  O   O8        1.0  0.5154705  0.39101697  0.93161286  1.0000
  O   O9        1.0  0.9590269399999999  0.5998047  0.050398969999999994  1.0000
  O   O10       1.0  0.54941397  0.04095573000000002  0.44960845  1.0000
  O   O11       1.0  0.4505860099999999  0.9590444399999999  0.55039162  1.0000
  O   O12       1.0  0.59980483  0.95902718  0.55039907  1.0000
  O   O13       1.0  0.51545386  0.54058517  0.9316089  1.0000
  O   O14       1.0  0.04095546999999998  0.54941399  0.9496083399999999  1.0000
  O   O15       1.0  0.4594148  0.48454628999999994  0.56839112  1.0000
  O   O16       1.0  0.59131214  0.59978289  0.05038713  1.0000
  O   O17       1.0  0.04097273999999999  0.4001951399999999  0.9496009099999999  1.0000
  O   O18       1.0  0.60898309  0.48452963999999993  0.56838716  1.0000
  O   O19       1.0  0.39101689  0.5154703  0.43161283  1.0000
  O   O20       1.0  0.59978299  0.59131202  0.55038722  1.0000
  O   O21       1.0  0.54062917  0.9161822299999999  0.43165132999999994  1.0000
  O   O22       1.0  0.48454646  0.45941475  0.06839114  1.0000
  O   O23       1.0  0.4086879699999999  0.40021709999999994  0.9496128  1.0000
  O   O24       1.0  0.48452983  0.60898316  0.06838718  1.0000
  O   O25       1.0  0.9590441999999999  0.45058604999999996  0.05039153  1.0000
  O   O26       1.0  0.4086900299999998  0.5494268099999999  0.9496309499999998  1.0000
  O   O27       1.0  0.39105695999999995  0.9161983499999998  0.43163422999999995  1.0000
  O   O28       1.0  0.08380159  0.60894307  0.06836578  1.0000
  O   O29       1.0  0.45937087  0.08381792999999996  0.56834867  1.0000
  O   O30       1.0  0.9161819899999998  0.5406290999999999  0.9316513499999999  1.0000
  O   O31       1.0  0.5494267999999999  0.40868991999999993  0.44963103999999987  1.0000
  O   O32       1.0  0.4505732  0.59131005  0.55036899  1.0000
  F   F1        1.0  0.69432622  0.05559410999999998  0.25267375  1.0000
  F   F2        1.0  0.32361164  0.035860030000000015  0.8261986  1.0000
  F   F3        1.0  0.03585999000000001  0.32361168  0.32619863  1.0000
  F   F4        1.0  0.01089947  0.8810093799999998  0.29740998  1.0000
  F   F5        1.0  0.9891005299999999  0.11899061000000001  0.70259001  1.0000
  F   F6        1.0  0.94164913  0.94441493  0.7473324599999999  1.0000
  F   F7        1.0  0.9974270099999999  0.96415479  0.17378289  1.0000
  F   F8        1.0  0.32362392000000006  0.7903673  0.82620516  1.0000
  F   F9        1.0  0.9974128599999998  0.20959440999999998  0.17378065  1.0000
  F   F10       1.0  0.9641547799999999  0.99742699  0.6737828999999997  1.0000
  F   F11       1.0  0.30567383999999986  0.9444059399999999  0.7473262799999999  1.0000
  F   F12       1.0  0.9444058600000002  0.30567383  0.2473263  1.0000
  F   F13       1.0  0.05838688999999997  0.1970425  0.2526552  1.0000
  F   F14       1.0  0.055594049999999895  0.6943261299999999  0.7526736899999997  1.0000
  F   F15       1.0  0.11899060999999998  0.9891005399999999  0.20259001  1.0000
  F   F16       1.0  0.80295749  0.9416131299999999  0.2473448  1.0000
  F   F17       1.0  0.20959445999999995  0.99741285  0.6737806599999999  1.0000
  F   F18       1.0  0.67638837  0.9641400099999998  0.17380141999999998  1.0000
  F   F19       1.0  0.0025730000000000175  0.03584521000000002  0.82621708  1.0000
  F   F20       1.0  0.9416131300000001  0.8029574  0.74734475  1.0000
  F   F21       1.0  0.78647903  0.88101472  0.29743376  1.0000
  F   F22       1.0  0.0025871400000000186  0.79040551  0.82621931  1.0000
  F   F23       1.0  0.5836184199999999  0.9890743  0.20260200999999997  1.0000
  F   F24       1.0  0.9890743999999998  0.5836182599999999  0.7026022099999998  1.0000
  F   F25       1.0  0.69431569  0.19705375  0.25266483  1.0000
  F   F26       1.0  0.05558508999999992  0.05835083999999993  0.7526674999999999  1.0000
  F   F27       1.0  0.94441491  0.94164912  0.24733247  1.0000
  F   F28       1.0  0.30568432000000006  0.80294627  0.74733517  1.0000
  F   F29       1.0  0.19705375000000006  0.69431567  0.75266486  1.0000
  F   F30       1.0  0.8029462  0.30568429  0.24733513  1.0000
  F   F31       1.0  0.7865019899999999  0.41638845  0.29740004  1.0000
  F   F32       1.0  0.19704254  0.05838692  0.75265521  1.0000
  F   F33       1.0  0.05835083  0.0555851  0.25266751  1.0000
  F   F34       1.0  0.9641400099999999  0.67638798  0.6738013099999999  1.0000
  F   F35       1.0  0.79036725  0.32362387  0.32620511  1.0000
  F   F36       1.0  0.21349799999999994  0.58361154  0.7025999499999999  1.0000
  F   F37       1.0  0.11898530000000002  0.21352097999999997  0.20256624  1.0000
  F   F38       1.0  0.41638844999999997  0.78650201  0.7974000399999998  1.0000
  F   F39       1.0  0.03584520000000001  0.0025729799999999817  0.32621711  1.0000
  F   F40       1.0  0.67637612  0.2096327  0.17379485999999997  1.0000
  F   F41       1.0  0.20963269  0.67637608  0.67379485  1.0000
  F   F42       1.0  0.4163815899999999  0.01092577999999994  0.7973980399999999  1.0000
  F   F43       1.0  0.88101476  0.78647895  0.79743372  1.0000
  F   F44       1.0  0.58361155  0.21349799  0.20259994  1.0000
  F   F45       1.0  0.8810093999999999  0.010899490000000013  0.79740998  1.0000
  F   F46       1.0  0.213521  0.11898525000000003  0.70256622  1.0000
  F   F47       1.0  0.010925700000000012  0.41638163  0.29739803  1.0000
  F   F48       1.0  0.79040556  0.0025871499999999756  0.32621933999999997  1.0000
