data_image0
_chemical_formula_structural       U8P24H72C24O72
_chemical_formula_sum              "U8 P24 H72 C24 O72"
_cell_length_a       23.96873528
_cell_length_b       10.98384916
_cell_length_c       12.95753195
_cell_angle_alpha    90.0
_cell_angle_beta     87.66895153
_cell_angle_gamma    90.0

_symmetry_space_group_name_H-M    'P 1'
_symmetry_Int_Tables_number       1

loop_
  _symmetry_equiv_pos_as_xyz
  'x,y,z'

loop_
  _atom_site_type_symbol
  _atom_site_label
  _atom_site_symmetry_multiplicity
  _atom_site_fract_x
  _atom_site_fract_y
  _atom_site_fract_z
  _atom_site_occupancy
  U   U1        1.0  0.30723466  0.04368264  0.08046779999999999  1.0000
  U   U2        1.0  0.8072346599999999  0.54368264  0.08046779999999999  1.0000
  U   U3        1.0  0.69276534  0.04368264  0.4195321999999999  1.0000
  U   U4        1.0  0.19276534  0.54368264  0.4195321999999999  1.0000
  U   U5        1.0  0.69276534  0.9563173600000001  0.9195321999999998  1.0000
  U   U6        1.0  0.19276534  0.45631736  0.9195321999999998  1.0000
  U   U7        1.0  0.30723466  0.9563173600000001  0.5804678  1.0000
  U   U8        1.0  0.8072346599999999  0.45631736  0.5804678  1.0000
  P   P1        1.0  0.32981662000000006  0.15656365  0.3545707  1.0000
  P   P2        1.0  0.22522795  0.28685267  0.16253880999999998  1.0000
  P   P3        1.0  0.42981158  0.0907274  0.08059960999999997  1.0000
  P   P4        1.0  0.82981662  0.65656365  0.3545707  1.0000
  P   P5        1.0  0.7252279499999998  0.78685267  0.16253880999999998  1.0000
  P   P6        1.0  0.92981158  0.5907274  0.08059960999999997  1.0000
  P   P7        1.0  0.67018338  0.15656365  0.1454293  1.0000
  P   P8        1.0  0.77477205  0.28685267  0.33746119  1.0000
  P   P9        1.0  0.57018842  0.0907274  0.41940038999999996  1.0000
  P   P10       1.0  0.17018338  0.65656365  0.1454293  1.0000
  P   P11       1.0  0.27477205  0.78685267  0.33746119  1.0000
  P   P12       1.0  0.07018842  0.5907274  0.41940038999999996  1.0000
  P   P13       1.0  0.67018338  0.84343635  0.6454293  1.0000
  P   P14       1.0  0.77477205  0.71314733  0.8374611899999999  1.0000
  P   P15       1.0  0.57018842  0.9092726000000002  0.91940039  1.0000
  P   P16       1.0  0.17018338  0.34343635  0.6454293  1.0000
  P   P17       1.0  0.27477205  0.21314733  0.8374611899999999  1.0000
  P   P18       1.0  0.07018842000000002  0.40927260000000004  0.91940039  1.0000
  P   P19       1.0  0.32981662  0.84343635  0.8545706999999999  1.0000
  P   P20       1.0  0.22522795  0.71314733  0.66253881  1.0000
  P   P21       1.0  0.42981158  0.9092726000000002  0.5805996099999999  1.0000
  P   P22       1.0  0.82981662  0.34343635  0.8545706999999999  1.0000
  P   P23       1.0  0.7252279499999998  0.21314733  0.66253881  1.0000
  P   P24       1.0  0.92981158  0.40927260000000004  0.5805996099999999  1.0000
  H   H1        1.0  0.41224426  0.18957533  0.27765092  1.0000
  H   H2        1.0  0.16019985  0.39990093000000004  0.23134282999999994  1.0000
  H   H3        1.0  0.50455815  0.16159509  0.15952606  1.0000
  H   H4        1.0  0.24995754999999995  0.27901461  0.37453224  1.0000
  H   H5        1.0  0.31192387  0.36435216  0.38521804  1.0000
  H   H6        1.0  0.32306981  0.32303243000000004  0.1767252  1.0000
  H   H7        1.0  0.28223911  0.44371043  0.22690315999999994  1.0000
  H   H8        1.0  0.45576986  0.0177086  0.91660446  1.0000
  H   H9        1.0  0.50443184  0.13003661  0.9531606099999999  1.0000
  H   H10       1.0  0.9122442599999998  0.68957533  0.27765092  1.0000
  H   H11       1.0  0.66019985  0.8999009300000002  0.23134282999999994  1.0000
  H   H12       1.0  0.00455815  0.66159509  0.15952606  1.0000
  H   H13       1.0  0.74995755  0.7790146100000002  0.37453224  1.0000
  H   H14       1.0  0.8119238699999998  0.86435216  0.38521804  1.0000
  H   H15       1.0  0.82306981  0.82303243  0.1767252  1.0000
  H   H16       1.0  0.7822391100000002  0.9437104300000001  0.22690315999999994  1.0000
  H   H17       1.0  0.9557698599999999  0.5177086  0.91660446  1.0000
  H   H18       1.0  0.004431840000000002  0.63003661  0.9531606099999999  1.0000
  H   H19       1.0  0.58775574  0.18957533  0.22234908  1.0000
  H   H20       1.0  0.8398001499999999  0.39990093000000004  0.26865717  1.0000
  H   H21       1.0  0.4954418499999999  0.16159509  0.34047394  1.0000
  H   H22       1.0  0.75004245  0.27901461  0.12546776  1.0000
  H   H23       1.0  0.6880761299999999  0.36435216  0.11478195999999997  1.0000
  H   H24       1.0  0.6769301899999999  0.32303243000000004  0.32327479999999986  1.0000
  H   H25       1.0  0.71776089  0.44371043  0.27309684  1.0000
  H   H26       1.0  0.54423014  0.0177086  0.5833955399999999  1.0000
  H   H27       1.0  0.49556816  0.13003661  0.5468393899999999  1.0000
  H   H28       1.0  0.08775574  0.68957533  0.22234908  1.0000
  H   H29       1.0  0.33980015  0.8999009300000002  0.26865717  1.0000
  H   H30       1.0  0.99544185  0.66159509  0.34047394  1.0000
  H   H31       1.0  0.25004245  0.7790146100000002  0.12546776  1.0000
  H   H32       1.0  0.18807613  0.86435216  0.11478195999999997  1.0000
  H   H33       1.0  0.17693018999999996  0.82303243  0.32327479999999986  1.0000
  H   H34       1.0  0.21776089  0.9437104300000001  0.27309684  1.0000
  H   H35       1.0  0.04423014  0.5177086  0.5833955399999999  1.0000
  H   H36       1.0  0.99556816  0.63003661  0.5468393899999999  1.0000
  H   H37       1.0  0.58775574  0.81042467  0.7223490799999998  1.0000
  H   H38       1.0  0.8398001499999999  0.60009907  0.76865717  1.0000
  H   H39       1.0  0.4954418499999999  0.83840491  0.8404739399999998  1.0000
  H   H40       1.0  0.75004245  0.72098539  0.62546776  1.0000
  H   H41       1.0  0.6880761299999999  0.63564784  0.6147819599999998  1.0000
  H   H42       1.0  0.6769301899999999  0.67696757  0.8232748  1.0000
  H   H43       1.0  0.71776089  0.55628957  0.77309684  1.0000
  H   H44       1.0  0.54423014  0.9822914  0.08339554  1.0000
  H   H45       1.0  0.49556816  0.86996339  0.04683938999999999  1.0000
  H   H46       1.0  0.08775574000000001  0.31042467  0.7223490799999998  1.0000
  H   H47       1.0  0.33980015  0.10009907  0.76865717  1.0000
  H   H48       1.0  0.99544185  0.33840491  0.8404739399999998  1.0000
  H   H49       1.0  0.25004245  0.22098539  0.62546776  1.0000
  H   H50       1.0  0.18807613000000004  0.13564784  0.6147819599999998  1.0000
  H   H51       1.0  0.17693018999999996  0.17696757  0.8232748  1.0000
  H   H52       1.0  0.21776089  0.05628957  0.77309684  1.0000
  H   H53       1.0  0.04423014  0.4822914  0.08339554  1.0000
  H   H54       1.0  0.99556816  0.36996339  0.04683938999999999  1.0000
  H   H55       1.0  0.41224426  0.81042467  0.77765092  1.0000
  H   H56       1.0  0.16019985000000003  0.60009907  0.7313428299999998  1.0000
  H   H57       1.0  0.50455815  0.83840491  0.65952606  1.0000
  H   H58       1.0  0.24995754999999995  0.72098539  0.8745322399999997  1.0000
  H   H59       1.0  0.31192387  0.63564784  0.8852180399999998  1.0000
  H   H60       1.0  0.32306981000000007  0.67696757  0.6767251999999999  1.0000
  H   H61       1.0  0.28223911  0.55628957  0.7269031599999999  1.0000
  H   H62       1.0  0.45576986  0.9822914  0.41660446  1.0000
  H   H63       1.0  0.50443184  0.86996339  0.45316061  1.0000
  H   H64       1.0  0.9122442599999998  0.31042467  0.77765092  1.0000
  H   H65       1.0  0.66019985  0.10009907  0.7313428299999998  1.0000
  H   H66       1.0  0.0045581499999999995  0.33840491  0.65952606  1.0000
  H   H67       1.0  0.74995755  0.22098539  0.8745322399999997  1.0000
  H   H68       1.0  0.8119238699999998  0.13564784  0.8852180399999998  1.0000
  H   H69       1.0  0.82306981  0.17696757  0.6767251999999999  1.0000
  H   H70       1.0  0.78223911  0.05628957  0.7269031599999999  1.0000
  H   H71       1.0  0.9557698599999999  0.4822914  0.41660446  1.0000
  H   H72       1.0  0.004431839999999999  0.36996339  0.45316061  1.0000
  C   C1        1.0  0.29130881  0.29648712  0.3372279199999999  1.0000
  C   C2        1.0  0.2860042  0.34386935  0.22659612999999995  1.0000
  C   C3        1.0  0.48065834999999996  0.050178640000000004  0.9806980999999998  1.0000
  C   C4        1.0  0.7913088099999999  0.7964871200000001  0.3372279199999999  1.0000
  C   C5        1.0  0.7860042  0.84386935  0.22659612999999995  1.0000
  C   C6        1.0  0.9806583499999998  0.55017864  0.9806980999999998  1.0000
  C   C7        1.0  0.7086911899999998  0.29648712  0.16277208  1.0000
  C   C8        1.0  0.7139957999999998  0.34386935  0.27340387  1.0000
  C   C9        1.0  0.51934165  0.050178640000000004  0.5193019  1.0000
  C   C10       1.0  0.20869119  0.7964871200000001  0.16277208  1.0000
  C   C11       1.0  0.21399579999999999  0.84386935  0.27340387  1.0000
  C   C12       1.0  0.01934165  0.55017864  0.5193019  1.0000
  C   C13       1.0  0.7086911899999998  0.7035128800000001  0.66277208  1.0000
  C   C14       1.0  0.7139957999999998  0.65613065  0.7734038699999998  1.0000
  C   C15       1.0  0.51934165  0.9498213600000001  0.019301899999999997  1.0000
  C   C16       1.0  0.20869119  0.20351288  0.66277208  1.0000
  C   C17       1.0  0.21399579999999999  0.15613065  0.7734038699999998  1.0000
  C   C18       1.0  0.01934165  0.44982136000000006  0.019301899999999997  1.0000
  C   C19       1.0  0.29130881  0.7035128800000001  0.8372279199999998  1.0000
  C   C20       1.0  0.2860042  0.65613065  0.72659613  1.0000
  C   C21       1.0  0.48065834999999996  0.9498213600000001  0.4806980999999999  1.0000
  C   C22       1.0  0.7913088099999999  0.20351288  0.8372279199999998  1.0000
  C   C23       1.0  0.7860042  0.15613065  0.72659613  1.0000
  C   C24       1.0  0.9806583499999998  0.44982136000000006  0.4806980999999999  1.0000
  O   O1        1.0  0.31680539  0.11752430000000001  0.46573538  1.0000
  O   O2        1.0  0.3186256  0.06421172  0.27038528999999994  1.0000
  O   O3        1.0  0.39569988  0.19055882000000002  0.34859916  1.0000
  O   O4        1.0  0.17233017  0.31404357  0.23827828  1.0000
  O   O5        1.0  0.22119665  0.35967362  0.06324672  1.0000
  O   O6        1.0  0.22856725  0.14923537  0.15040182  1.0000
  O   O7        1.0  0.40374541999999997  0.97650044  0.12727113  1.0000
  O   O8        1.0  0.38387114  0.17669304  0.04587718  1.0000
  O   O9        1.0  0.46384954  0.16598208  0.16625815  1.0000
  O   O10       1.0  0.81680539  0.6175243  0.46573538  1.0000
  O   O11       1.0  0.8186256  0.56421172  0.27038528999999994  1.0000
  O   O12       1.0  0.8956998799999999  0.69055882  0.34859916  1.0000
  O   O13       1.0  0.6723301699999998  0.81404357  0.23827828  1.0000
  O   O14       1.0  0.7211966499999999  0.85967362  0.06324672  1.0000
  O   O15       1.0  0.7285672499999999  0.6492353700000001  0.15040182  1.0000
  O   O16       1.0  0.90374542  0.47650044000000014  0.12727113  1.0000
  O   O17       1.0  0.88387114  0.67669304  0.04587718  1.0000
  O   O18       1.0  0.96384954  0.66598208  0.16625815  1.0000
  O   O19       1.0  0.68319461  0.11752430000000001  0.03426462  1.0000
  O   O20       1.0  0.6813744  0.06421172  0.22961471  1.0000
  O   O21       1.0  0.60430012  0.19055882000000002  0.15140084  1.0000
  O   O22       1.0  0.82766983  0.31404357  0.26172171999999994  1.0000
  O   O23       1.0  0.7788033499999998  0.35967362  0.4367532799999999  1.0000
  O   O24       1.0  0.77143275  0.14923537  0.34959818  1.0000
  O   O25       1.0  0.59625458  0.97650044  0.37272887  1.0000
  O   O26       1.0  0.61612886  0.17669304  0.45412282  1.0000
  O   O27       1.0  0.53615046  0.16598208  0.33374185  1.0000
  O   O28       1.0  0.18319460999999998  0.6175243  0.03426462  1.0000
  O   O29       1.0  0.1813744  0.56421172  0.22961471  1.0000
  O   O30       1.0  0.10430012  0.69055882  0.15140084  1.0000
  O   O31       1.0  0.32766983  0.81404357  0.26172171999999994  1.0000
  O   O32       1.0  0.27880335  0.85967362  0.4367532799999999  1.0000
  O   O33       1.0  0.27143275  0.6492353700000001  0.34959818  1.0000
  O   O34       1.0  0.09625458  0.47650044000000014  0.37272887  1.0000
  O   O35       1.0  0.11612885999999999  0.67669304  0.45412282  1.0000
  O   O36       1.0  0.03615046000000001  0.66598208  0.33374185  1.0000
  O   O37       1.0  0.68319461  0.8824757  0.5342646199999999  1.0000
  O   O38       1.0  0.6813744  0.9357882800000002  0.72961471  1.0000
  O   O39       1.0  0.60430012  0.80944118  0.6514008399999998  1.0000
  O   O40       1.0  0.82766983  0.68595643  0.7617217199999998  1.0000
  O   O41       1.0  0.7788033499999998  0.6403263800000001  0.9367532799999998  1.0000
  O   O42       1.0  0.77143275  0.85076463  0.8495981799999998  1.0000
  O   O43       1.0  0.59625458  0.02349956  0.87272887  1.0000
  O   O44       1.0  0.61612886  0.82330696  0.95412282  1.0000
  O   O45       1.0  0.53615046  0.83401792  0.83374185  1.0000
  O   O46       1.0  0.18319460999999998  0.3824757  0.5342646199999999  1.0000
  O   O47       1.0  0.1813744  0.43578828  0.72961471  1.0000
  O   O48       1.0  0.10430012  0.30944118  0.6514008399999998  1.0000
  O   O49       1.0  0.32766983  0.18595643000000003  0.7617217199999998  1.0000
  O   O50       1.0  0.27880335  0.14032638  0.9367532799999998  1.0000
  O   O51       1.0  0.27143275  0.35076463  0.8495981799999998  1.0000
  O   O52       1.0  0.09625458  0.52349956  0.87272887  1.0000
  O   O53       1.0  0.11612885999999999  0.32330696  0.95412282  1.0000
  O   O54       1.0  0.03615046  0.33401792  0.83374185  1.0000
  O   O55       1.0  0.31680539  0.8824757  0.9657353799999999  1.0000
  O   O56       1.0  0.3186256  0.9357882800000002  0.7703852899999998  1.0000
  O   O57       1.0  0.39569988  0.80944118  0.84859916  1.0000
  O   O58       1.0  0.17233017  0.68595643  0.73827828  1.0000
  O   O59       1.0  0.22119665  0.6403263800000001  0.56324672  1.0000
  O   O60       1.0  0.22856725  0.85076463  0.65040182  1.0000
  O   O61       1.0  0.40374541999999997  0.02349956  0.6272711299999998  1.0000
  O   O62       1.0  0.38387114  0.82330696  0.54587718  1.0000
  O   O63       1.0  0.46384954  0.83401792  0.6662581499999998  1.0000
  O   O64       1.0  0.81680539  0.3824757  0.9657353799999999  1.0000
  O   O65       1.0  0.8186256  0.43578828  0.7703852899999998  1.0000
  O   O66       1.0  0.8956998799999999  0.30944118  0.84859916  1.0000
  O   O67       1.0  0.6723301699999998  0.18595643000000003  0.73827828  1.0000
  O   O68       1.0  0.7211966499999999  0.14032638  0.56324672  1.0000
  O   O69       1.0  0.7285672499999999  0.35076463  0.65040182  1.0000
  O   O70       1.0  0.90374542  0.52349956  0.6272711299999998  1.0000
  O   O71       1.0  0.88387114  0.32330696  0.54587718  1.0000
  O   O72       1.0  0.96384954  0.33401792  0.6662581499999998  1.0000
