data_image0
_chemical_formula_structural       Mn2O9HOHC3HCHC2HC5HCHC2HC2Mn2O9HOHC3HCHC2HC5HCHC2HC2Mn2O9HOHC3HCHC2HC5HCHC2HC2Mn2O9HOHC3HCHC2HC5HCHC2HC2Mn2O9HOHC3HCHC2HC5HCHC2HC2Mn2O9HOHC3HCHC2HC5HCHC2HC2Mn2O9HOHC3HCHC2HC5HCHC2HC2Mn2O9HOHC3HCHC2HC5HCHC2HC2
_chemical_formula_sum              "Mn16 O80 H64 C128"
_cell_length_a       18.2507
_cell_length_b       18.1651
_cell_length_c       18.8518
_cell_angle_alpha    90.0
_cell_angle_beta     90.0
_cell_angle_gamma    90.0

_space_group_name_H-M_alt    "P 1"
_space_group_IT_number       1

loop_
  _space_group_symop_operation_xyz
  'x, y, z'

loop_
  _atom_site_type_symbol
  _atom_site_label
  _atom_site_symmetry_multiplicity
  _atom_site_fract_x
  _atom_site_fract_y
  _atom_site_fract_z
  _atom_site_occupancy
  Mn  Mn1       1.0  0.22371000000000002  0.69334  0.08938  1.0000
  Mn  Mn2       1.0  0.22053000000000003  0.4914  0.09417  1.0000
  O   O1        1.0  0.23448999999999998  0.38399  0.13491  1.0000
  O   O2        1.0  0.31773  0.52377  0.14579  1.0000
  O   O3        1.0  0.22958  0.50278  0.48788  1.0000
  O   O4        1.0  0.64147  0.53542  0.33741  1.0000
  O   O5        1.0  0.28815  0.4036000000000001  0.52109  1.0000
  O   O6        1.0  0.63283  0.65704  0.34648  1.0000
  O   O7        1.0  0.2764400000000001  0.27736  0.17102  1.0000
  O   O8        1.0  0.31121  0.64584  0.14813  1.0000
  O   O9        1.0  0.3162  0.25589  0.29935  1.0000
  H   H1        1.0  0.3156  0.2476  0.2566  1.0000
  O   O10       1.0  0.4147  0.7213  0.2004  1.0000
  H   H2        1.0  0.3758  0.7137  0.1801  1.0000
  C   C1        1.0  0.25382  0.34154  0.18274  1.0000
  C   C2        1.0  0.25136  0.36426  0.25903  1.0000
  C   C3        1.0  0.2167  0.42873  0.27816  1.0000
  H   H3        1.0  0.1931  0.4565  0.24359999999999998  1.0000
  C   C4        1.0  0.2163  0.45304999999999995  0.34828  1.0000
  H   H4        1.0  0.193  0.4969  0.3602  1.0000
  C   C5        1.0  0.2507  0.41174  0.39994  1.0000
  C   C6        1.0  0.28366  0.34554  0.38221  1.0000
  H   H5        1.0  0.3058  0.3172000000000001  0.4173  1.0000
  C   C7        1.0  0.28382  0.32117  0.31219  1.0000
  C   C8        1.0  0.25542  0.4400900000000001  0.47402  1.0000
  C   C9        1.0  0.34118  0.58561  0.16266  1.0000
  C   C10       1.0  0.4122  0.5892800000000001  0.20365  1.0000
  C   C11       1.0  0.4454  0.5247  0.2266  1.0000
  H   H6        1.0  0.424  0.47950000000000004  0.2162  1.0000
  C   C12       1.0  0.5099  0.52706  0.2646  1.0000
  H   H7        1.0  0.5317  0.48350000000000004  0.2796  1.0000
  C   C13       1.0  0.54238  0.59439  0.28078  1.0000
  C   C14       1.0  0.51002  0.6584  0.25786  1.0000
  H   H8        1.0  0.5317  0.7035  0.2681  1.0000
  C   C15       1.0  0.4451  0.65631  0.21948000000000004  1.0000
  C   C16       1.0  0.61145  0.59602  0.32482  1.0000
  Mn  Mn3       1.0  0.27629  0.30666  0.58938  1.0000
  Mn  Mn4       1.0  0.27947  0.5086  0.59417  1.0000
  O   O11       1.0  0.26551  0.61601  0.63491  1.0000
  O   O12       1.0  0.18227  0.47623  0.64579  1.0000
  O   O13       1.0  0.27042  0.49722  0.98788  1.0000
  O   O14       1.0  0.8585300000000002  0.46458  0.83741  1.0000
  O   O15       1.0  0.21185  0.5964  0.02109  1.0000
  O   O16       1.0  0.86717  0.34296  0.84648  1.0000
  O   O17       1.0  0.22356  0.7226400000000002  0.67102  1.0000
  O   O18       1.0  0.18879  0.35416  0.64813  1.0000
  O   O19       1.0  0.1838  0.74411  0.79935  1.0000
  H   H9        1.0  0.1844  0.7524  0.7566  1.0000
  O   O20       1.0  0.0853  0.2787  0.7004  1.0000
  H   H10       1.0  0.1242  0.2863  0.6801  1.0000
  C   C17       1.0  0.24618000000000004  0.65846  0.68274  1.0000
  C   C18       1.0  0.24864000000000003  0.63574  0.75903  1.0000
  C   C19       1.0  0.2833  0.57127  0.77816  1.0000
  H   H11       1.0  0.3069  0.5435  0.7436  1.0000
  C   C20       1.0  0.2837  0.54695  0.84828  1.0000
  H   H12       1.0  0.307  0.5031  0.8601999999999999  1.0000
  C   C21       1.0  0.2493  0.58826  0.89994  1.0000
  C   C22       1.0  0.21634  0.65446  0.88221  1.0000
  H   H13       1.0  0.1942  0.6828000000000001  0.9173  1.0000
  C   C23       1.0  0.21618  0.67883  0.81219  1.0000
  C   C24       1.0  0.24458  0.55991  0.9740199999999999  1.0000
  C   C25       1.0  0.15882  0.41439  0.66266  1.0000
  C   C26       1.0  0.0878  0.41072000000000003  0.70365  1.0000
  C   C27       1.0  0.0546  0.4753  0.7266  1.0000
  H   H14       1.0  0.076  0.5205  0.7162  1.0000
  C   C28       1.0  0.9901000000000001  0.4729400000000001  0.7646  1.0000
  H   H15       1.0  0.9683000000000002  0.5165  0.7796  1.0000
  C   C29       1.0  0.9576200000000001  0.40561000000000014  0.78078  1.0000
  C   C30       1.0  0.98998  0.3416  0.75786  1.0000
  H   H16       1.0  0.9683000000000002  0.2965  0.7681  1.0000
  C   C31       1.0  0.05489999999999999  0.34369  0.71948  1.0000
  C   C32       1.0  0.88855  0.40398  0.82482  1.0000
  Mn  Mn5       1.0  0.77629  0.19334000000000007  0.41062  1.0000
  Mn  Mn6       1.0  0.77947  0.9914000000000001  0.40583  1.0000
  O   O21       1.0  0.76551  0.88399  0.36509  1.0000
  O   O22       1.0  0.68227  0.02377  0.35421  1.0000
  O   O23       1.0  0.77042  0.00278  0.012119999999999999  1.0000
  O   O24       1.0  0.35853  0.03542000000000001  0.16259  1.0000
  O   O25       1.0  0.7118500000000001  0.9036  0.97891  1.0000
  O   O26       1.0  0.36717  0.15704  0.15352  1.0000
  O   O27       1.0  0.72356  0.77736  0.32898  1.0000
  O   O28       1.0  0.68879  0.14584  0.35187  1.0000
  O   O29       1.0  0.6838000000000001  0.7558900000000002  0.20065  1.0000
  H   H17       1.0  0.6844  0.7476000000000003  0.2434  1.0000
  O   O30       1.0  0.5853  0.22130000000000002  0.2996  1.0000
  H   H18       1.0  0.6242  0.21370000000000006  0.3199  1.0000
  C   C33       1.0  0.74618  0.8415400000000001  0.31726  1.0000
  C   C34       1.0  0.7486400000000001  0.86426  0.24096999999999996  1.0000
  C   C35       1.0  0.7833000000000001  0.92873  0.22184  1.0000
  H   H19       1.0  0.8069000000000001  0.9565  0.2564  1.0000
  C   C36       1.0  0.7837000000000001  0.95305  0.15172  1.0000
  H   H20       1.0  0.807  0.9969  0.1398  1.0000
  C   C37       1.0  0.7493  0.91174  0.10006  1.0000
  C   C38       1.0  0.71634  0.8455400000000002  0.11779  1.0000
  H   H21       1.0  0.6942  0.8172  0.0827  1.0000
  C   C39       1.0  0.7161800000000001  0.8211700000000002  0.18780999999999998  1.0000
  C   C40       1.0  0.74458  0.9400900000000001  0.02598  1.0000
  C   C41       1.0  0.65882  0.08561  0.33734  1.0000
  C   C42       1.0  0.5878  0.08928  0.29635  1.0000
  C   C43       1.0  0.5546  0.0247  0.2734  1.0000
  H   H22       1.0  0.576  0.9795  0.2838  1.0000
  C   C44       1.0  0.4901  0.02706  0.23540000000000003  1.0000
  H   H23       1.0  0.4683  0.9835  0.2204  1.0000
  C   C45       1.0  0.4576200000000001  0.09439  0.21921999999999997  1.0000
  C   C46       1.0  0.4899800000000001  0.15840000000000004  0.24214  1.0000
  H   H24       1.0  0.4683  0.2035  0.23189999999999997  1.0000
  C   C47       1.0  0.5549  0.15631  0.28052  1.0000
  C   C48       1.0  0.38855  0.09602000000000002  0.17518  1.0000
  Mn  Mn7       1.0  0.7237100000000001  0.80666  0.9106199999999999  1.0000
  Mn  Mn8       1.0  0.72053  0.0086  0.90583  1.0000
  O   O31       1.0  0.73449  0.11601000000000002  0.8650899999999999  1.0000
  O   O32       1.0  0.81773  0.97623  0.8542099999999999  1.0000
  O   O33       1.0  0.72958  0.99722  0.51212  1.0000
  O   O34       1.0  0.14147  0.9645800000000001  0.66259  1.0000
  O   O35       1.0  0.78815  0.0964  0.47891000000000006  1.0000
  O   O36       1.0  0.13283  0.84296  0.65352  1.0000
  O   O37       1.0  0.77644  0.22264  0.82898  1.0000
  O   O38       1.0  0.81121  0.85416  0.85187  1.0000
  O   O39       1.0  0.8162  0.24411000000000002  0.70065  1.0000
  H   H25       1.0  0.8156  0.2524  0.7434  1.0000
  O   O40       1.0  0.9146999999999998  0.7787000000000001  0.7996  1.0000
  H   H26       1.0  0.8758  0.7863000000000002  0.8199  1.0000
  C   C49       1.0  0.75382  0.15846  0.81726  1.0000
  C   C50       1.0  0.75136  0.13574000000000003  0.74097  1.0000
  C   C51       1.0  0.7167  0.07127  0.72184  1.0000
  H   H27       1.0  0.6931  0.0435  0.7564  1.0000
  C   C52       1.0  0.7163  0.04695  0.65172  1.0000
  H   H28       1.0  0.693  0.0031000000000000003  0.6398  1.0000
  C   C53       1.0  0.7507  0.08826000000000003  0.60006  1.0000
  C   C54       1.0  0.78366  0.15446  0.61779  1.0000
  H   H29       1.0  0.8058  0.1828  0.5827  1.0000
  C   C55       1.0  0.78382  0.17883  0.68781  1.0000
  C   C56       1.0  0.75542  0.05991  0.52598  1.0000
  C   C57       1.0  0.84118  0.91439  0.83734  1.0000
  C   C58       1.0  0.9122000000000001  0.91072  0.79635  1.0000
  C   C59       1.0  0.9454  0.9753  0.7734  1.0000
  H   H30       1.0  0.924  0.0205  0.7838  1.0000
  C   C60       1.0  0.0099  0.97294  0.7354  1.0000
  H   H31       1.0  0.0317  0.016500000000000004  0.7204  1.0000
  C   C61       1.0  0.04238  0.9056100000000001  0.71922  1.0000
  C   C62       1.0  0.01002  0.8416  0.74214  1.0000
  H   H32       1.0  0.0317  0.7965  0.7319  1.0000
  C   C63       1.0  0.9451  0.8436900000000003  0.78052  1.0000
  C   C64       1.0  0.11145  0.90398  0.67518  1.0000
  Mn  Mn9       1.0  0.77629  0.30666  0.9106199999999999  1.0000
  Mn  Mn10      1.0  0.77947  0.5086  0.90583  1.0000
  O   O41       1.0  0.76551  0.61601  0.8650899999999999  1.0000
  O   O42       1.0  0.68227  0.47623  0.8542099999999999  1.0000
  O   O43       1.0  0.77042  0.49722  0.51212  1.0000
  O   O44       1.0  0.35853  0.46458  0.66259  1.0000
  O   O45       1.0  0.7118500000000001  0.5964  0.47891000000000006  1.0000
  O   O46       1.0  0.36717  0.34296  0.65352  1.0000
  O   O47       1.0  0.72356  0.7226400000000002  0.82898  1.0000
  O   O48       1.0  0.68879  0.35416  0.85187  1.0000
  O   O49       1.0  0.6838000000000001  0.74411  0.70065  1.0000
  H   H33       1.0  0.6844  0.7524  0.7434  1.0000
  O   O50       1.0  0.5853  0.2787  0.7996  1.0000
  H   H34       1.0  0.6242  0.2863  0.8199  1.0000
  C   C65       1.0  0.74618  0.65846  0.81726  1.0000
  C   C66       1.0  0.7486400000000001  0.63574  0.74097  1.0000
  C   C67       1.0  0.7833000000000001  0.57127  0.72184  1.0000
  H   H35       1.0  0.8069000000000001  0.5435  0.7564  1.0000
  C   C68       1.0  0.7837000000000001  0.54695  0.65172  1.0000
  H   H36       1.0  0.807  0.5031  0.6398  1.0000
  C   C69       1.0  0.7493  0.58826  0.60006  1.0000
  C   C70       1.0  0.71634  0.65446  0.61779  1.0000
  H   H37       1.0  0.6942  0.6828000000000001  0.5827  1.0000
  C   C71       1.0  0.7161800000000001  0.67883  0.68781  1.0000
  C   C72       1.0  0.74458  0.55991  0.52598  1.0000
  C   C73       1.0  0.65882  0.41439  0.83734  1.0000
  C   C74       1.0  0.5878  0.41072000000000003  0.79635  1.0000
  C   C75       1.0  0.5546  0.4753  0.7734  1.0000
  H   H38       1.0  0.576  0.5205  0.7838  1.0000
  C   C76       1.0  0.4901  0.4729400000000001  0.7354  1.0000
  H   H39       1.0  0.4683  0.5165  0.7204  1.0000
  C   C77       1.0  0.4576200000000001  0.40561000000000014  0.71922  1.0000
  C   C78       1.0  0.4899800000000001  0.3416  0.74214  1.0000
  H   H40       1.0  0.4683  0.2965  0.7319  1.0000
  C   C79       1.0  0.5549  0.34369  0.78052  1.0000
  C   C80       1.0  0.38855  0.40398  0.67518  1.0000
  Mn  Mn11      1.0  0.7237100000000001  0.69334  0.41062  1.0000
  Mn  Mn12      1.0  0.72053  0.4914  0.40583  1.0000
  O   O51       1.0  0.73449  0.38399  0.36509  1.0000
  O   O52       1.0  0.81773  0.52377  0.35421  1.0000
  O   O53       1.0  0.72958  0.50278  0.012119999999999999  1.0000
  O   O54       1.0  0.14147  0.53542  0.16259  1.0000
  O   O55       1.0  0.78815  0.4036000000000001  0.97891  1.0000
  O   O56       1.0  0.13283  0.65704  0.15352  1.0000
  O   O57       1.0  0.77644  0.27736  0.32898  1.0000
  O   O58       1.0  0.81121  0.64584  0.35187  1.0000
  O   O59       1.0  0.8162  0.25589  0.20065  1.0000
  H   H41       1.0  0.8156  0.2476  0.2434  1.0000
  O   O60       1.0  0.9146999999999998  0.7213  0.2996  1.0000
  H   H42       1.0  0.8758  0.7137  0.3199  1.0000
  C   C81       1.0  0.75382  0.34154  0.31726  1.0000
  C   C82       1.0  0.75136  0.36426  0.24096999999999996  1.0000
  C   C83       1.0  0.7167  0.42873  0.22184  1.0000
  H   H43       1.0  0.6931  0.4565  0.2564  1.0000
  C   C84       1.0  0.7163  0.45304999999999995  0.15172  1.0000
  H   H44       1.0  0.693  0.4969  0.1398  1.0000
  C   C85       1.0  0.7507  0.41174  0.10006  1.0000
  C   C86       1.0  0.78366  0.34554  0.11779  1.0000
  H   H45       1.0  0.8058  0.3172000000000001  0.0827  1.0000
  C   C87       1.0  0.78382  0.32117  0.18780999999999998  1.0000
  C   C88       1.0  0.75542  0.4400900000000001  0.02598  1.0000
  C   C89       1.0  0.84118  0.58561  0.33734  1.0000
  C   C90       1.0  0.9122000000000001  0.5892800000000001  0.29635  1.0000
  C   C91       1.0  0.9454  0.5247  0.2734  1.0000
  H   H46       1.0  0.924  0.47950000000000004  0.2838  1.0000
  C   C92       1.0  0.0099  0.52706  0.23540000000000003  1.0000
  H   H47       1.0  0.0317  0.48350000000000004  0.2204  1.0000
  C   C93       1.0  0.04238  0.59439  0.21921999999999997  1.0000
  C   C94       1.0  0.01002  0.6584  0.24214  1.0000
  H   H48       1.0  0.0317  0.7035  0.23189999999999997  1.0000
  C   C95       1.0  0.9451  0.65631  0.28052  1.0000
  C   C96       1.0  0.11145  0.59602  0.17518  1.0000
  Mn  Mn13      1.0  0.22371000000000002  0.80666  0.58938  1.0000
  Mn  Mn14      1.0  0.22053000000000003  0.0086  0.59417  1.0000
  O   O61       1.0  0.23448999999999998  0.11601000000000002  0.63491  1.0000
  O   O62       1.0  0.31773  0.97623  0.64579  1.0000
  O   O63       1.0  0.22958  0.99722  0.98788  1.0000
  O   O64       1.0  0.64147  0.9645800000000001  0.83741  1.0000
  O   O65       1.0  0.28815  0.0964  0.02109  1.0000
  O   O66       1.0  0.63283  0.84296  0.84648  1.0000
  O   O67       1.0  0.2764400000000001  0.22264  0.67102  1.0000
  O   O68       1.0  0.31121  0.85416  0.64813  1.0000
  O   O69       1.0  0.3162  0.24411000000000002  0.79935  1.0000
  H   H49       1.0  0.3156  0.2524  0.7566  1.0000
  O   O70       1.0  0.4147  0.7787000000000001  0.7004  1.0000
  H   H50       1.0  0.3758  0.7863000000000002  0.6801  1.0000
  C   C97       1.0  0.25382  0.15846  0.68274  1.0000
  C   C98       1.0  0.25136  0.13574000000000003  0.75903  1.0000
  C   C99       1.0  0.2167  0.07127  0.77816  1.0000
  H   H51       1.0  0.1931  0.0435  0.7436  1.0000
  C   C100      1.0  0.2163  0.04695  0.84828  1.0000
  H   H52       1.0  0.193  0.0031000000000000003  0.8601999999999999  1.0000
  C   C101      1.0  0.2507  0.08826000000000003  0.89994  1.0000
  C   C102      1.0  0.28366  0.15446  0.88221  1.0000
  H   H53       1.0  0.3058  0.1828  0.9173  1.0000
  C   C103      1.0  0.28382  0.17883  0.81219  1.0000
  C   C104      1.0  0.25542  0.05991  0.9740199999999999  1.0000
  C   C105      1.0  0.34118  0.91439  0.66266  1.0000
  C   C106      1.0  0.4122  0.91072  0.70365  1.0000
  C   C107      1.0  0.4454  0.9753  0.7266  1.0000
  H   H54       1.0  0.424  0.0205  0.7162  1.0000
  C   C108      1.0  0.5099  0.97294  0.7646  1.0000
  H   H55       1.0  0.5317  0.016500000000000004  0.7796  1.0000
  C   C109      1.0  0.54238  0.9056100000000001  0.78078  1.0000
  C   C110      1.0  0.51002  0.8416  0.75786  1.0000
  H   H56       1.0  0.5317  0.7965  0.7681  1.0000
  C   C111      1.0  0.4451  0.8436900000000003  0.71948  1.0000
  C   C112      1.0  0.61145  0.90398  0.82482  1.0000
  Mn  Mn15      1.0  0.27629  0.19334000000000007  0.08938  1.0000
  Mn  Mn16      1.0  0.27947  0.9914000000000001  0.09417  1.0000
  O   O71       1.0  0.26551  0.88399  0.13491  1.0000
  O   O72       1.0  0.18227  0.02377  0.14579  1.0000
  O   O73       1.0  0.27042  0.00278  0.48788  1.0000
  O   O74       1.0  0.8585300000000002  0.03542000000000001  0.33741  1.0000
  O   O75       1.0  0.21185  0.9036  0.52109  1.0000
  O   O76       1.0  0.86717  0.15704  0.34648  1.0000
  O   O77       1.0  0.22356  0.77736  0.17102  1.0000
  O   O78       1.0  0.18879  0.14584  0.14813  1.0000
  O   O79       1.0  0.1838  0.7558900000000002  0.29935  1.0000
  H   H57       1.0  0.1844  0.7476000000000003  0.2566  1.0000
  O   O80       1.0  0.0853  0.22130000000000002  0.2004  1.0000
  H   H58       1.0  0.1242  0.21370000000000006  0.1801  1.0000
  C   C113      1.0  0.24618000000000004  0.8415400000000001  0.18274  1.0000
  C   C114      1.0  0.24864000000000003  0.86426  0.25903  1.0000
  C   C115      1.0  0.2833  0.92873  0.27816  1.0000
  H   H59       1.0  0.3069  0.9565  0.24359999999999998  1.0000
  C   C116      1.0  0.2837  0.95305  0.34828  1.0000
  H   H60       1.0  0.307  0.9969  0.3602  1.0000
  C   C117      1.0  0.2493  0.91174  0.39994  1.0000
  C   C118      1.0  0.21634  0.8455400000000002  0.38221  1.0000
  H   H61       1.0  0.1942  0.8172  0.4173  1.0000
  C   C119      1.0  0.21618  0.8211700000000002  0.31219  1.0000
  C   C120      1.0  0.24458  0.9400900000000001  0.47402  1.0000
  C   C121      1.0  0.15882  0.08561  0.16266  1.0000
  C   C122      1.0  0.0878  0.08928  0.20365  1.0000
  C   C123      1.0  0.0546  0.0247  0.2266  1.0000
  H   H62       1.0  0.076  0.9795  0.2162  1.0000
  C   C124      1.0  0.9901000000000001  0.02706  0.2646  1.0000
  H   H63       1.0  0.9683000000000002  0.9835  0.2796  1.0000
  C   C125      1.0  0.9576200000000001  0.09439  0.28078  1.0000
  C   C126      1.0  0.98998  0.15840000000000004  0.25786  1.0000
  H   H64       1.0  0.9683000000000002  0.2035  0.2681  1.0000
  C   C127      1.0  0.05489999999999999  0.15631  0.21948000000000004  1.0000
  C   C128      1.0  0.88855  0.09602000000000002  0.32482  1.0000
