data_image0
_chemical_formula_structural       Cu4H40C68N4O16
_chemical_formula_sum              "Cu4 H40 C68 N4 O16"
_cell_length_a       15.97921
_cell_length_b       19.92686
_cell_length_c       19.897850000000002
_cell_angle_alpha    73.53696
_cell_angle_beta     66.75275
_cell_angle_gamma    66.74237

_symmetry_space_group_name_H-M    'P 1'
_symmetry_Int_Tables_number       1

loop_
  _symmetry_equiv_pos_as_xyz
  'x,y,z'

loop_
  _atom_site_type_symbol
  _atom_site_label
  _atom_site_symmetry_multiplicity
  _atom_site_fract_x
  _atom_site_fract_y
  _atom_site_fract_z
  _atom_site_occupancy
  Cu  Cu1       1.0  0.5226300000000004  0.52791  0.5312  1.0000
  Cu  Cu2       1.0  0.08711999999999986  0.9699400000000002  0.9720299999999998  1.0000
  Cu  Cu3       1.0  0.91655  0.029360000000000004  0.03268  1.0000
  Cu  Cu4       1.0  0.4747799999999999  0.4663  0.46973  1.0000
  H   H1        1.0  0.66487  0.49028  0.24426999999999996  1.0000
  H   H2        1.0  0.7824200000000001  0.52377  0.12493999999999998  1.0000
  H   H3        1.0  0.8528499999999999  0.64285  0.23420999999999997  1.0000
  H   H4        1.0  0.73446  0.60938  0.3527399999999999  1.0000
  H   H5        1.0  0.9187200000000001  0.6381399999999999  0.95844  1.0000
  H   H6        1.0  0.90443  0.0002299999999999982  0.25819  1.0000
  H   H7        1.0  0.9339600000000007  0.9695700000000002  0.37905  1.0000
  H   H8        1.0  0.23285000000000017  0.8573999999999998  0.27345  1.0000
  H   H9        1.0  0.20251000000000005  0.8884299999999999  0.15267  1.0000
  H   H10       1.0  0.04175000000000001  0.86715  0.54876  1.0000
  H   H11       1.0  0.09643999999999996  0.744  0.99371  1.0000
  H   H12       1.0  0.06340999999999998  0.62446  0.02716  1.0000
  H   H13       1.0  0.7650300000000004  0.73518  0.13683  1.0000
  H   H14       1.0  0.7993000000000001  0.85407  0.10333  1.0000
  H   H15       1.0  0.97793  0.45748  0.13071  1.0000
  H   H16       1.0  0.35972000000000015  0.75491  0.48721  1.0000
  H   H17       1.0  0.24230000000000004  0.8765599999999999  0.4558499999999999  1.0000
  H   H18       1.0  0.11387999999999993  0.76484  0.3877  1.0000
  H   H19       1.0  0.23292  0.64383  0.41756  1.0000
  H   H20       1.0  0.05814999999999998  0.04417  0.3654  1.0000
  H   H21       1.0  0.33871  0.49705999999999995  0.75668  1.0000
  H   H22       1.0  0.21382000000000015  0.47100999999999993  0.8752199999999998  1.0000
  H   H23       1.0  0.11760999999999999  0.37509999999999993  0.76236  1.0000
  H   H24       1.0  0.24280000000000004  0.4013799999999999  0.64413  1.0000
  H   H25       1.0  0.06211999999999999  0.37059  0.03881  1.0000
  H   H26       1.0  0.10621000000000001  0.014259999999999984  0.74206  1.0000
  H   H27       1.0  0.07648000000000008  0.049040000000000014  0.6205199999999998  1.0000
  H   H28       1.0  0.77154  0.12381999999999997  0.7329  1.0000
  H   H29       1.0  0.8020600000000004  0.09014000000000003  0.85391  1.0000
  H   H30       1.0  0.97144  0.13541000000000003  0.45230999999999993  1.0000
  H   H31       1.0  0.8938200000000001  0.25759999999999994  0.0008599999999999998  1.0000
  H   H32       1.0  0.91927  0.38031  0.9662699999999999  1.0000
  H   H33       1.0  0.22181999999999993  0.2755699999999999  0.86358  1.0000
  H   H34       1.0  0.19516000000000006  0.15337  0.8987399999999999  1.0000
  H   H35       1.0  0.0033400000000001367  0.55125  0.8661799999999997  1.0000
  H   H36       1.0  0.6657300000000005  0.24178  0.49594  1.0000
  H   H37       1.0  0.78821  0.12382  0.52595  1.0000
  H   H38       1.0  0.8618700000000005  0.23539999999999997  0.6404799999999999  1.0000
  H   H39       1.0  0.7403200000000001  0.35309999999999997  0.6086899999999997  1.0000
  H   H40       1.0  0.9542600000000004  0.9583199999999998  0.63607  1.0000
  C   C1        1.0  0.62167  0.52831  0.37752  1.0000
  C   C2        1.0  0.6921000000000005  0.54771  0.30625  1.0000
  C   C3        1.0  0.7064999999999999  0.52349  0.24155  1.0000
  C   C4        1.0  0.7721100000000001  0.54233  0.17484  1.0000
  C   C5        1.0  0.8259400000000001  0.5856  0.1711  1.0000
  C   C6        1.0  0.8116  0.60978  0.23607  1.0000
  C   C7        1.0  0.7453100000000005  0.5912  0.30243999999999993  1.0000
  C   C8        1.0  0.9511699999999998  0.57961  0.9756  1.0000
  C   C9        1.0  0.03409999999999997  0.9677  0.12556  1.0000
  C   C10       1.0  0.051800000000000006  0.94712  0.19767  1.0000
  C   C11       1.0  0.9761499999999999  0.96947  0.26202  1.0000
  C   C12       1.0  0.9925500000000004  0.9521699999999998  0.32939  1.0000
  C   C13       1.0  0.08556000000000005  0.91207  0.33388  1.0000
  C   C14       1.0  0.16111999999999996  0.8883600000000001  0.26980999999999994  1.0000
  C   C15       1.0  0.14423000000000008  0.9057699999999999  0.20255999999999993  1.0000
  C   C16       1.0  0.02649999999999999  0.9258899999999999  0.52785  1.0000
  C   C17       1.0  0.96952  0.87732  0.029759999999999998  1.0000
  C   C18       1.0  0.9500600000000003  0.80638  0.04719  1.0000
  C   C19       1.0  0.02421999999999997  0.74146  0.025019999999999997  1.0000
  C   C20       1.0  0.005760000000000008  0.67477  0.04376  1.0000
  C   C21       1.0  0.9122400000000002  0.67163  0.08497  1.0000
  C   C22       1.0  0.8376300000000002  0.7369599999999998  0.10611  1.0000
  C   C23       1.0  0.8566300000000002  0.8033299999999999  0.08744999999999999  1.0000
  C   C24       1.0  0.9835700000000004  0.4779  0.07281  1.0000
  C   C25       1.0  0.37527000000000005  0.62031  0.47144  1.0000
  C   C26       1.0  0.30383  0.69204  0.45406  1.0000
  C   C27       1.0  0.30521  0.7578499999999999  0.46579  1.0000
  C   C28       1.0  0.23985000000000004  0.82544  0.4484099999999999  1.0000
  C   C29       1.0  0.17076999999999995  0.82818  0.41977  1.0000
  C   C30       1.0  0.16827000000000006  0.7622699999999999  0.40907  1.0000
  C   C31       1.0  0.23467  0.69497  0.42553  1.0000
  C   C32       1.0  0.03510999999999998  0.025410000000000002  0.42466  1.0000
  C   C33       1.0  0.37189000000000005  0.46748  0.62195  1.0000
  C   C34       1.0  0.29845000000000005  0.45103  0.69287  1.0000
  C   C35       1.0  0.28957000000000005  0.47086  0.75836  1.0000
  C   C36       1.0  0.21996000000000004  0.45627  0.8244999999999999  1.0000
  C   C37       1.0  0.15758  0.4213199999999999  0.82652  1.0000
  C   C38       1.0  0.16640999999999992  0.40143000000000006  0.76095  1.0000
  C   C39       1.0  0.23615000000000003  0.41602000000000006  0.6950899999999998  1.0000
  C   C40       1.0  0.030869999999999998  0.42922  0.02126  1.0000
  C   C41       1.0  0.9737400000000004  0.030030000000000022  0.87751  1.0000
  C   C42       1.0  0.95605  0.05023000000000002  0.8053599999999997  1.0000
  C   C43       1.0  0.033390000000000045  0.038239999999999975  0.73934  1.0000
  C   C44       1.0  0.01681000000000002  0.05755  0.67179  1.0000
  C   C45       1.0  0.9221599999999999  0.08828  0.66921  1.0000
  C   C46       1.0  0.8445800000000004  0.10051  0.73519  1.0000
  C   C47       1.0  0.86161  0.08195  0.80249  1.0000
  C   C48       1.0  0.98616  0.07671000000000001  0.47358  1.0000
  C   C49       1.0  0.027790000000000033  0.12472  0.9733199999999999  1.0000
  C   C50       1.0  0.042899999999999966  0.19776999999999992  0.95228  1.0000
  C   C51       1.0  0.9653200000000003  0.26218  0.97122  1.0000
  C   C52       1.0  0.9795200000000003  0.33054000000000006  0.95175  1.0000
  C   C53       1.0  0.07230000000000003  0.33592  0.9125899999999999  1.0000
  C   C54       1.0  0.1500700000000001  0.2715099999999999  0.89326  1.0000
  C   C55       1.0  0.13526000000000005  0.20339999999999997  0.9128099999999999  1.0000
  C   C56       1.0  0.9989300000000004  0.53103  0.92391  1.0000
  C   C57       1.0  0.62337  0.37549  0.53136  1.0000
  C   C58       1.0  0.69522  0.30499000000000004  0.55036  1.0000
  C   C59       1.0  0.7093999999999999  0.23987  0.52713  1.0000
  C   C60       1.0  0.7776399999999999  0.17403  0.54401  1.0000
  C   C61       1.0  0.83388  0.17170999999999997  0.58469  1.0000
  C   C62       1.0  0.81899  0.23678  0.60883  1.0000
  C   C63       1.0  0.7507400000000003  0.3023899999999999  0.59158  1.0000
  C   C64       1.0  0.97726  0.9771600000000003  0.57681  1.0000
  C   C65       1.0  0.9429599999999999  0.55363  0.05057  1.0000
  C   C66       1.0  0.05541000000000002  0.9492899999999999  0.45113  1.0000
  C   C67       1.0  0.03930000000000009  0.45518999999999993  0.94623  1.0000
  C   C68       1.0  0.95607  0.053279999999999994  0.55036  1.0000
  N   N1        1.0  0.8936  0.60372  0.10317  1.0000
  N   N2        1.0  0.10382999999999999  0.8967  0.40153  1.0000
  N   N3        1.0  0.08730999999999996  0.40526999999999996  0.89371  1.0000
  N   N4        1.0  0.9050900000000004  0.10547999999999999  0.60057  1.0000
  O   O1        1.0  0.6128900000000002  0.55278  0.4338999999999999  1.0000
  O   O2        1.0  0.57473  0.48884  0.3774099999999999  1.0000
  O   O3        1.0  0.10716999999999996  0.94905  0.06817  1.0000
  O   O4        1.0  0.9471100000000005  0.0028900000000000006  0.1259  1.0000
  O   O5        1.0  0.8968100000000003  0.93404  0.05081999999999999  1.0000
  O   O6        1.0  0.05667000000000005  0.87681  0.99576  1.0000
  O   O7        1.0  0.38281  0.56437  0.44708  1.0000
  O   O8        1.0  0.42413  0.62022  0.50948  1.0000
  O   O9        1.0  0.37638999999999995  0.44719000000000003  0.5644699999999999  1.0000
  O   O10       1.0  0.42517000000000005  0.50086  0.62343  1.0000
  O   O11       1.0  0.9006100000000001  0.05005  0.93423  1.0000
  O   O12       1.0  0.060500000000000005  0.99447  0.87758  1.0000
  O   O13       1.0  0.10170000000000007  0.06852999999999998  0.9530299999999999  1.0000
  O   O14       1.0  0.9418000000000003  0.12333  0.01009  1.0000
  O   O15       1.0  0.61991  0.43350000000000005  0.5499299999999999  1.0000
  O   O16       1.0  0.57045  0.3734700000000001  0.49784  1.0000
