data_image0
_chemical_formula_structural       Zn4H12C20N16
_chemical_formula_sum              "Zn4 H12 C20 N16"
_cell_length_a       10.113191
_cell_length_b       11.41943441
_cell_length_c       11.42176252
_cell_angle_alpha    78.65219534
_cell_angle_beta     63.69320629999999
_cell_angle_gamma    63.692312089999994

_space_group_name_H-M_alt    "P 1"
_space_group_IT_number       1

loop_
  _space_group_symop_operation_xyz
  'x, y, z'

loop_
  _atom_site_type_symbol
  _atom_site_label
  _atom_site_symmetry_multiplicity
  _atom_site_fract_x
  _atom_site_fract_y
  _atom_site_fract_z
  _atom_site_occupancy
  Zn  Zn1       1.0  0.26718337  0.45106957  0.8566927099999999  1.0000
  Zn  Zn2       1.0  0.5757897599999998  0.54877261  0.14016932  1.0000
  Zn  Zn3       1.0  0.8794230499999994  0.8574316600000002  0.54870181  1.0000
  Zn  Zn4       1.0  0.28690169  0.14019825  0.45139153000000004  1.0000
  H   H1        1.0  0.96746142  0.43422499000000003  0.0897372  1.0000
  H   H2        1.0  0.6287580899999998  0.76630861  0.69418979  1.0000
  H   H3        1.0  0.11918381000000004  0.6278049  0.62500311  1.0000
  H   H4        1.0  0.487872  0.5674047  0.9095739799999999  1.0000
  H   H5        1.0  0.09245690999999999  0.23028612  0.30517994  1.0000
  H   H6        1.0  0.37366274999999993  0.37111097  0.37324921999999994  1.0000
  H   H7        1.0  0.9468535  0.08910168  0.56650021  1.0000
  H   H8        1.0  0.6795781099999998  0.69665943  0.22887632  1.0000
  H   H9        1.0  0.25978617  0.62501106  0.37116753  1.0000
  H   H10       1.0  0.60509025  0.90859998  0.43395649  1.0000
  H   H11       1.0  0.60909787  0.30641335  0.76478798  1.0000
  H   H12       1.0  0.2573568699999999  0.37402008  0.62667437  1.0000
  C   C1        1.0  0.93395877  0.48520846  0.00957768  1.0000
  C   C2        1.0  0.80055185  0.58525082  0.8869035100000001  1.0000
  C   C3        1.0  0.7222032499999999  0.70721636  0.73082303  1.0000
  C   C4        1.0  0.001577849999999978  0.6277031  0.68942048  1.0000
  C   C5        1.0  0.9604190199999999  0.57220473  0.81460817  1.0000
  C   C6        1.0  0.42767693  0.51457922  0.98935024  1.0000
  C   C7        1.0  0.27496514  0.41159599  0.11144247  1.0000
  C   C8        1.0  0.16342557999999993  0.28942357  0.26792699  1.0000
  C   C9        1.0  0.32091746  0.3701978  0.30887232  1.0000
  C   C10       1.0  0.34886916999999995  0.42568371  0.18370238  1.0000
  C   C11       1.0  0.060545390000000025  0.00912531  0.51517534  1.0000
  C   C12       1.0  0.3164602  0.8867539799999999  0.41412595  1.0000
  C   C13       1.0  0.5501530899999997  0.73224056  0.28968712  1.0000
  C   C14       1.0  0.31298844  0.68967912  0.37056387  1.0000
  C   C15       1.0  0.22897275  0.8144723500000001  0.42709170999999996  1.0000
  C   C16       1.0  0.5860838100000001  0.9888312099999998  0.48574575  1.0000
  C   C17       1.0  0.61812095  0.11184857999999999  0.58637238  1.0000
  C   C18       1.0  0.5745490000000001  0.26898588  0.70664051  1.0000
  C   C19       1.0  0.37470101000000006  0.3094816  0.62752543  1.0000
  C   C20       1.0  0.47175070000000013  0.18404864  0.57247021  1.0000
  N   N1        1.0  0.04315354999999997  0.50805433  0.89314547  1.0000
  N   N2        1.0  0.7863070499999998  0.53070616  0.007690709999999999  1.0000
  N   N3        1.0  0.6776033100000001  0.64863076  0.84526118  1.0000
  N   N4        1.0  0.8712106699999997  0.70425462  0.65343836  1.0000
  N   N5        1.0  0.4439912800000002  0.49167738999999994  0.10550597999999999  1.0000
  N   N6        1.0  0.3255730499999998  0.46723644999999997  0.99095247  1.0000
  N   N7        1.0  0.17472977000000003  0.34727575  0.15319472  1.0000
  N   N8        1.0  0.23188946999999985  0.29301033  0.34524908  1.0000
  N   N9        1.0  0.06763330999999993  0.8930287999999998  0.49165478  1.0000
  N   N10       1.0  0.21002845999999994  0.0071119500000000006  0.46970393  1.0000
  N   N11       1.0  0.48089897999999975  0.8456704600000001  0.34982569  1.0000
  N   N12       1.0  0.4787872  0.65467056  0.29263401  1.0000
  N   N13       1.0  0.4539057800000001  0.10504626  0.50816508  1.0000
  N   N14       1.0  0.6873140399999997  0.9909859100000001  0.53197654  1.0000
  N   N15       1.0  0.67753416  0.15403077  0.6493490099999999  1.0000
  N   N16       1.0  0.42850193000000003  0.34623453  0.70359494  1.0000
