data_image0
_chemical_formula_structural       Zn4H32C76N8O24
_chemical_formula_sum              "Zn4 H32 C76 N8 O24"
_cell_length_a       4.95009929
_cell_length_b       19.012093280000002
_cell_length_c       25.71241139
_cell_angle_alpha    90.00000003
_cell_angle_beta     90.00000006
_cell_angle_gamma    94.21484968

_space_group_name_H-M_alt    "P 1"
_space_group_IT_number       1

loop_
  _space_group_symop_operation_xyz
  'x, y, z'

loop_
  _atom_site_type_symbol
  _atom_site_label
  _atom_site_symmetry_multiplicity
  _atom_site_fract_x
  _atom_site_fract_y
  _atom_site_fract_z
  _atom_site_occupancy
  Zn  Zn1       1.0  0.11337555000000003  0.5634049900000001  0.53280186  1.0000
  Zn  Zn2       1.0  0.88662445  0.93659501  0.03280186  1.0000
  Zn  Zn3       1.0  0.88662445  0.43659501  0.46719814  1.0000
  Zn  Zn4       1.0  0.11337555  0.063405  0.96719814  1.0000
  H   H1        1.0  0.42211559  0.9193007900000001  0.11033262  1.0000
  H   H2        1.0  0.35217994000000014  0.8532114700000001  0.19436974  1.0000
  H   H3        1.0  0.03965148000000007  0.7367914600000002  0.15414951  1.0000
  H   H4        1.0  0.08630970000000004  0.8082326500000002  0.07215968  1.0000
  H   H5        1.0  0.041779210000000004  0.60480916  0.25129802  1.0000
  H   H6        1.0  0.9708630400000002  0.53383041  0.33401432  1.0000
  H   H7        1.0  0.10189889  0.70338955  0.43484332  1.0000
  H   H8        1.0  0.16221479  0.77494278  0.35347150999999993  1.0000
  H   H9        1.0  0.5778844  0.58069921  0.61033262  1.0000
  H   H10       1.0  0.64782006  0.64678853  0.69436974  1.0000
  H   H11       1.0  0.96034852  0.76320854  0.65414951  1.0000
  H   H12       1.0  0.9136903  0.69176735  0.57215968  1.0000
  H   H13       1.0  0.95822079  0.89519084  0.75129802  1.0000
  H   H14       1.0  0.02913696000000004  0.9661695900000001  0.83401432  1.0000
  H   H15       1.0  0.8981011100000001  0.79661045  0.93484332  1.0000
  H   H16       1.0  0.8377852100000001  0.72505722  0.85347151  1.0000
  H   H17       1.0  0.57788441  0.08069921  0.88966738  1.0000
  H   H18       1.0  0.64782006  0.14678853  0.80563026  1.0000
  H   H19       1.0  0.96034852  0.26320854  0.84585049  1.0000
  H   H20       1.0  0.9136903  0.19176735  0.9278403199999999  1.0000
  H   H21       1.0  0.95822079  0.39519084  0.74870198  1.0000
  H   H22       1.0  0.02913696  0.46616959  0.66598568  1.0000
  H   H23       1.0  0.8981011100000003  0.29661045  0.56515668  1.0000
  H   H24       1.0  0.8377852100000001  0.22505722000000003  0.64652849  1.0000
  H   H25       1.0  0.42211560000000004  0.41930079  0.38966738  1.0000
  H   H26       1.0  0.35217994  0.3532114700000001  0.30563026  1.0000
  H   H27       1.0  0.03965148  0.23679146  0.34585049  1.0000
  H   H28       1.0  0.0863097  0.30823265  0.42784032  1.0000
  H   H29       1.0  0.04177921000000001  0.10480916000000003  0.24870198  1.0000
  H   H30       1.0  0.97086304  0.03383041  0.16598568  1.0000
  H   H31       1.0  0.10189889000000002  0.20338955000000003  0.06515668  1.0000
  H   H32       1.0  0.16221479  0.27494278  0.14652849  1.0000
  C   C1        1.0  0.55426473  0.87839777  0.12149925  1.0000
  C   C2        1.0  0.51426021  0.84118252  0.16797736  1.0000
  C   C3        1.0  0.6918447099999999  0.78993848  0.17990538  1.0000
  C   C4        1.0  0.8986020600000001  0.77644717  0.14557408  1.0000
  C   C5        1.0  0.9287199400000001  0.8167081200000001  0.10047771  1.0000
  C   C6        1.0  0.44342558000000004  0.69923155  0.23039255  1.0000
  C   C7        1.0  0.39972624000000007  0.6621636000000001  0.28034534  1.0000
  C   C8        1.0  0.59118241  0.67281884  0.32075039  1.0000
  C   C9        1.0  0.81887191  0.72208248  0.31542514  1.0000
  C   C10       1.0  0.85838813  0.76436244  0.26722897  1.0000
  C   C11       1.0  0.17908952000000006  0.6125246300000001  0.28428172  1.0000
  C   C12       1.0  0.14194599000000002  0.57276294  0.32975149  1.0000
  C   C13       1.0  0.31873585  0.58486265  0.37136359999999996  1.0000
  C   C14       1.0  0.55036152  0.63310428  0.36859286  1.0000
  C   C15       1.0  0.74442775  0.64321393  0.40898329  1.0000
  C   C16       1.0  0.95824823  0.69496882  0.40299656  1.0000
  C   C17       1.0  0.9945152200000001  0.7348127600000001  0.3572256399999999  1.0000
  C   C18       1.0  0.24572584  0.54750071  0.42059789999999997  1.0000
  C   C19       1.0  0.74766341  0.59753251  0.45830413999999997  1.0000
  C   C20       1.0  0.44573527000000013  0.6216022300000001  0.62149925  1.0000
  C   C21       1.0  0.48573980000000005  0.65881749  0.66797736  1.0000
  C   C22       1.0  0.30815529  0.71006152  0.6799053799999999  1.0000
  C   C23       1.0  0.10139794000000008  0.7235528300000001  0.64557408  1.0000
  C   C24       1.0  0.07128006  0.68329188  0.60047771  1.0000
  C   C25       1.0  0.55657442  0.80076845  0.73039255  1.0000
  C   C26       1.0  0.6002737600000001  0.8378364  0.78034534  1.0000
  C   C27       1.0  0.40881759  0.82718116  0.8207503899999999  1.0000
  C   C28       1.0  0.18112810000000001  0.7779175200000001  0.81542514  1.0000
  C   C29       1.0  0.14161187000000006  0.73563756  0.76722897  1.0000
  C   C30       1.0  0.8209104700000001  0.8874753700000001  0.78428172  1.0000
  C   C31       1.0  0.85805401  0.92723706  0.8297514799999999  1.0000
  C   C32       1.0  0.6812641400000001  0.9151373500000001  0.8713636  1.0000
  C   C33       1.0  0.44963848  0.86689572  0.86859286  1.0000
  C   C34       1.0  0.25557226000000005  0.8567860700000001  0.90898329  1.0000
  C   C35       1.0  0.04175177000000004  0.8050311800000001  0.90299656  1.0000
  C   C36       1.0  0.0054847800000000025  0.76518724  0.85722564  1.0000
  C   C37       1.0  0.75427416  0.9524992900000001  0.9205979  1.0000
  C   C38       1.0  0.25233659  0.90246749  0.9583041399999997  1.0000
  C   C39       1.0  0.4457352700000001  0.12160223  0.87850075  1.0000
  C   C40       1.0  0.48573979  0.15881748  0.83202264  1.0000
  C   C41       1.0  0.30815529  0.21006152  0.82009462  1.0000
  C   C42       1.0  0.10139794  0.22355283000000004  0.85442592  1.0000
  C   C43       1.0  0.07128006  0.18329188  0.89952228  1.0000
  C   C44       1.0  0.55657442  0.30076845  0.76960745  1.0000
  C   C45       1.0  0.6002737600000001  0.33783640000000004  0.71965466  1.0000
  C   C46       1.0  0.40881759  0.32718116  0.67924961  1.0000
  C   C47       1.0  0.18112809  0.27791752  0.6845748599999999  1.0000
  C   C48       1.0  0.14161187000000003  0.23563756000000002  0.73277103  1.0000
  C   C49       1.0  0.82091048  0.38747537  0.71571828  1.0000
  C   C50       1.0  0.85805401  0.42723706  0.67024851  1.0000
  C   C51       1.0  0.68126415  0.41513735  0.6286364  1.0000
  C   C52       1.0  0.44963848  0.36689572  0.63140714  1.0000
  C   C53       1.0  0.25557226  0.35678607  0.59101671  1.0000
  C   C54       1.0  0.04175177000000001  0.30503118000000007  0.59700344  1.0000
  C   C55       1.0  0.005484780000000014  0.26518724000000005  0.6427743599999999  1.0000
  C   C56       1.0  0.75427417  0.45249929  0.5794021  1.0000
  C   C57       1.0  0.25233659  0.40246749  0.54169586  1.0000
  C   C58       1.0  0.55426473  0.37839777  0.37850075  1.0000
  C   C59       1.0  0.5142602  0.34118251  0.33202264  1.0000
  C   C60       1.0  0.69184471  0.28993848  0.32009462  1.0000
  C   C61       1.0  0.8986020600000001  0.27644717  0.35442591999999995  1.0000
  C   C62       1.0  0.9287199400000001  0.31670812  0.39952228  1.0000
  C   C63       1.0  0.44342558000000004  0.19923155000000006  0.26960745  1.0000
  C   C64       1.0  0.39972624000000007  0.16216360000000002  0.21965466  1.0000
  C   C65       1.0  0.59118241  0.17281884  0.17924961  1.0000
  C   C66       1.0  0.81887191  0.22208248  0.18457486  1.0000
  C   C67       1.0  0.85838813  0.26436244000000003  0.23277103  1.0000
  C   C68       1.0  0.17908953000000002  0.11252463000000001  0.21571828  1.0000
  C   C69       1.0  0.14194599000000002  0.07276294  0.17024851999999996  1.0000
  C   C70       1.0  0.31873586  0.08486265  0.1286364  1.0000
  C   C71       1.0  0.55036152  0.13310428  0.13140714  1.0000
  C   C72       1.0  0.74442774  0.14321393000000002  0.09101671  1.0000
  C   C73       1.0  0.95824823  0.19496882  0.09700344  1.0000
  C   C74       1.0  0.9945152200000001  0.23481276  0.14277436  1.0000
  C   C75       1.0  0.24572584  0.04750071  0.0794021  1.0000
  C   C76       1.0  0.74766341  0.09753251000000002  0.04169586  1.0000
  N   N1        1.0  0.7584617400000002  0.86673171  0.08874347  1.0000
  N   N2        1.0  0.66135847  0.75110103  0.22794065999999993  1.0000
  N   N3        1.0  0.24153826  0.63326829  0.58874347  1.0000
  N   N4        1.0  0.33864153  0.7488989700000002  0.72794066  1.0000
  N   N5        1.0  0.24153826  0.13326829  0.91125653  1.0000
  N   N6        1.0  0.33864153  0.24889897  0.7720593399999999  1.0000
  N   N7        1.0  0.7584617400000001  0.36673171  0.41125653  1.0000
  N   N8        1.0  0.66135847  0.25110103  0.27205934  1.0000
  O   O1        1.0  0.25334507000000006  0.58634706  0.4607769  1.0000
  O   O2        1.0  0.16298470000000004  0.48315211  0.41715939999999996  1.0000
  O   O3        1.0  0.71587132  0.53079541  0.45204148  1.0000
  O   O4        1.0  0.8095654300000001  0.6288582000000001  0.50062262  1.0000
  O   O5        1.0  0.30667539  0.68450463  0.19133271999999998  1.0000
  O   O6        1.0  0.04617958000000001  0.80989836  0.26092476  1.0000
  O   O7        1.0  0.7466549200000001  0.9136529300000001  0.9607768999999999  1.0000
  O   O8        1.0  0.8370153100000001  0.01684789  0.9171594  1.0000
  O   O9        1.0  0.28412868  0.9692045900000001  0.95204148  1.0000
  O   O10       1.0  0.19043457000000005  0.8711418  0.00062262  1.0000
  O   O11       1.0  0.6933246100000001  0.81549537  0.69133272  1.0000
  O   O12       1.0  0.95382042  0.69010164  0.76092476  1.0000
  O   O13       1.0  0.74665493  0.41365294  0.5392231  1.0000
  O   O14       1.0  0.8370153000000001  0.51684789  0.5828406  1.0000
  O   O15       1.0  0.28412868  0.46920459  0.54795852  1.0000
  O   O16       1.0  0.19043457000000003  0.3711418  0.4993773799999999  1.0000
  O   O17       1.0  0.69332461  0.31549537  0.80866728  1.0000
  O   O18       1.0  0.95382042  0.19010164  0.73907524  1.0000
  O   O19       1.0  0.25334507000000006  0.08634707  0.0392231  1.0000
  O   O20       1.0  0.1629847  0.98315211  0.0828406  1.0000
  O   O21       1.0  0.71587132  0.030795410000000002  0.04795852  1.0000
  O   O22       1.0  0.8095654300000001  0.1288582  0.99937738  1.0000
  O   O23       1.0  0.30667539000000005  0.18450463  0.30866728  1.0000
  O   O24       1.0  0.04617958000000002  0.30989836  0.23907524  1.0000
