data_image0
_chemical_formula_structural       Zn8H32C24N24
_chemical_formula_sum              "Zn8 H32 C24 N24"
_cell_length_a       11.3887
_cell_length_b       13.7495
_cell_length_c       13.7495
_cell_angle_alpha    80.1238
_cell_angle_beta     65.5341
_cell_angle_gamma    65.5342

_space_group_name_H-M_alt    "P 1"
_space_group_IT_number       1

loop_
  _space_group_symop_operation_xyz
  'x, y, z'

loop_
  _atom_site_type_symbol
  _atom_site_label
  _atom_site_symmetry_multiplicity
  _atom_site_fract_x
  _atom_site_fract_y
  _atom_site_fract_z
  _atom_site_occupancy
  Zn  Zn1       1.0  0.3371199999999999  0.5508  0.47294  1.0000
  Zn  Zn2       1.0  0.86086  0.9492  0.02706  1.0000
  Zn  Zn3       1.0  0.81006  0.52706  0.0508  1.0000
  Zn  Zn4       1.0  0.8879199999999999  0.97294  0.4492  1.0000
  Zn  Zn5       1.0  0.6628799999999999  0.4492000000000001  0.52706  1.0000
  Zn  Zn6       1.0  0.13914000000000004  0.0508  0.97294  1.0000
  Zn  Zn7       1.0  0.18993999999999991  0.4729400000000001  0.9492000000000002  1.0000
  Zn  Zn8       1.0  0.11208000000000001  0.027060000000000004  0.5508  1.0000
  H   H1        1.0  0.9101999999999996  0.42180000000000006  0.3430000000000001  1.0000
  H   H2        1.0  0.9558000000000001  0.3847  0.2267  1.0000
  H   H3        1.0  0.9347999999999999  0.5008000000000001  0.2468  1.0000
  H   H4        1.0  0.504  0.5736000000000001  0.226  1.0000
  H   H5        1.0  0.175  0.0782  0.157  1.0000
  H   H6        1.0  0.06719999999999998  0.1153  0.2733  1.0000
  H   H7        1.0  0.1823999999999999  0.9992000000000002  0.2532  1.0000
  H   H8        1.0  0.8036  0.9264000000000001  0.274  1.0000
  H   H9        1.0  0.25319999999999987  0.6570000000000001  0.9218000000000001  1.0000
  H   H10       1.0  0.18249999999999983  0.7733000000000002  0.8847  1.0000
  H   H11       1.0  0.1815999999999999  0.7532000000000002  0.0008  1.0000
  H   H12       1.0  0.73  0.7740000000000002  0.0736  1.0000
  H   H13       1.0  0.3319999999999997  0.8430000000000002  0.5782  1.0000
  H   H14       1.0  0.3405  0.7267000000000001  0.6153  1.0000
  H   H15       1.0  0.43559999999999993  0.7468000000000001  0.49920000000000003  1.0000
  H   H16       1.0  0.07759999999999986  0.7260000000000002  0.4264  1.0000
  H   H17       1.0  0.08979999999999999  0.5782  0.657  1.0000
  H   H18       1.0  0.04419999999999986  0.6153000000000001  0.7733  1.0000
  H   H19       1.0  0.06519999999999998  0.4992  0.7532  1.0000
  H   H20       1.0  0.49599999999999955  0.4264  0.774  1.0000
  H   H21       1.0  0.8249999999999995  0.9218  0.843  1.0000
  H   H22       1.0  0.9327999999999997  0.8847000000000002  0.7267000000000001  1.0000
  H   H23       1.0  0.8175999999999998  0.0008  0.7468000000000001  1.0000
  H   H24       1.0  0.19639999999999988  0.0736  0.7260000000000001  1.0000
  H   H25       1.0  0.7467999999999999  0.343  0.0782  1.0000
  H   H26       1.0  0.8175  0.2267  0.1153  1.0000
  H   H27       1.0  0.8184  0.24680000000000005  0.9992000000000002  1.0000
  H   H28       1.0  0.26999999999999996  0.22600000000000006  0.9264000000000001  1.0000
  H   H29       1.0  0.6679999999999999  0.15700000000000003  0.4218  1.0000
  H   H30       1.0  0.6595  0.27330000000000004  0.3847  1.0000
  H   H31       1.0  0.5643999999999999  0.2532  0.5008  1.0000
  H   H32       1.0  0.9224  0.274  0.5736  1.0000
  C   C1        1.0  0.9014999999999997  0.4441  0.2753  1.0000
  C   C2        1.0  0.7515  0.4829000000000001  0.2903  1.0000
  C   C3        1.0  0.56627  0.5453500000000001  0.26051  1.0000
  C   C4        1.0  0.12089999999999998  0.0559  0.2247  1.0000
  C   C5        1.0  0.02470000000000001  0.0171  0.2097  1.0000
  C   C6        1.0  0.8721299999999996  0.9546500000000002  0.23949  1.0000
  C   C7        1.0  0.1767999999999999  0.7247000000000002  0.9441000000000002  1.0000
  C   C8        1.0  0.04179999999999983  0.7097  0.9829000000000001  1.0000
  C   C9        1.0  0.82678  0.7394900000000001  0.04535  1.0000
  C   C10       1.0  0.34559999999999996  0.7753000000000001  0.5559  1.0000
  C   C11       1.0  0.2344  0.7903  0.5171  1.0000
  C   C12       1.0  0.11161999999999991  0.7605100000000002  0.45465  1.0000
  C   C13       1.0  0.0985  0.5559  0.7247  1.0000
  C   C14       1.0  0.24850000000000003  0.5171  0.7097  1.0000
  C   C15       1.0  0.43372999999999995  0.45465  0.73949  1.0000
  C   C16       1.0  0.8790999999999998  0.9441000000000003  0.7753000000000001  1.0000
  C   C17       1.0  0.9753  0.9829  0.7903000000000001  1.0000
  C   C18       1.0  0.12786999999999996  0.045350000000000015  0.7605100000000001  1.0000
  C   C19       1.0  0.8232  0.2753  0.0559  1.0000
  C   C20       1.0  0.9582  0.29030000000000006  0.0171  1.0000
  C   C21       1.0  0.17322  0.26051  0.95465  1.0000
  C   C22       1.0  0.6543999999999999  0.22470000000000004  0.44410000000000005  1.0000
  C   C23       1.0  0.7656  0.2097  0.4829  1.0000
  C   C24       1.0  0.88838  0.23949000000000004  0.54535  1.0000
  N   N1        1.0  0.52914  0.5268  0.36332000000000003  1.0000
  N   N2        1.0  0.6500300000000001  0.48617  0.38297  1.0000
  N   N3        1.0  0.7046100000000001  0.51889  0.21049  1.0000
  N   N4        1.0  0.9192599999999999  0.9732000000000002  0.13668  1.0000
  N   N5        1.0  0.01916999999999999  0.013830000000000004  0.11703000000000002  1.0000
  N   N6        1.0  0.93399  0.9811100000000003  0.28951  1.0000
  N   N7        1.0  0.89246  0.6366800000000001  0.0268  1.0000
  N   N8        1.0  0.0329999999999998  0.6170300000000001  0.9861700000000001  1.0000
  N   N9        1.0  0.9150999999999998  0.7895100000000002  0.01889  1.0000
  N   N10       1.0  0.055939999999999795  0.8633200000000002  0.4732  1.0000
  N   N11       1.0  0.1361999999999999  0.8829700000000001  0.51383  1.0000
  N   N12       1.0  0.2234999999999998  0.7104900000000002  0.48111  1.0000
  N   N13       1.0  0.4708599999999998  0.4732000000000001  0.63668  1.0000
  N   N14       1.0  0.3499699999999999  0.5138300000000001  0.61703  1.0000
  N   N15       1.0  0.29539000000000004  0.4811100000000001  0.78951  1.0000
  N   N16       1.0  0.08073999999999995  0.026800000000000004  0.86332  1.0000
  N   N17       1.0  0.9808300000000002  0.9861700000000002  0.88297  1.0000
  N   N18       1.0  0.06600999999999994  0.01889  0.7104900000000001  1.0000
  N   N19       1.0  0.10753999999999989  0.36332  0.9732000000000002  1.0000
  N   N20       1.0  0.967  0.38297  0.01383  1.0000
  N   N21       1.0  0.08489999999999995  0.21049  0.9811100000000003  1.0000
  N   N22       1.0  0.9440599999999999  0.13668  0.5268  1.0000
  N   N23       1.0  0.8638  0.11703000000000002  0.48617  1.0000
  N   N24       1.0  0.7764999999999997  0.28951000000000005  0.51889  1.0000
