data_image0
_chemical_formula_structural       Zn8H32C24N24
_chemical_formula_sum              "Zn8 H32 C24 N24"
_cell_length_a       10.27708661
_cell_length_b       13.37227217
_cell_length_c       13.37244233
_cell_angle_alpha    81.50926667
_cell_angle_beta     67.40208741000001
_cell_angle_gamma    67.40414905

_space_group_name_H-M_alt    "P 1"
_space_group_IT_number       1

loop_
  _space_group_symop_operation_xyz
  'x, y, z'

loop_
  _atom_site_type_symbol
  _atom_site_label
  _atom_site_symmetry_multiplicity
  _atom_site_fract_x
  _atom_site_fract_y
  _atom_site_fract_z
  _atom_site_occupancy
  Zn  Zn1       1.0  0.31227998000000007  0.53214749  0.47765801000000013  1.0000
  Zn  Zn2       1.0  0.81020444  0.9754439100000002  0.02232324  1.0000
  Zn  Zn3       1.0  0.7835092799999998  0.5227905000000002  0.02411126  1.0000
  Zn  Zn4       1.0  0.8338886699999999  0.9841768300000002  0.47473508  1.0000
  Zn  Zn5       1.0  0.69794213  0.4741535400000001  0.5161109  1.0000
  Zn  Zn6       1.0  0.17720731999999995  0.034035380000000004  0.9859915500000002  1.0000
  Zn  Zn7       1.0  0.2071070200000001  0.48744485  0.96787731  1.0000
  Zn  Zn8       1.0  0.16235041999999997  0.020880090000000004  0.53348065  1.0000
  H   H1        1.0  0.9430209099999999  0.46382792  0.32174404000000006  1.0000
  H   H2        1.0  0.98718508  0.37285864  0.21861255  1.0000
  H   H3        1.0  0.9732520199999998  0.5087473800000001  0.18484089000000006  1.0000
  H   H4        1.0  0.45907894999999993  0.5585071000000001  0.21903739000000005  1.0000
  H   H5        1.0  0.22720473  0.02978839000000001  0.17523369000000003  1.0000
  H   H6        1.0  0.08473912999999998  0.12370106  0.27872028  1.0000
  H   H7        1.0  0.1638115299999998  0.9863305300000003  0.31268254  1.0000
  H   H8        1.0  0.7194980499999998  0.9553226800000001  0.28395362  1.0000
  H   H9        1.0  0.24118377999999988  0.6787708  0.9971291800000001  1.0000
  H   H10       1.0  0.21049282999999983  0.7738926700000001  0.8928194  1.0000
  H   H11       1.0  0.13172949999999994  0.8189311300000001  0.028552280000000006  1.0000
  H   H12       1.0  0.6723547499999999  0.7841799800000001  0.03558536000000001  1.0000
  H   H13       1.0  0.40437077  0.8311350500000002  0.5280591  1.0000
  H   H14       1.0  0.36169225999999977  0.7299120000000001  0.62367245  1.0000
  H   H15       1.0  0.47762394  0.69283254  0.48729787000000013  1.0000
  H   H16       1.0  0.005406309999999921  0.722586  0.45314983000000003  1.0000
  H   H17       1.0  0.07550665999999999  0.52187204  0.66623727  1.0000
  H   H18       1.0  0.016456649999999896  0.61970596  0.7670158200000002  1.0000
  H   H19       1.0  0.04375332999999996  0.4825300300000001  0.8049161  1.0000
  H   H20       1.0  0.5388100099999998  0.46659787000000014  0.7806305500000001  1.0000
  H   H21       1.0  0.7688002499999999  0.9695309900000001  0.83047711  1.0000
  H   H22       1.0  0.91559174  0.87448839  0.72968185  1.0000
  H   H23       1.0  0.8345308499999995  0.010355140000000002  0.6923786  1.0000
  H   H24       1.0  0.27197973999999986  0.04975254  0.7254820200000001  1.0000
  H   H25       1.0  0.7461676399999999  0.3289677400000001  0.0025901900000000005  1.0000
  H   H26       1.0  0.77230182  0.24782513000000003  0.11619906000000003  1.0000
  H   H27       1.0  0.8491753299999998  0.18618115  0.9873628200000002  1.0000
  H   H28       1.0  0.31705019  0.22590969  0.95724  1.0000
  H   H29       1.0  0.6009832999999998  0.17629403000000005  0.4656853100000001  1.0000
  H   H30       1.0  0.6504481  0.275983  0.37058204  1.0000
  H   H31       1.0  0.52803036  0.31481797  0.50536636  1.0000
  H   H32       1.0  0.99319146  0.28200741  0.55324714  1.0000
  C   C1        1.0  0.9245674800000001  0.45695793  0.24770004000000004  1.0000
  C   C2        1.0  0.7605403200000002  0.48867481  0.2707054  1.0000
  C   C3        1.0  0.5460240499999998  0.5360238300000001  0.25387064  1.0000
  C   C4        1.0  0.12807716  0.04002979000000001  0.25019733  1.0000
  C   C5        1.0  0.012075879999999964  0.015097710000000002  0.22901843000000005  1.0000
  C   C6        1.0  0.82111407  0.97506501  0.24810152  1.0000
  C   C7        1.0  0.15813166999999992  0.75177213  0.9772479400000003  1.0000
  C   C8        1.0  0.020116269999999943  0.73009998  0.99342949  1.0000
  C   C9        1.0  0.7925226899999999  0.74873236  0.0209797  1.0000
  C   C10       1.0  0.3791040399999999  0.7565470500000002  0.5392263  1.0000
  C   C11       1.0  0.24309001999999993  0.7776017700000001  0.5128245000000001  1.0000
  C   C12       1.0  0.07131477999999991  0.7584684600000001  0.47265702  1.0000
  C   C13       1.0  0.0873918199999999  0.5355224600000001  0.74091129  1.0000
  C   C14       1.0  0.24843446999999996  0.5136507000000001  0.7209666700000001  1.0000
  C   C15       1.0  0.45646214999999984  0.4815452600000001  0.74294992  1.0000
  C   C16       1.0  0.8692101700000001  0.959069  0.7564701  1.0000
  C   C17       1.0  0.98176202  0.9875219600000003  0.77859542  1.0000
  C   C18       1.0  0.17056061  0.029741300000000002  0.76066415  1.0000
  C   C19       1.0  0.82663846  0.25921097  0.02887598  1.0000
  C   C20       1.0  0.9675299799999999  0.28003101  0.005245670000000001  1.0000
  C   C21       1.0  0.1967706  0.26125444000000003  0.97228949  1.0000
  C   C22       1.0  0.62769913  0.2501220900000001  0.45562676000000013  1.0000
  C   C23       1.0  0.7600883899999997  0.22821475000000002  0.48682342  1.0000
  C   C24       1.0  0.9281013600000001  0.24651292000000002  0.53223589  1.0000
  N   N1        1.0  0.5193212199999999  0.5251293500000002  0.35977573  1.0000
  N   N2        1.0  0.6572257800000001  0.49445999  0.37082092  1.0000
  N   N3        1.0  0.69390496  0.51464239  0.19509272  1.0000
  N   N4        1.0  0.8877079799999998  0.98666927  0.1420417  1.0000
  N   N5        1.0  0.010308300000000001  0.012815610000000003  0.12966335  1.0000
  N   N6        1.0  0.8943595599999999  0.9915864100000003  0.30547992  1.0000
  N   N7        1.0  0.87193864  0.6429373200000001  0.008869520000000002  1.0000
  N   N8        1.0  0.018391259999999923  0.63078052  0.9909173700000001  1.0000
  N   N9        1.0  0.8794374099999998  0.80622807  0.012500640000000004  1.0000
  N   N10       1.0  0.03221611000000006  0.86454307  0.48378749  1.0000
  N   N11       1.0  0.1423604099999999  0.87694581  0.50985524  1.0000
  N   N12       1.0  0.20172016999999978  0.7010838900000003  0.48950648  1.0000
  N   N13       1.0  0.48782305999999986  0.48823526  0.6363438200000001  1.0000
  N   N14       1.0  0.35390631999999983  0.50918353  0.6221936800000001  1.0000
  N   N15       1.0  0.30948409999999976  0.4963790600000001  0.7989182500000003  1.0000
  N   N16       1.0  0.1013628599999999  0.020357760000000003  0.8667023700000003  1.0000
  N   N17       1.0  0.9800707599999997  0.9930587200000002  0.87840515  1.0000
  N   N18       1.0  0.10027778999999984  0.01049461  0.7025528100000002  1.0000
  N   N19       1.0  0.11959921999999984  0.3674705500000001  0.97735231  1.0000
  N   N20       1.0  0.97218717  0.37966665000000005  0.9987879800000001  1.0000
  N   N21       1.0  0.10742322999999998  0.20348886  0.98873765  1.0000
  N   N22       1.0  0.96520417  0.14036775000000004  0.52313047  1.0000
  N   N23       1.0  0.8574571  0.12845871000000003  0.4937095900000001  1.0000
  N   N24       1.0  0.80125374  0.3044617  0.51089657  1.0000
