data_image0
_chemical_formula_structural       Cu12H84C180O48
_chemical_formula_sum              "Cu12 H84 C180 O48"
_cell_length_a       18.64972861
_cell_length_b       18.64909915
_cell_length_c       28.09673671
_cell_angle_alpha    70.61656183
_cell_angle_beta     70.62807302
_cell_angle_gamma    60.002501589999994

_space_group_name_H-M_alt    "P 1"
_space_group_IT_number       1

loop_
  _space_group_symop_operation_xyz
  'x, y, z'

loop_
  _atom_site_type_symbol
  _atom_site_label
  _atom_site_symmetry_multiplicity
  _atom_site_fract_x
  _atom_site_fract_y
  _atom_site_fract_z
  _atom_site_occupancy
  Cu  Cu1       1.0  0.22422252000000004  0.78114888  0.78874188  1.0000
  Cu  Cu2       1.0  0.7811522000000002  0.20590080999999985  0.7887173900000001  1.0000
  Cu  Cu3       1.0  0.20597171000000003  0.22428935000000003  0.78865095  1.0000
  Cu  Cu4       1.0  0.27571401000000006  0.29404460999999993  0.7113347  1.0000
  Cu  Cu5       1.0  0.71886553  0.27575820000000006  0.71128557  1.0000
  Cu  Cu6       1.0  0.2940724899999998  0.7188745  0.7112980200000001  1.0000
  Cu  Cu7       1.0  0.77567958  0.21894283  0.21138205  1.0000
  Cu  Cu8       1.0  0.21893078000000005  0.79401588  0.21138651000000006  1.0000
  Cu  Cu9       1.0  0.7940620699999998  0.77573891  0.21131694  1.0000
  Cu  Cu10      1.0  0.72430388  0.70597816  0.28864169  1.0000
  Cu  Cu11      1.0  0.28112009  0.72425412  0.28869626  1.0000
  Cu  Cu12      1.0  0.7059582  0.2811031  0.28866259  1.0000
  H   H1        1.0  0.08784862999999997  0.40469896000000005  0.8847346  1.0000
  H   H2        1.0  0.09996024999999997  0.62841474  0.8875917400000001  1.0000
  H   H3        1.0  0.21546950999999995  0.52338293  0.7509736200000002  1.0000
  H   H4        1.0  0.9409984400000001  0.56185  0.8808609900000002  1.0000
  H   H5        1.0  0.20538704999999993  0.4773456  0.9350792500000001  1.0000
  H   H6        1.0  0.7913335000000006  0.5873788200000001  0.90337751  1.0000
  H   H7        1.0  0.2812884700000001  0.4338880899999999  0.00431263  1.0000
  H   H8        1.0  0.40470395999999986  0.62271088  0.8847353100000002  1.0000
  H   H9        1.0  0.6284182899999999  0.38403047999999995  0.8875937000000003  1.0000
  H   H10       1.0  0.5233778899999999  0.51017933  0.75096196  1.0000
  H   H11       1.0  0.56184717  0.6162784099999999  0.8808594400000003  1.0000
  H   H12       1.0  0.47735232999999994  0.38217620999999996  0.9350722200000002  1.0000
  H   H13       1.0  0.58736788  0.7178995999999999  0.9033880700000002  1.0000
  H   H14       1.0  0.43388297000000003  0.28051674  0.00430232  1.0000
  H   H15       1.0  0.62272998  0.08784606999999992  0.8847471600000001  1.0000
  H   H16       1.0  0.38404860000000013  0.09996221999999992  0.88758176  1.0000
  H   H17       1.0  0.5101598700000003  0.21548465000000003  0.75096266  1.0000
  H   H18       1.0  0.6162702199999999  0.94102584  0.88085953  1.0000
  H   H19       1.0  0.38217302  0.20541431000000002  0.93506753  1.0000
  H   H20       1.0  0.7178861  0.79135721  0.90339216  1.0000
  H   H21       1.0  0.2805222200000001  0.2812967899999999  0.00429679  1.0000
  H   H22       1.0  0.4121481400000001  0.8772781899999998  0.61526098  1.0000
  H   H23       1.0  0.40004392000000005  0.11595252000000002  0.61241269  1.0000
  H   H24       1.0  0.28452665000000005  0.9898299299999999  0.7490266200000001  1.0000
  H   H25       1.0  0.55900402  0.88371095  0.61913742  1.0000
  H   H26       1.0  0.29461356000000005  0.11781346  0.56492144  1.0000
  H   H27       1.0  0.7086639  0.78208841  0.59662237  1.0000
  H   H28       1.0  0.21871158999999984  0.21947997999999996  0.49568652000000013  1.0000
  H   H29       1.0  0.09529385999999997  0.4121536  0.61526144  1.0000
  H   H30       1.0  0.8715761499999998  0.40004523  0.6123978600000001  1.0000
  H   H31       1.0  0.97662245  0.28452260999999995  0.7490347900000002  1.0000
  H   H32       1.0  0.93815295  0.5589811999999998  0.6191416900000001  1.0000
  H   H33       1.0  0.022655269999999963  0.29459152999999993  0.5649298600000001  1.0000
  H   H34       1.0  0.91263001  0.70865042  0.59661126  1.0000
  H   H35       1.0  0.06610881000000006  0.21870366999999993  0.49569910000000006  1.0000
  H   H36       1.0  0.8772779100000002  0.09531081  0.61524874  1.0000
  H   H37       1.0  0.11594675999999998  0.87160133  0.61241197  1.0000
  H   H38       1.0  0.9898342699999996  0.97660932  0.7490363500000002  1.0000
  H   H39       1.0  0.8837259099999999  0.93815624  0.61914061  1.0000
  H   H40       1.0  0.11782518  0.022652469999999994  0.56492982  1.0000
  H   H41       1.0  0.7821072200000001  0.9126336499999999  0.59660769  1.0000
  H   H42       1.0  0.21948191  0.06611361  0.4957026  1.0000
  H   H43       1.0  0.9121549800000002  0.5953148199999998  0.11526134  1.0000
  H   H44       1.0  0.9000357600000001  0.37158846  0.11241606000000003  1.0000
  H   H45       1.0  0.78453096  0.47662301  0.24902429  1.0000
  H   H46       1.0  0.05900038000000001  0.43814888  0.11914065000000001  1.0000
  H   H47       1.0  0.79460965  0.5226536  0.06492284  1.0000
  H   H48       1.0  0.20866307  0.41262417  0.09662346000000001  1.0000
  H   H49       1.0  0.7187078  0.56611334  0.9956896200000002  1.0000
  H   H50       1.0  0.59534651  0.37723821  0.11524995000000003  1.0000
  H   H51       1.0  0.37158887000000007  0.61596033  0.11241769000000003  1.0000
  H   H52       1.0  0.47659079  0.48983684  0.24901124  1.0000
  H   H53       1.0  0.43815557  0.3837296999999999  0.11913909  1.0000
  H   H54       1.0  0.5226361599999999  0.61782037  0.06493152  1.0000
  H   H55       1.0  0.4126298199999999  0.28210027  0.09661347000000003  1.0000
  H   H56       1.0  0.5661137700000001  0.7194808899999999  0.9957002600000002  1.0000
  H   H57       1.0  0.37728891000000003  0.91213487  0.11528170000000001  1.0000
  H   H58       1.0  0.6160129000000002  0.9000504899999998  0.11239180000000001  1.0000
  H   H59       1.0  0.4898270099999999  0.78453893  0.24901546  1.0000
  H   H60       1.0  0.38373309000000005  0.058961269999999996  0.11913672000000003  1.0000
  H   H61       1.0  0.61781188  0.79459895  0.06493338  1.0000
  H   H62       1.0  0.2821158  0.20863864999999998  0.09660771000000001  1.0000
  H   H63       1.0  0.7194761500000001  0.7187023399999999  0.9957039700000001  1.0000
  H   H64       1.0  0.5878483  0.12271723000000002  0.38473494  1.0000
  H   H65       1.0  0.5999567700000003  0.8840304899999999  0.3875901  1.0000
  H   H66       1.0  0.71547021  0.010171590000000006  0.25097563  1.0000
  H   H67       1.0  0.44099577000000006  0.11629117000000001  0.38086117  1.0000
  H   H68       1.0  0.70538892  0.88218671  0.43507704  1.0000
  H   H69       1.0  0.29133685  0.21791313000000004  0.40337629  1.0000
  H   H70       1.0  0.7812906700000003  0.7805198499999996  0.50431116  1.0000
  H   H71       1.0  0.9046475000000002  0.5878329299999999  0.38475416  1.0000
  H   H72       1.0  0.12839549999999997  0.59996754  0.3875817100000001  1.0000
  H   H73       1.0  0.02340294999999998  0.7154552599999999  0.25098394  1.0000
  H   H74       1.0  0.06184390999999993  0.44102911000000006  0.3808626500000001  1.0000
  H   H75       1.0  0.9773579600000003  0.7053939099999997  0.4350677100000001  1.0000
  H   H76       1.0  0.08737042  0.29135011  0.40338781000000007  1.0000
  H   H77       1.0  0.93389395  0.7812941199999998  0.50429855  1.0000
  H   H78       1.0  0.12270721999999992  0.9047141300000001  0.38472503  1.0000
  H   H79       1.0  0.8839929400000001  0.1284451  0.38761122000000003  1.0000
  H   H80       1.0  0.010184289999999992  0.023380039999999994  0.25098201  1.0000
  H   H81       1.0  0.11627366  0.06183216999999998  0.38085891  1.0000
  H   H82       1.0  0.8821850100000003  0.9773467999999998  0.4350668400000001  1.0000
  H   H83       1.0  0.21789315999999995  0.08736438999999994  0.4033904500000001  1.0000
  H   H84       1.0  0.7805164699999999  0.9338832200000001  0.504296  1.0000
  C   C1        1.0  0.18099266000000006  0.38722173  0.78923066  1.0000
  C   C2        1.0  0.08670920000000014  0.51693233  0.89256226  1.0000
  C   C3        1.0  0.19359842999999988  0.64716294  0.7917704000000002  1.0000
  C   C4        1.0  0.10663533000000001  0.45576850999999996  0.86584707  1.0000
  C   C5        1.0  0.08615194000000007  0.48582089999999994  0.98653879  1.0000
  C   C6        1.0  0.95632578  0.52488274  0.9600063  1.0000
  C   C7        1.0  0.11345476999999993  0.58066876  0.8675593500000002  1.0000
  C   C8        1.0  0.15961223000000005  0.58295682  0.81670311  1.0000
  C   C9        1.0  0.04181231999999997  0.51022429  0.94733443  1.0000
  C   C10       1.0  0.17885518999999997  0.5219753699999999  0.7902312600000001  1.0000
  C   C11       1.0  0.9093256399999999  0.55220686  0.92109263  1.0000
  C   C12       1.0  0.15297829000000002  0.45780321000000007  0.81513859  1.0000
  C   C13       1.0  0.17286150000000008  0.46975056  0.97524514  1.0000
  C   C14       1.0  0.8261190399999998  0.56650228  0.9336731300000002  1.0000
  C   C15       1.0  0.21527917999999993  0.4452807  0.013851  1.0000
  C   C16       1.0  0.38723432999999996  0.64254862  0.78923305  1.0000
  C   C17       1.0  0.5169607200000003  0.5037548899999996  0.8925713500000001  1.0000
  C   C18       1.0  0.6471769000000002  0.36745553999999986  0.7917589100000002  1.0000
  C   C19       1.0  0.4557946300000002  0.5717253299999997  0.8658495400000001  1.0000
  C   C20       1.0  0.48583175000000006  0.4414797199999999  0.9865324900000001  1.0000
  C   C21       1.0  0.5248868199999999  0.5587778099999999  0.9600011300000002  1.0000
  C   C22       1.0  0.5806803499999998  0.43829843999999996  0.8675727300000002  1.0000
  C   C23       1.0  0.5829618700000002  0.44071457999999997  0.81671441  1.0000
  C   C24       1.0  0.51023707  0.5006069099999999  0.9473341500000002  1.0000
  C   C25       1.0  0.52199043  0.5089290799999998  0.7902260200000001  1.0000
  C   C26       1.0  0.55219891  0.61736621  0.9210929500000001  1.0000
  C   C27       1.0  0.45783052999999974  0.57407126  0.8151282500000002  1.0000
  C   C28       1.0  0.4697603999999999  0.38213353000000005  0.97523923  1.0000
  C   C29       1.0  0.5664961399999999  0.6736966  0.9336813900000003  1.0000
  C   C30       1.0  0.44528306  0.32559277  0.013842770000000003  1.0000
  C   C31       1.0  0.6425757800000002  0.18099149  0.78922735  1.0000
  C   C32       1.0  0.5037591000000001  0.08673228999999999  0.8925654100000001  1.0000
  C   C33       1.0  0.36747604  0.19359703  0.79176072  1.0000
  C   C34       1.0  0.5717301699999999  0.10663536999999987  0.8658569200000003  1.0000
  C   C35       1.0  0.44148559000000004  0.08615827999999999  0.98653175  1.0000
  C   C36       1.0  0.55877068  0.9563288099999999  0.9600042000000001  1.0000
  C   C37       1.0  0.4383021400000001  0.11346384999999999  0.86755592  1.0000
  C   C38       1.0  0.44069985999999994  0.15962292999999986  0.8167044300000001  1.0000
  C   C39       1.0  0.5006216800000001  0.041832409999999993  0.94733389  1.0000
  C   C40       1.0  0.5088918300000003  0.17886825999999995  0.7902223300000001  1.0000
  C   C41       1.0  0.6173528600000001  0.9093474299999998  0.9210943300000002  1.0000
  C   C42       1.0  0.5740504800000001  0.15297379999999997  0.8151313200000001  1.0000
  C   C43       1.0  0.38213904000000004  0.17287578999999997  0.97523478  1.0000
  C   C44       1.0  0.6736828500000003  0.82613199  0.93368374  1.0000
  C   C45       1.0  0.32560476999999993  0.21528367  0.013836900000000003  1.0000
  C   C46       1.0  0.3190001600000003  0.8574505499999997  0.7107774  1.0000
  C   C47       1.0  0.41328860000000006  0.99623978  0.60743805  1.0000
  C   C48       1.0  0.30640669  0.13252481000000002  0.70823168  1.0000
  C   C49       1.0  0.39336250999999983  0.92827159  0.6341531700000003  1.0000
  C   C50       1.0  0.41385078999999997  0.058509549999999994  0.51346311  1.0000
  C   C51       1.0  0.5436810600000003  0.94122221  0.53999445  1.0000
  C   C52       1.0  0.38654463000000017  0.061701329999999985  0.63244335  1.0000
  C   C53       1.0  0.34038255  0.059301070000000025  0.68328848  1.0000
  C   C54       1.0  0.45818775  0.9993706  0.55266576  1.0000
  C   C55       1.0  0.32114061000000005  0.9910962499999997  0.7097696500000003  1.0000
  C   C56       1.0  0.5906777200000003  0.8826289499999995  0.57890711  1.0000
  C   C57       1.0  0.34702499  0.9259389599999999  0.68487018  1.0000
  C   C58       1.0  0.3271404099999999  0.11785497999999997  0.5247560600000001  1.0000
  C   C59       1.0  0.6738832  0.8263005999999999  0.5663255  1.0000
  C   C60       1.0  0.2847195  0.17440134999999998  0.48615023  1.0000
  C   C61       1.0  0.11277363000000001  0.31900557999999996  0.71077204  1.0000
  C   C62       1.0  0.9830586  0.4132774  0.60743552  1.0000
  C   C63       1.0  0.8528276899999997  0.3063859999999999  0.7082469400000002  1.0000
  C   C64       1.0  0.04422369000000005  0.3933602  0.63415398  1.0000
  C   C65       1.0  0.014177090000000017  0.41383721  0.51346554  1.0000
  C   C66       1.0  0.9751176300000001  0.5436654299999999  0.53999653  1.0000
  C   C67       1.0  0.9193239399999998  0.38654778000000006  0.63243004  1.0000
  C   C68       1.0  0.9170471700000002  0.3403930199999998  0.6832935800000001  1.0000
  C   C69       1.0  0.9897678900000001  0.45817449999999993  0.5526661  1.0000
  C   C70       1.0  0.9780286000000001  0.32114040999999993  0.70977529  1.0000
  C   C71       1.0  0.94779832  0.59065497  0.57890708  1.0000
  C   C72       1.0  0.04219116999999999  0.34701621999999976  0.6848688000000003  1.0000
  C   C73       1.0  0.03024888999999994  0.32712447000000006  0.5247625  1.0000
  C   C74       1.0  0.93350192  0.6738706099999999  0.56631898  1.0000
  C   C75       1.0  0.05471536999999999  0.28471742  0.4861578  1.0000
  C   C76       1.0  0.85743891  0.1127815  0.7107755900000001  1.0000
  C   C77       1.0  0.9962201800000001  0.98307356  0.60742778  1.0000
  C   C78       1.0  0.1325057599999999  0.85285283  0.70824905  1.0000
  C   C79       1.0  0.92825849  0.04422887999999999  0.63413548  1.0000
  C   C80       1.0  0.058519779999999993  0.014167199999999961  0.5134684200000001  1.0000
  C   C81       1.0  0.9412212000000002  0.9751146  0.53999769  1.0000
  C   C82       1.0  0.06168250999999992  0.91933715  0.63243968  1.0000
  C   C83       1.0  0.05929224999999996  0.9170292999999999  0.6832945900000001  1.0000
  C   C84       1.0  0.99937913  0.98978426  0.55266443  1.0000
  C   C85       1.0  0.99108951  0.9779925500000001  0.70977119  1.0000
  C   C86       1.0  0.8826371  0.9478036899999996  0.57890564  1.0000
  C   C87       1.0  0.9259342499999997  0.04216674999999998  0.68485768  1.0000
  C   C88       1.0  0.11786621999999997  0.030241109999999956  0.5247624300000001  1.0000
  C   C89       1.0  0.82630551  0.93350771  0.56631583  1.0000
  C   C90       1.0  0.17440330999999998  0.05471733000000001  0.48616038  1.0000
  C   C91       1.0  0.8189959299999999  0.61280805  0.21077983  1.0000
  C   C92       1.0  0.9132845000000002  0.48305154  0.10744626  1.0000
  C   C93       1.0  0.80641161  0.35284034  0.20822481  1.0000
  C   C94       1.0  0.8933581100000001  0.5442300199999999  0.13416007  1.0000
  C   C95       1.0  0.9138516700000001  0.51417391  0.013458720000000002  1.0000
  C   C96       1.0  0.043679960000000004  0.47511137  0.03999144  1.0000
  C   C97       1.0  0.8865418500000003  0.41932195999999994  0.13244480000000003  1.0000
  C   C98       1.0  0.84038656  0.41703015999999987  0.18329154000000003  1.0000
  C   C99       1.0  0.9581837500000002  0.48978150999999975  0.0526678  1.0000
  C   C100      1.0  0.8211385299999999  0.47799742  0.20977223  1.0000
  C   C101      1.0  0.09067296000000011  0.4477916299999999  0.07890851  1.0000
  C   C102      1.0  0.8470094200000001  0.5421688899999999  0.18487433000000003  1.0000
  C   C103      1.0  0.8271369400000004  0.53024749  0.02475575  1.0000
  C   C104      1.0  0.17387865  0.43349621  0.06632904000000002  1.0000
  C   C105      1.0  0.7847167300000001  0.5547181099999999  0.9861512400000002  1.0000
  C   C106      1.0  0.6128073000000003  0.35741268  0.21076416  1.0000
  C   C107      1.0  0.4831110400000001  0.49617690999999997  0.10741666  1.0000
  C   C108      1.0  0.3528969000000001  0.6324113999999998  0.20817804000000004  1.0000
  C   C109      1.0  0.54427299  0.42821157  0.13414086  1.0000
  C   C110      1.0  0.5141763900000001  0.55851822  0.01345129  1.0000
  C   C111      1.0  0.47511663000000004  0.44121431  0.03998224000000001  1.0000
  C   C112      1.0  0.41937115  0.56163992  0.1324087  1.0000
  C   C113      1.0  0.4171082099999999  0.55917268  0.18325792  1.0000
  C   C114      1.0  0.48980079  0.4993624199999999  0.05264694000000001  1.0000
  C   C115      1.0  0.47805629000000016  0.4909977399999998  0.20975847000000006  1.0000
  C   C116      1.0  0.4477999199999999  0.38263533  0.07890585  1.0000
  C   C117      1.0  0.54223145  0.42587048  0.18485963000000005  1.0000
  C   C118      1.0  0.5302410900000001  0.6178607199999998  0.02476175  1.0000
  C   C119      1.0  0.43350158000000005  0.3263028799999999  0.06632265000000001  1.0000
  C   C120      1.0  0.5547174199999997  0.67440358  0.9861610600000003  1.0000
  C   C121      1.0  0.3575282600000001  0.81909377  0.21074468000000005  1.0000
  C   C122      1.0  0.49627816  0.9132940799999998  0.10742492000000002  1.0000
  C   C123      1.0  0.6326033100000001  0.8063913199999999  0.20824257000000002  1.0000
  C   C124      1.0  0.4283163600000001  0.89338541  0.13413248  1.0000
  C   C125      1.0  0.55851636  0.9138451  0.013455600000000002  1.0000
  C   C126      1.0  0.44123113  0.04367821999999999  0.03998471000000001  1.0000
  C   C127      1.0  0.56175369  0.88655155  0.13242923  1.0000
  C   C128      1.0  0.5593429499999999  0.84039214  0.18328789  1.0000
  C   C129      1.0  0.4994077400000001  0.95818493  0.05265442  1.0000
  C   C130      1.0  0.4911562000000002  0.8211518799999997  0.20975927000000005  1.0000
  C   C131      1.0  0.38265261000000017  0.09065159999999997  0.07890231000000002  1.0000
  C   C132      1.0  0.42603481999999987  0.84704989  0.18483970000000002  1.0000
  C   C133      1.0  0.6178569600000001  0.82712739  0.02476358  1.0000
  C   C134      1.0  0.32632134  0.17386671  0.06631691  1.0000
  C   C135      1.0  0.6743956799999999  0.78471547  0.9861642900000003  1.0000
  C   C136      1.0  0.6809981400000003  0.14254144  0.28922433  1.0000
  C   C137      1.0  0.5867128099999999  0.0037880300000000026  0.39255047000000004  1.0000
  C   C138      1.0  0.6936052800000001  0.8674411399999999  0.29175707  1.0000
  C   C139      1.0  0.6066454300000004  0.07174604  0.36583403  1.0000
  C   C140      1.0  0.5861487800000004  0.9414911299999995  0.48654122  1.0000
  C   C141      1.0  0.4563170299999999  0.05877872999999995  0.46001075000000013  1.0000
  C   C142      1.0  0.6134539400000002  0.9383036799999996  0.36755755000000007  1.0000
  C   C143      1.0  0.65960964  0.9407138599999999  0.31671086  1.0000
  C   C144      1.0  0.54180993  0.0006265799999999684  0.4473318800000001  1.0000
  C   C145      1.0  0.67886006  0.008915130000000004  0.29022749  1.0000
  C   C146      1.0  0.40932321000000005  0.11737163999999996  0.42109355000000004  1.0000
  C   C147      1.0  0.65299262  0.07406264000000001  0.3151223  1.0000
  C   C148      1.0  0.6728603000000001  0.8821465299999999  0.4752430900000001  1.0000
  C   C149      1.0  0.32611782000000006  0.17369947999999988  0.4336717000000001  1.0000
  C   C150      1.0  0.7152832600000001  0.8255971999999999  0.5138475  1.0000
  C   C151      1.0  0.8871590000000004  0.6810093399999998  0.28921652  1.0000
  C   C152      1.0  0.016892019999999914  0.58670835  0.39258082000000005  1.0000
  C   C153      1.0  0.14708633999999995  0.69351001  0.2918017600000001  1.0000
  C   C154      1.0  0.95572447  0.60662342  0.36586203  1.0000
  C   C155      1.0  0.98581875  0.58615086  0.4865461400000001  1.0000
  C   C156      1.0  0.02488130999999996  0.45631683  0.4600161100000001  1.0000
  C   C157      1.0  0.08062585000000005  0.6134248699999999  0.3675861800000001  1.0000
  C   C158      1.0  0.08288749000000004  0.65955372  0.3167364800000001  1.0000
  C   C159      1.0  0.010189439999999998  0.54181877  0.44734944  1.0000
  C   C160      1.0  0.02193778999999999  0.6788304  0.29024010000000006  1.0000
  C   C161      1.0  0.05220285000000002  0.40934374  0.4210954  1.0000
  C   C162      1.0  0.95776956  0.6529640599999998  0.31514481  1.0000
  C   C163      1.0  0.96975114  0.6728691799999997  0.47523792  1.0000
  C   C164      1.0  0.06649858000000003  0.3261302499999999  0.43367887  1.0000
  C   C165      1.0  0.94528334  0.71528256  0.51383971  1.0000
  C   C166      1.0  0.14244713999999992  0.88740044  0.28923856  1.0000
  C   C167      1.0  0.003718139999999998  0.016998209999999982  0.39257489  1.0000
  C   C168      1.0  0.8674428  0.14719664  0.2917591  1.0000
  C   C169      1.0  0.07168176999999978  0.9558380900000001  0.36586734000000004  1.0000
  C   C170      1.0  0.9414724700000002  0.9858318999999995  0.48654794  1.0000
  C   C171      1.0  0.05877525999999996  0.024887529999999953  0.4600164000000001  1.0000
  C   C172      1.0  0.93824557  0.08073250999999997  0.3675675300000001  1.0000
  C   C173      1.0  0.94064662  0.08303710999999998  0.3167084600000001  1.0000
  C   C174      1.0  0.0005929100000000067  0.010245720000000002  0.4473491700000001  1.0000
  C   C175      1.0  0.008838959999999993  0.02208568999999999  0.29023792  1.0000
  C   C176      1.0  0.11735626999999998  0.052198059999999956  0.4210952000000001  1.0000
  C   C177      1.0  0.07395381000000005  0.95794464  0.31515608  1.0000
  C   C178      1.0  0.88213373  0.96976033  0.47523748000000005  1.0000
  C   C179      1.0  0.17368977  0.06649693  0.43367992  1.0000
  C   C180      1.0  0.8255932899999999  0.94528506  0.51383497  1.0000
  O   O1        1.0  0.1775752099999999  0.69856485  0.81885664  1.0000
  O   O2        1.0  0.22773524  0.39018115999999997  0.7442234100000001  1.0000
  O   O3        1.0  0.23755002999999997  0.6438418799999999  0.7459978  1.0000
  O   O4        1.0  0.15827304999999997  0.3285580799999998  0.8148898700000001  1.0000
  O   O5        1.0  0.6985950199999998  0.30497444  0.8188604000000003  1.0000
  O   O6        1.0  0.39017930000000006  0.63787956  0.74420557  1.0000
  O   O7        1.0  0.64383266  0.3726437799999998  0.7459781600000002  1.0000
  O   O8        1.0  0.32861059  0.69823685  0.8149015  1.0000
  O   O9        1.0  0.30499057  0.17758778000000003  0.81883229  1.0000
  O   O10       1.0  0.63786676  0.22774585999999997  0.74419911  1.0000
  O   O11       1.0  0.3726148399999999  0.23753868999999997  0.74599344  1.0000
  O   O12       1.0  0.69830308  0.15823684  0.81490717  1.0000
  O   O13       1.0  0.32242062000000005  0.19500362999999998  0.68115902  1.0000
  O   O14       1.0  0.27227776  0.8621543800000001  0.75578641  1.0000
  O   O15       1.0  0.26246427999999994  0.12737955999999998  0.75399806  1.0000
  O   O16       1.0  0.3417209400000001  0.80171874  0.68511493  1.0000
  O   O17       1.0  0.80140258  0.32241113  0.68115198  1.0000
  O   O18       1.0  0.10983747000000002  0.27224649  0.7557909  1.0000
  O   O19       1.0  0.8561848800000001  0.26243492999999984  0.7540263200000002  1.0000
  O   O20       1.0  0.17142232999999996  0.34172432  0.6851157900000001  1.0000
  O   O21       1.0  0.19499881000000008  0.8014314799999996  0.6811716200000001  1.0000
  O   O22       1.0  0.8621662099999998  0.10977775999999996  0.7558020200000001  1.0000
  O   O23       1.0  0.12733905999999992  0.8561740499999999  0.7540126000000001  1.0000
  O   O24       1.0  0.8017181399999997  0.17143684999999997  0.6850948900000001  1.0000
  O   O25       1.0  0.8223968  0.3013899  0.1811596  1.0000
  O   O26       1.0  0.7722704299999998  0.60982266  0.25577432  1.0000
  O   O27       1.0  0.76247495  0.356145  0.25398494  1.0000
  O   O28       1.0  0.8417290200000004  0.6714073  0.18510167000000005  1.0000
  O   O29       1.0  0.3014890600000001  0.69492236  0.18109974  1.0000
  O   O30       1.0  0.60986343  0.36208576  0.25578048  1.0000
  O   O31       1.0  0.35625816  0.62717718  0.25395469000000004  1.0000
  O   O32       1.0  0.67150288  0.30166938999999987  0.18511670000000005  1.0000
  O   O33       1.0  0.6950160800000001  0.82241982  0.18115639000000003  1.0000
  O   O34       1.0  0.36222963999999996  0.77236166  0.2557703  1.0000
  O   O35       1.0  0.6274090500000001  0.7624587599999999  0.2540032400000001  1.0000
  O   O36       1.0  0.30180611  0.84184127  0.18508041  1.0000
  O   O37       1.0  0.6775896200000002  0.8049860799999998  0.31884133  1.0000
  O   O38       1.0  0.72775192  0.13790114  0.24419805  1.0000
  O   O39       1.0  0.7375030600000003  0.87266029  0.24601744  1.0000
  O   O40       1.0  0.65829661  0.19825873  0.31487474  1.0000
  O   O41       1.0  0.19848744000000001  0.67748569  0.31890678  1.0000
  O   O42       1.0  0.8901801300000001  0.72772491  0.24423027000000005  1.0000
  O   O43       1.0  0.14377006000000006  0.73744208  0.24603487  1.0000
  O   O44       1.0  0.8285237099999999  0.65828655  0.31488958  1.0000
  O   O45       1.0  0.8049460400000001  0.19861317  0.31882288  1.0000
  O   O46       1.0  0.13774993000000005  0.8903465099999998  0.24422726000000006  1.0000
  O   O47       1.0  0.8725762200000001  0.14389341  0.24597569  1.0000
  O   O48       1.0  0.19817634000000017  0.8288012899999998  0.31491637000000006  1.0000
