data_image0
_chemical_formula_structural       Na4La4H16C56O44
_chemical_formula_sum              "Na4 La4 H16 C56 O44"
_cell_length_a       6.4467
_cell_length_b       16.6485
_cell_length_c       21.6974
_cell_angle_alpha    90.0
_cell_angle_beta     90.0
_cell_angle_gamma    91.28300000000002

_symmetry_space_group_name_H-M    'P 1'
_symmetry_Int_Tables_number       1

loop_
  _symmetry_equiv_pos_as_xyz
  'x,y,z'

loop_
  _atom_site_type_symbol
  _atom_site_label
  _atom_site_symmetry_multiplicity
  _atom_site_fract_x
  _atom_site_fract_y
  _atom_site_fract_z
  _atom_site_occupancy
  Na  Na1       1.0  0.6117  0.53804  0.9258299999999998  1.0000
  Na  Na2       1.0  0.3883  0.9619600000000001  0.42583  1.0000
  Na  Na3       1.0  0.3883  0.46196  0.07417  1.0000
  Na  Na4       1.0  0.6117  0.03804  0.57417  1.0000
  La  La1       1.0  0.56246  0.7806900000000002  0.92227  1.0000
  La  La2       1.0  0.43754  0.71931  0.42226999999999987  1.0000
  La  La3       1.0  0.43754  0.21931  0.07773  1.0000
  La  La4       1.0  0.56246  0.28069  0.57773  1.0000
  H   H1        1.0  0.5435  0.645  0.7072  1.0000
  H   H2        1.0  0.597  0.6464  0.6013  1.0000
  H   H3        1.0  0.4034  0.8467  0.7454  1.0000
  H   H4        1.0  0.45760000000000006  0.8463  0.6399  1.0000
  H   H5        1.0  0.4565  0.855  0.2072  1.0000
  H   H6        1.0  0.403  0.8536  0.10129999999999999  1.0000
  H   H7        1.0  0.5966  0.6533  0.24539999999999998  1.0000
  H   H8        1.0  0.5424  0.6537  0.1399  1.0000
  H   H9        1.0  0.4565  0.355  0.2928  1.0000
  H   H10       1.0  0.403  0.3536  0.3987  1.0000
  H   H11       1.0  0.5966  0.1533  0.2546  1.0000
  H   H12       1.0  0.5424  0.15370000000000006  0.3600999999999999  1.0000
  H   H13       1.0  0.5435  0.145  0.7927999999999998  1.0000
  H   H14       1.0  0.597  0.1464  0.8986999999999999  1.0000
  H   H15       1.0  0.4034  0.3467  0.7546  1.0000
  H   H16       1.0  0.45760000000000006  0.3463000000000001  0.8601  1.0000
  C   C1        1.0  0.7941000000000001  0.71288  0.72982  1.0000
  C   C2        1.0  0.6574  0.6729  0.69091  1.0000
  C   C3        1.0  0.6894  0.6740000000000003  0.62699  1.0000
  C   C4        1.0  0.8546  0.7151600000000002  0.60207  1.0000
  C   C5        1.0  0.018500000000000013  0.7456200000000002  0.64147  1.0000
  C   C6        1.0  0.9867  0.74445  0.70626  1.0000
  C   C7        1.0  0.1489  0.7760000000000002  0.74568  1.0000
  C   C8        1.0  0.3122  0.81787  0.72004  1.0000
  C   C9        1.0  0.3444  0.8181  0.6562499999999999  1.0000
  C   C10       1.0  0.21129999999999996  0.77719  0.61763  1.0000
  C   C11       1.0  0.7145  0.7342500000000001  0.79249  1.0000
  C   C12       1.0  0.8357  0.74082  0.53582  1.0000
  C   C13       1.0  0.1668  0.7521400000000003  0.81252  1.0000
  C   C14       1.0  0.29019999999999996  0.7567  0.55443  1.0000
  C   C15       1.0  0.20590000000000003  0.7871200000000003  0.22982  1.0000
  C   C16       1.0  0.3426  0.8271  0.19091  1.0000
  C   C17       1.0  0.3106  0.826  0.12699  1.0000
  C   C18       1.0  0.1454  0.78484  0.10207  1.0000
  C   C19       1.0  0.9815  0.75438  0.14147  1.0000
  C   C20       1.0  0.013300000000000001  0.75555  0.20626  1.0000
  C   C21       1.0  0.8511  0.724  0.24568  1.0000
  C   C22       1.0  0.6878  0.68213  0.22004  1.0000
  C   C23       1.0  0.6555999999999998  0.6819000000000002  0.15625  1.0000
  C   C24       1.0  0.7887  0.7228100000000002  0.11763  1.0000
  C   C25       1.0  0.2855  0.76575  0.29249  1.0000
  C   C26       1.0  0.16430000000000003  0.75918  0.03582  1.0000
  C   C27       1.0  0.8332  0.74786  0.31252  1.0000
  C   C28       1.0  0.7098  0.7433  0.05443  1.0000
  C   C29       1.0  0.20590000000000003  0.28712  0.27018  1.0000
  C   C30       1.0  0.3426  0.3271  0.30909  1.0000
  C   C31       1.0  0.3106  0.326  0.37301  1.0000
  C   C32       1.0  0.14540000000000003  0.2848400000000001  0.39793  1.0000
  C   C33       1.0  0.9815  0.2543800000000001  0.35853  1.0000
  C   C34       1.0  0.013300000000000001  0.25555  0.29373999999999995  1.0000
  C   C35       1.0  0.8511  0.224  0.25432  1.0000
  C   C36       1.0  0.6878  0.18213  0.27996  1.0000
  C   C37       1.0  0.6555999999999998  0.18190000000000006  0.34375  1.0000
  C   C38       1.0  0.7887  0.22281  0.38237  1.0000
  C   C39       1.0  0.2855  0.26575  0.20750999999999997  1.0000
  C   C40       1.0  0.16430000000000003  0.25918  0.46418  1.0000
  C   C41       1.0  0.8332  0.24785999999999997  0.18748  1.0000
  C   C42       1.0  0.7098  0.2433  0.44557  1.0000
  C   C43       1.0  0.7941000000000001  0.21288  0.77018  1.0000
  C   C44       1.0  0.6574  0.1729  0.80909  1.0000
  C   C45       1.0  0.6894  0.174  0.87301  1.0000
  C   C46       1.0  0.8546  0.21516000000000005  0.89793  1.0000
  C   C47       1.0  0.018500000000000003  0.24562  0.85853  1.0000
  C   C48       1.0  0.9867  0.24445000000000003  0.79374  1.0000
  C   C49       1.0  0.1489  0.276  0.75432  1.0000
  C   C50       1.0  0.3122  0.31787  0.77996  1.0000
  C   C51       1.0  0.3444  0.3181000000000001  0.84375  1.0000
  C   C52       1.0  0.2113  0.27719  0.8823699999999999  1.0000
  C   C53       1.0  0.7145  0.23425  0.70751  1.0000
  C   C54       1.0  0.8357  0.24082000000000003  0.96418  1.0000
  C   C55       1.0  0.1668  0.25214  0.68748  1.0000
  C   C56       1.0  0.2902  0.2567  0.9455699999999999  1.0000
  O   O1        1.0  0.5945  0.68579  0.82068  1.0000
  O   O2        1.0  0.7559  0.8030200000000002  0.8141199999999997  1.0000
  O   O3        1.0  0.1019  0.68185  0.82613  1.0000
  O   O4        1.0  0.25690000000000013  0.7995600000000003  0.8494299999999999  1.0000
  O   O5        1.0  0.4065  0.80677  0.5266299999999999  1.0000
  O   O6        1.0  0.2483  0.68818  0.5320799999999999  1.0000
  O   O7        1.0  0.8985  0.8107600000000003  0.52214  1.0000
  O   O8        1.0  0.7443  0.6935800000000001  0.4979  1.0000
  O   O9        1.0  0.3545  0.64511  0.92482  1.0000
  O   O10       1.0  0.8387  0.6670000000000003  0.9238699999999999  1.0000
  O   O11       1.0  0.3122  0.4633700000000001  0.9633  1.0000
  O   O12       1.0  0.4055  0.8142100000000002  0.32068  1.0000
  O   O13       1.0  0.2441  0.69698  0.31412  1.0000
  O   O14       1.0  0.8981  0.8181500000000003  0.32613  1.0000
  O   O15       1.0  0.7431  0.70044  0.34943  1.0000
  O   O16       1.0  0.5935  0.69323  0.02663  1.0000
  O   O17       1.0  0.7517  0.8118200000000002  0.03208  1.0000
  O   O18       1.0  0.1015  0.68924  0.02214  1.0000
  O   O19       1.0  0.2557  0.80642  0.9978999999999999  1.0000
  O   O20       1.0  0.6455  0.8548900000000003  0.4248199999999999  1.0000
  O   O21       1.0  0.1613  0.833  0.42386999999999997  1.0000
  O   O22       1.0  0.6878  0.03663  0.4633  1.0000
  O   O23       1.0  0.4055  0.31421  0.17932  1.0000
  O   O24       1.0  0.2441  0.19698  0.18588  1.0000
  O   O25       1.0  0.8981  0.31815  0.17387  1.0000
  O   O26       1.0  0.7431  0.20044  0.15057  1.0000
  O   O27       1.0  0.5935  0.19323  0.47336999999999996  1.0000
  O   O28       1.0  0.7517  0.31182  0.46792  1.0000
  O   O29       1.0  0.1015  0.18924  0.47786  1.0000
  O   O30       1.0  0.2557  0.30642  0.5021  1.0000
  O   O31       1.0  0.6455  0.35489  0.07518  1.0000
  O   O32       1.0  0.1613  0.333  0.07612999999999999  1.0000
  O   O33       1.0  0.6878  0.53663  0.0367  1.0000
  O   O34       1.0  0.5945  0.18579000000000007  0.67932  1.0000
  O   O35       1.0  0.7559  0.30302  0.68588  1.0000
  O   O36       1.0  0.1019  0.18185  0.67387  1.0000
  O   O37       1.0  0.2569  0.29956  0.65057  1.0000
  O   O38       1.0  0.4065  0.30677  0.97337  1.0000
  O   O39       1.0  0.2483  0.18818  0.9679199999999999  1.0000
  O   O40       1.0  0.8985  0.31076  0.97786  1.0000
  O   O41       1.0  0.7443  0.19358  0.0021  1.0000
  O   O42       1.0  0.3545  0.14511  0.57518  1.0000
  O   O43       1.0  0.8387  0.167  0.57613  1.0000
  O   O44       1.0  0.3122  0.9633700000000001  0.5367  1.0000
