data_image0
_chemical_formula_structural       Cu8H72C160O48
_chemical_formula_sum              "Cu8 H72 C160 O48"
_cell_length_a       16.05785416
_cell_length_b       29.78664403
_cell_length_c       28.52518323
_cell_angle_alpha    90.00004913
_cell_angle_beta     90.00014247
_cell_angle_gamma    90.01335659999998

_space_group_name_H-M_alt    "P 1"
_space_group_IT_number       1

loop_
  _space_group_symop_operation_xyz
  'x, y, z'

loop_
  _atom_site_type_symbol
  _atom_site_label
  _atom_site_symmetry_multiplicity
  _atom_site_fract_x
  _atom_site_fract_y
  _atom_site_fract_z
  _atom_site_occupancy
  Cu  Cu1       1.0  0.18935856  0.22513266  0.99999929  1.0000
  Cu  Cu2       1.0  0.68936501  0.72515012  1.7300000000000004e-06  1.0000
  Cu  Cu3       1.0  0.81063755  0.77485827  0.99999833  1.0000
  Cu  Cu4       1.0  0.31067965  0.27489073  3.140000000000001e-06  1.0000
  Cu  Cu5       1.0  0.81056023  0.22518153  0.50000272  1.0000
  Cu  Cu6       1.0  0.3106291699999999  0.7251571699999999  0.4999981300000001  1.0000
  Cu  Cu7       1.0  0.18925113  0.77489319  0.50000254  1.0000
  Cu  Cu8       1.0  0.68972183  0.2747135499999999  0.4999964  1.0000
  H   H1        1.0  0.2547191  0.12639674  0.89659511  1.0000
  H   H2        1.0  0.46257959  0.21716862999999995  0.8932483  1.0000
  H   H3        1.0  0.31947996  0.08055903  0.83359455  1.0000
  H   H4        1.0  0.52682254  0.17257604  0.82906157  1.0000
  H   H5        1.0  0.75468639  0.62638593  0.8965963100000002  1.0000
  H   H6        1.0  0.96258245  0.71718683  0.8932539300000001  1.0000
  H   H7        1.0  0.8194595399999998  0.58057733  0.8336123600000002  1.0000
  H   H8        1.0  0.02683075  0.67257786  0.82911418  1.0000
  H   H9        1.0  0.74529516  0.87359896  0.89660357  1.0000
  H   H10       1.0  0.53738911  0.78280372  0.8932360400000002  1.0000
  H   H11       1.0  0.68053878  0.91941706  0.83362343  1.0000
  H   H12       1.0  0.47315935  0.82741948  0.82910328  1.0000
  H   H13       1.0  0.24528361  0.37359617999999994  0.89659378  1.0000
  H   H14       1.0  0.03741094  0.28283091  0.89324332  1.0000
  H   H15       1.0  0.18052115  0.41943627  0.83359576  1.0000
  H   H16       1.0  0.97316876  0.32742701  0.82906193  1.0000
  H   H17       1.0  0.74523071  0.12644976  0.60338591  1.0000
  H   H18       1.0  0.53740286  0.21717584999999995  0.6067671600000001  1.0000
  H   H19       1.0  0.68047366  0.08061951  0.6663854  1.0000
  H   H20       1.0  0.47317163  0.17254455999999999  0.67092239  1.0000
  H   H21       1.0  0.24531168  0.62643226  0.60336431  1.0000
  H   H22       1.0  0.03747984  0.71718764  0.60671924  1.0000
  H   H23       1.0  0.18052449999999995  0.58063994  0.6663405800000002  1.0000
  H   H24       1.0  0.97325989  0.67258305  0.67085376  1.0000
  H   H25       1.0  0.25470058  0.87354995  0.60336104  1.0000
  H   H26       1.0  0.46254861  0.78280667  0.6067261300000001  1.0000
  H   H27       1.0  0.31947861  0.91935069  0.66633688  1.0000
  H   H28       1.0  0.52675992  0.82741842  0.67085706  1.0000
  H   H29       1.0  0.75470159  0.37360025999999996  0.6034089  1.0000
  H   H30       1.0  0.9624962199999998  0.28284701  0.60674803  1.0000
  H   H31       1.0  0.81952037  0.41940579  0.66640472  1.0000
  H   H32       1.0  0.02678069  0.32745006  0.67090286  1.0000
  H   H33       1.0  0.74529394  0.87360023  0.10339711  1.0000
  H   H34       1.0  0.53738849  0.78280391  0.10676426  1.0000
  H   H35       1.0  0.6805368  0.91941766  0.16637524000000004  1.0000
  H   H36       1.0  0.4731611999999999  0.82741892  0.17089676000000004  1.0000
  H   H37       1.0  0.24528156  0.3735962  0.10340689  1.0000
  H   H38       1.0  0.03741261  0.28283096  0.10675592  1.0000
  H   H39       1.0  0.18052009  0.419435  0.16640455000000007  1.0000
  H   H40       1.0  0.9731704499999998  0.3274262  0.17093668000000006  1.0000
  H   H41       1.0  0.25472113  0.12639607  0.10340523  1.0000
  H   H42       1.0  0.46258044  0.21716817  0.10675338  1.0000
  H   H43       1.0  0.31948306999999987  0.08055969  0.16640393  1.0000
  H   H44       1.0  0.5268199699999998  0.17257577  0.17093897000000005  1.0000
  H   H45       1.0  0.75468773  0.62638631  0.10340318  1.0000
  H   H46       1.0  0.96258156  0.71718701  0.10674476  1.0000
  H   H47       1.0  0.81946003  0.58057867  0.16638767  1.0000
  H   H48       1.0  0.02683069  0.67257903  0.17088473  1.0000
  H   H49       1.0  0.2547018799999999  0.87355082  0.39663863  1.0000
  H   H50       1.0  0.4625493  0.78280679  0.39327338  1.0000
  H   H51       1.0  0.31947978  0.91935084  0.33366476  1.0000
  H   H52       1.0  0.52675744  0.82741812  0.32914294  1.0000
  H   H53       1.0  0.7547039299999998  0.3735997599999999  0.39659039  1.0000
  H   H54       1.0  0.9624948  0.2828468  0.39325194  1.0000
  H   H55       1.0  0.81952177  0.41940432  0.33359513  1.0000
  H   H56       1.0  0.02677911  0.32744911  0.32909814  1.0000
  H   H57       1.0  0.7452297  0.12644921  0.3966120700000001  1.0000
  H   H58       1.0  0.53740142  0.21717511999999994  0.39323167000000003  1.0000
  H   H59       1.0  0.6804712899999997  0.08062001  0.3336157  1.0000
  H   H60       1.0  0.47317325  0.17254382999999995  0.32907793000000013  1.0000
  H   H61       1.0  0.24531135  0.62643284  0.39663634  1.0000
  H   H62       1.0  0.03748125  0.71718795  0.39328250000000003  1.0000
  H   H63       1.0  0.18052461  0.58064134  0.33365954  1.0000
  H   H64       1.0  0.97326052  0.67258432  0.32914757  1.0000
  H   H65       1.0  0.50006569  0.15599452  0.75001355  1.0000
  H   H66       1.0  6.410000000000002e-06  0.65599793  0.7499910500000002  1.0000
  H   H67       1.0  0.49997454  0.8440028  0.7499949400000001  1.0000
  H   H68       1.0  0.9999492  0.34400915  0.75000955  1.0000
  H   H69       1.0  0.49997452  0.84400616  0.25000524  1.0000
  H   H70       1.0  0.9999491399999999  0.34400902  0.24999058  1.0000
  H   H71       1.0  0.5000648699999998  0.15598902  0.24998585  1.0000
  H   H72       1.0  6.910000000000041e-06  0.65600029  0.25000923  1.0000
  C   C1        1.0  0.3161922  0.20192436  0.9366175500000002  1.0000
  C   C2        1.0  0.4652245799999999  0.04799823  0.7909279  1.0000
  C   C3        1.0  0.46552402  0.09750302  0.78871993  1.0000
  C   C4        1.0  0.314563  0.13599188  0.8817525800000001  1.0000
  C   C5        1.0  0.35475609  0.17453602  0.89863516  1.0000
  C   C6        1.0  0.43140369  0.18757005  0.8793470000000001  1.0000
  C   C7        1.0  0.3507708  0.11039899  0.8465807300000002  1.0000
  C   C8        1.0  0.4274186  0.12342704  0.82653904  1.0000
  C   C9        1.0  0.46659468999999987  0.16266629  0.8433324500000001  1.0000
  C   C10       1.0  0.81621004  0.70194437  0.9366258300000002  1.0000
  C   C11       1.0  0.96522477  0.54802567  0.79093702  1.0000
  C   C12       1.0  0.9655196199999998  0.59751751  0.78872016  1.0000
  C   C13       1.0  0.81453339  0.63601424  0.8817580100000001  1.0000
  C   C14       1.0  0.85471638  0.67456736  0.8986524500000003  1.0000
  C   C15       1.0  0.93138891  0.68758095  0.87936776  1.0000
  C   C16       1.0  0.85075494  0.61041968  0.84658378  1.0000
  C   C17       1.0  0.92741929  0.62343369  0.82654843  1.0000
  C   C18       1.0  0.9666015699999999  0.66265848  0.8433666500000002  1.0000
  C   C19       1.0  0.6839030599999998  0.79810703  0.9366270700000002  1.0000
  C   C20       1.0  0.53478778  0.95197781  0.79092858  1.0000
  C   C21       1.0  0.53447985  0.90248395  0.78872006  1.0000
  C   C22       1.0  0.68544411  0.8639824  0.88176641  1.0000
  C   C23       1.0  0.64525502  0.8254290599999999  0.89865602  1.0000
  C   C24       1.0  0.56859667  0.81241108  0.87936038  1.0000
  C   C25       1.0  0.6492293  0.88957656  0.8465905800000002  1.0000
  C   C26       1.0  0.57257558  0.87656181  0.82654683  1.0000
  C   C27       1.0  0.53339063  0.83733206  0.84335802  1.0000
  C   C28       1.0  0.18386327999999993  0.29810063  0.93661842  1.0000
  C   C29       1.0  0.03477702  0.45199628  0.7909328200000002  1.0000
  C   C30       1.0  0.03448454  0.40249545999999997  0.7887149500000002  1.0000
  C   C31       1.0  0.18542560999999994  0.36400109  0.88175899  1.0000
  C   C32       1.0  0.14521419999999993  0.32545472  0.89864  1.0000
  C   C33       1.0  0.0685788  0.31242623  0.87933978  1.0000
  C   C34       1.0  0.14922568  0.38959469  0.8465834  1.0000
  C   C35       1.0  0.07257767999999998  0.37656993  0.8265362800000002  1.0000
  C   C36       1.0  0.03339589  0.33733394  0.8433284000000002  1.0000
  C   C37       1.0  0.68384924  0.201855  0.56342417  1.0000
  C   C38       1.0  0.53476378  0.048023289999999996  0.7090795100000001  1.0000
  C   C39       1.0  0.53448989  0.09752417  0.71127832  1.0000
  C   C40       1.0  0.68540644  0.13604306  0.61823541  1.0000
  C   C41       1.0  0.64523506  0.17456619  0.6013566100000002  1.0000
  C   C42       1.0  0.56859733  0.1875733  0.62063363  1.0000
  C   C43       1.0  0.6492003699999997  0.1104461  0.65340062  1.0000
  C   C44       1.0  0.57256506  0.1234416  0.67344583  1.0000
  C   C45       1.0  0.53339095  0.16266093  0.6566406800000002  1.0000
  C   C46       1.0  0.18388184  0.70196358  0.5633217200000002  1.0000
  C   C47       1.0  0.03477741  0.54803951  0.70906535  1.0000
  C   C48       1.0  0.03449438  0.59753279  0.71126266  1.0000
  C   C49       1.0  0.18548043  0.6360568499999998  0.6181854  1.0000
  C   C50       1.0  0.14534345  0.67459591  0.6012899000000003  1.0000
  C   C51       1.0  0.06870018  0.68759725  0.6205837900000002  1.0000
  C   C52       1.0  0.14924351999999994  0.6104715  0.65336509  1.0000
  C   C53       1.0  0.07260706  0.62345743  0.6734257600000002  1.0000
  C   C54       1.0  0.03348122  0.66267991  0.65659166  1.0000
  C   C55       1.0  0.31604175  0.79806837  0.56331955  1.0000
  C   C56       1.0  0.46522146  0.95196174  0.7090727700000001  1.0000
  C   C57       1.0  0.4655071799999999  0.90246717  0.71126593  1.0000
  C   C58       1.0  0.31454178  0.86392611  0.61818071  1.0000
  C   C59       1.0  0.35470251  0.82538944  0.60128726  1.0000
  C   C60       1.0  0.43133577  0.81239581  0.62058584  1.0000
  C   C61       1.0  0.3507671  0.88951801  0.65336134  1.0000
  C   C62       1.0  0.42740671  0.8765367  0.67342506  1.0000
  C   C63       1.0  0.46654297  0.83731884  0.65659383  1.0000
  C   C64       1.0  0.81625032  0.29810864999999986  0.56342421  1.0000
  C   C65       1.0  0.9652293  0.45197535  0.7090744100000003  1.0000
  C   C66       1.0  0.96549889  0.40247809  0.71127555  1.0000
  C   C67       1.0  0.8145447  0.363981  0.61823747  1.0000
  C   C68       1.0  0.85472052  0.32545176999999986  0.60135457  1.0000
  C   C69       1.0  0.9313469399999997  0.31244231  0.6206413700000001  1.0000
  C   C70       1.0  0.8507716499999998  0.38957201  0.65340508  1.0000
  C   C71       1.0  0.92741028  0.37656636999999993  0.67345172  1.0000
  C   C72       1.0  0.9665617  0.33734265  0.6566427700000002  1.0000
  C   C73       1.0  0.6839000499999998  0.7981085  0.06337215  1.0000
  C   C74       1.0  0.53478684  0.95197639  0.20906329  1.0000
  C   C75       1.0  0.53448232  0.90248309  0.21127865000000007  1.0000
  C   C76       1.0  0.68544159  0.8639850999999997  0.11823248  1.0000
  C   C77       1.0  0.64525426  0.82543008  0.10134081  1.0000
  C   C78       1.0  0.56859788  0.81240997  0.12064184000000003  1.0000
  C   C79       1.0  0.64922786  0.88957725  0.15340889  1.0000
  C   C80       1.0  0.57257523  0.87656204  0.17345463  1.0000
  C   C81       1.0  0.53339215  0.83733114  0.15664252000000006  1.0000
  C   C82       1.0  0.18386327  0.29810027  0.06338079  1.0000
  C   C83       1.0  0.034781119999999985  0.45199622  0.20907335  1.0000
  C   C84       1.0  0.03448445  0.40249497999999995  0.21128591  1.0000
  C   C85       1.0  0.1854251  0.36400052  0.11824168  1.0000
  C   C86       1.0  0.14521496  0.32545466999999995  0.1013591  1.0000
  C   C87       1.0  0.06857975  0.31242606  0.12065956  1.0000
  C   C88       1.0  0.14922543  0.38959366  0.15341778  1.0000
  C   C89       1.0  0.07257526  0.37657094999999996  0.17346518000000005  1.0000
  C   C90       1.0  0.03339547  0.33733402999999995  0.15667007000000005  1.0000
  C   C91       1.0  0.3161925999999999  0.20192346  0.06338364  1.0000
  C   C92       1.0  0.46522323999999987  0.04800238  0.20906469000000005  1.0000
  C   C93       1.0  0.46552154  0.09750443999999997  0.21127908  1.0000
  C   C94       1.0  0.31456682  0.1359903  0.11824591000000001  1.0000
  C   C95       1.0  0.35475698  0.17453692  0.10136366000000002  1.0000
  C   C96       1.0  0.43140377  0.18757057  0.12065525  1.0000
  C   C97       1.0  0.35077319  0.11039935999999997  0.15341861  1.0000
  C   C98       1.0  0.42742076  0.12342668  0.17346135000000001  1.0000
  C   C99       1.0  0.46659389  0.16266573  0.15666799  1.0000
  C   C100      1.0  0.81620974  0.70194439  0.063373  1.0000
  C   C101      1.0  0.96521922  0.54802536  0.20906847000000006  1.0000
  C   C102      1.0  0.96552025  0.597518  0.21128087  1.0000
  C   C103      1.0  0.81453406  0.63601485  0.11824165  1.0000
  C   C104      1.0  0.8547163  0.67456766  0.10134623  1.0000
  C   C105      1.0  0.93138862  0.68758154  0.12063132000000003  1.0000
  C   C106      1.0  0.85075562  0.6104205  0.15341625  1.0000
  C   C107      1.0  0.92742183  0.62343327  0.17345246000000006  1.0000
  C   C108      1.0  0.9666024299999998  0.6626590499999998  0.15663223000000007  1.0000
  C   C109      1.0  0.3160454  0.79806954  0.43668219000000014  1.0000
  C   C110      1.0  0.4652220399999999  0.95195993  0.29093549000000013  1.0000
  C   C111      1.0  0.4655042  0.90246625  0.28873582  1.0000
  C   C112      1.0  0.3145457  0.86392885  0.38182136  1.0000
  C   C113      1.0  0.35470423  0.82539064  0.39871669  1.0000
  C   C114      1.0  0.43133357  0.8123943599999998  0.3794116800000001  1.0000
  C   C115      1.0  0.35076884  0.8895186399999999  0.34663976000000013  1.0000
  C   C116      1.0  0.42740632  0.87653672  0.32657376  1.0000
  C   C117      1.0  0.4665402099999999  0.83731784  0.34340536  1.0000
  C   C118      1.0  0.81625067  0.2981079  0.43657658  1.0000
  C   C119      1.0  0.96522357  0.45197534  0.2909185  1.0000
  C   C120      1.0  0.9654988299999998  0.40247766999999995  0.28872337  1.0000
  C   C121      1.0  0.8145455899999998  0.36398014  0.38176183  1.0000
  C   C122      1.0  0.85472012  0.32545138  0.39864621  1.0000
  C   C123      1.0  0.93134628  0.312442  0.37935883  1.0000
  C   C124      1.0  0.8507722799999998  0.38957082  0.34659384  1.0000
  C   C125      1.0  0.92741319  0.37656748  0.32654675  1.0000
  C   C126      1.0  0.96656252  0.33734275  0.3433584700000001  1.0000
  C   C127      1.0  0.68384635  0.20185224  0.43657682  1.0000
  C   C128      1.0  0.53476767  0.04802784  0.29092779  1.0000
  C   C129      1.0  0.53449512  0.09752573  0.28872396  1.0000
  C   C130      1.0  0.68540258  0.13604023  0.3817653500000001  1.0000
  C   C131      1.0  0.64523224  0.17456475  0.39864834  1.0000
  C   C132      1.0  0.56859849  0.18757525  0.37936184  1.0000
  C   C133      1.0  0.64919778  0.11044516999999997  0.34660064  1.0000
  C   C134      1.0  0.57256351  0.12344066  0.32655107  1.0000
  C   C135      1.0  0.53339411  0.16266287  0.3433570800000001  1.0000
  C   C136      1.0  0.18388266  0.70196384  0.4366804  1.0000
  C   C137      1.0  0.03478275  0.5480390399999999  0.29092874  1.0000
  C   C138      1.0  0.03449379  0.59753315  0.28873652  1.0000
  C   C139      1.0  0.18548051  0.63605761  0.38181527  1.0000
  C   C140      1.0  0.14534416  0.6745961899999999  0.3987122000000001  1.0000
  C   C141      1.0  0.06870104  0.68759763  0.37941769  1.0000
  C   C142      1.0  0.14924336  0.61047243  0.3466350500000001  1.0000
  C   C143      1.0  0.07260465  0.62345671  0.32657376  1.0000
  C   C144      1.0  0.033480679999999985  0.66268027  0.3434100200000001  1.0000
  C   C145      1.0  0.49999008999999994  0.02338616  0.7500033500000002  1.0000
  C   C146      1.0  0.50003423  0.11931455  0.7500076000000001  1.0000
  C   C147      1.0  8.570000000000015e-06  0.52341489  0.7500051200000002  1.0000
  C   C148      1.0  6.320000000000023e-06  0.61931841  0.74998985  1.0000
  C   C149      1.0  0.49999744000000007  0.97658203  0.7500050200000002  1.0000
  C   C150      1.0  0.49998228  0.88068131  0.7499931  1.0000
  C   C151      1.0  8.570000000000015e-06  0.47661408  0.7500036  1.0000
  C   C152      1.0  0.99997981  0.38068868  0.75000154  1.0000
  C   C153      1.0  0.49999712  0.97658521  0.24999524  1.0000
  C   C154      1.0  0.49998253000000004  0.88068335  0.25000714  1.0000
  C   C155      1.0  7.960000000000002e-06  0.47661665  0.24999605  1.0000
  C   C156      1.0  0.99997969  0.38068739  0.24999848  1.0000
  C   C157      1.0  0.4999896999999999  0.02338458  0.24999682  1.0000
  C   C158      1.0  0.50002942  0.1193115  0.24999278  1.0000
  C   C159      1.0  8.170000000000005e-06  0.52341067  0.24999463000000002  1.0000
  C   C160      1.0  6.4899999999999285e-06  0.6193207299999999  0.25001045  1.0000
  O   O1        1.0  0.24464319  0.18935253  0.95142583  1.0000
  O   O2        1.0  0.35746962  0.23593287  0.95117461  1.0000
  O   O3        1.0  0.4276598499999999  0.02789073  0.82272111  1.0000
  O   O4        1.0  0.74461389  0.68932926  0.95144287  1.0000
  O   O5        1.0  0.8575065  0.7359750299999999  0.95118251  1.0000
  O   O6        1.0  0.92763974  0.52790411  0.8227148200000002  1.0000
  O   O7        1.0  0.7554319399999998  0.810653  0.9514310100000002  1.0000
  O   O8        1.0  0.64246397  0.76405582  0.95118693  1.0000
  O   O9        1.0  0.57236515  0.97209828  0.82271241  1.0000
  O   O10       1.0  0.25535993  0.31064255  0.9514130100000002  1.0000
  O   O11       1.0  0.14252401  0.2640643  0.95118209  1.0000
  O   O12       1.0  0.0723418  0.47210944  0.82272043  1.0000
  O   O13       1.0  0.7553389199999998  0.18936663  0.54852274  1.0000
  O   O14       1.0  0.64269937  0.23591224  0.54876962  1.0000
  O   O15       1.0  0.57234067  0.02792615  0.67729036  1.0000
  O   O16       1.0  0.2554005399999999  0.68940548  0.54849868  1.0000
  O   O17       1.0  0.14261478  0.73595258  0.5487774  1.0000
  O   O18       1.0  0.0723574  0.52792778  0.67728618  1.0000
  O   O19       1.0  0.24460338  0.8106106899999997  0.54851677  1.0000
  O   O20       1.0  0.35735888  0.7640388899999999  0.54876305  1.0000
  O   O21       1.0  0.42765373  0.97207253  0.6772864800000001  1.0000
  O   O22       1.0  0.74470511  0.31056208  0.54850476  1.0000
  O   O23       1.0  0.85744553  0.26408071  0.54879578  1.0000
  O   O24       1.0  0.92765398  0.47207968  0.6772918800000002  1.0000
  O   O25       1.0  0.7554361599999998  0.81065034  0.04857364  1.0000
  O   O26       1.0  0.64246117  0.76405624  0.0488107  1.0000
  O   O27       1.0  0.5723741199999998  0.97209768  0.17728584  1.0000
  O   O28       1.0  0.25536139  0.31064156  0.04858664  1.0000
  O   O29       1.0  0.14252441  0.26406415  0.04881747  1.0000
  O   O30       1.0  0.07232792999999997  0.47210736  0.17727942  1.0000
  O   O31       1.0  0.24464049  0.18935397  0.04857509  1.0000
  O   O32       1.0  0.35747358  0.23593124  0.0488233  1.0000
  O   O33       1.0  0.42765047  0.027891349999999992  0.17727866  1.0000
  O   O34       1.0  0.74461314  0.68932924  0.04855607  1.0000
  O   O35       1.0  0.85750494  0.73597543  0.04881700000000001  1.0000
  O   O36       1.0  0.92765045  0.52790611  0.17728486  1.0000
  O   O37       1.0  0.24459844999999994  0.81060665  0.45147776  1.0000
  O   O38       1.0  0.35736329  0.76403982  0.4512404200000001  1.0000
  O   O39       1.0  0.42764492  0.97207178  0.32271559  1.0000
  O   O40       1.0  0.74470411  0.31056106  0.45149545  1.0000
  O   O41       1.0  0.85744421  0.26407987  0.4512044  1.0000
  O   O42       1.0  0.9276653  0.47207790999999993  0.32270677  1.0000
  O   O43       1.0  0.75534854  0.18937157  0.45146909  1.0000
  O   O44       1.0  0.64269615  0.23591148  0.45123137  1.0000
  O   O45       1.0  0.57234657  0.02792672  0.32271133  1.0000
  O   O46       1.0  0.2554018  0.68940574  0.45150278  1.0000
  O   O47       1.0  0.1426164  0.73595294  0.45122405  1.0000
  O   O48       1.0  0.07234825  0.52792921  0.32271293  1.0000
