data_image0
_chemical_formula_structural       Al8H32C64O40
_chemical_formula_sum              "Al8 H32 C64 O40"
_cell_length_a       14.94752
_cell_length_b       14.864060000000002
_cell_length_c       11.91468
_cell_angle_alpha    89.98033000000001
_cell_angle_beta     90.04076
_cell_angle_gamma    89.96558

_space_group_name_H-M_alt    "P 1"
_space_group_IT_number       1

loop_
  _space_group_symop_operation_xyz
  'x, y, z'

loop_
  _atom_site_type_symbol
  _atom_site_label
  _atom_site_symmetry_multiplicity
  _atom_site_fract_x
  _atom_site_fract_y
  _atom_site_fract_z
  _atom_site_occupancy
  Al  Al1       1.0  0.69171  0.30844  0.49928  1.0000
  Al  Al2       1.0  0.18975  0.8073  0.99905  1.0000
  Al  Al3       1.0  0.8064799999999998  0.19116  0.9995700000000001  1.0000
  Al  Al4       1.0  0.3073799999999999  0.69391  0.49915  1.0000
  Al  Al5       1.0  0.69149  0.19176  0.74899  1.0000
  Al  Al6       1.0  0.19152999999999998  0.69106  0.24936  1.0000
  Al  Al7       1.0  0.8053999999999998  0.3086  0.24841000000000002  1.0000
  Al  Al8       1.0  0.30592  0.81016  0.74919  1.0000
  H   H1        1.0  0.56485  0.37043  0.9215900000000001  1.0000
  H   H2        1.0  0.07394  0.8798  0.42491  1.0000
  H   H3        1.0  0.9377199999999998  0.13583000000000003  0.41791  1.0000
  H   H4        1.0  0.4274399999999999  0.62543  0.9238000000000001  1.0000
  H   H5        1.0  0.63163  0.06105  0.16937  1.0000
  H   H6        1.0  0.12902  0.56331  0.6730100000000001  1.0000
  H   H7        1.0  0.8747099999999998  0.42586  0.67108  1.0000
  H   H8        1.0  0.37364  0.9311500000000001  0.17340000000000003  1.0000
  H   H9        1.0  0.93097  0.36898  0.83079  1.0000
  H   H10       1.0  0.43475999999999987  0.86825  0.32969  1.0000
  H   H11       1.0  0.5704199999999998  0.12462  0.32625  1.0000
  H   H12       1.0  0.07125  0.62326  0.82838  1.0000
  H   H13       1.0  0.87789  0.07542  0.57562  1.0000
  H   H14       1.0  0.36774  0.5650400000000001  0.07985  1.0000
  H   H15       1.0  0.6236599999999998  0.42951  0.0793  1.0000
  H   H16       1.0  0.13441  0.94162  0.58091  1.0000
  H   H17       1.0  0.8096799999999997  0.2346  0.61391  1.0000
  H   H18       1.0  0.3057  0.77321  0.13855  1.0000
  H   H19       1.0  0.68496  0.23498  0.13106  1.0000
  H   H20       1.0  0.19178  0.72824  0.6389  1.0000
  H   H21       1.0  0.72823  0.30892  0.88705  1.0000
  H   H22       1.0  0.22608999999999996  0.80867  0.38677  1.0000
  H   H23       1.0  0.73938  0.18679  0.36733000000000005  1.0000
  H   H24       1.0  0.27068  0.69293  0.88694  1.0000
  H   H25       1.0  0.4998499999999999  0.50181  0.6107  1.0000
  H   H26       1.0  0.99877  0.99896  0.11006  1.0000
  H   H27       1.0  0.4985999999999999  0.9978  0.8596600000000001  1.0000
  H   H28       1.0  0.9996099999999999  0.50106  0.36034000000000005  1.0000
  H   H29       1.0  0.997  0.50052  0.14084  1.0000
  H   H30       1.0  0.49986999999999987  0.00067  0.63937  1.0000
  H   H31       1.0  0.9990599999999998  0.00173  0.8895200000000001  1.0000
  H   H32       1.0  0.49678999999999995  0.49793  0.3908900000000001  1.0000
  C   C1        1.0  0.59235  0.35893  0.70214  1.0000
  C   C2        1.0  0.54031  0.43058  0.7609400000000001  1.0000
  C   C3        1.0  0.5360599999999998  0.42794  0.8782000000000001  1.0000
  C   C4        1.0  0.09359  0.85959  0.20402000000000003  1.0000
  C   C5        1.0  0.04496999999999999  0.93397  0.26205  1.0000
  C   C6        1.0  0.04495  0.93615  0.37941000000000014  1.0000
  C   C7        1.0  0.9068199999999997  0.14238  0.19952  1.0000
  C   C8        1.0  0.96087  0.07281  0.25915  1.0000
  C   C9        1.0  0.9664999999999998  0.07756  0.37617  1.0000
  C   C10       1.0  0.40493  0.64238  0.70386  1.0000
  C   C11       1.0  0.4556199999999999  0.56923  0.76188  1.0000
  C   C12       1.0  0.4568699999999999  0.56885  0.8792900000000001  1.0000
  C   C13       1.0  0.64184  0.08967  0.9506400000000003  1.0000
  C   C14       1.0  0.57047  0.03766  0.00944  1.0000
  C   C15       1.0  0.5733499999999998  0.03367  0.12673  1.0000
  C   C16       1.0  0.14131  0.59327  0.45398  1.0000
  C   C17       1.0  0.07005  0.54018  0.51157  1.0000
  C   C18       1.0  0.07184  0.53521  0.62882  1.0000
  C   C19       1.0  0.8585899999999997  0.40662  0.45109  1.0000
  C   C20       1.0  0.9317  0.45594000000000007  0.51055  1.0000
  C   C21       1.0  0.9312899999999997  0.45628  0.62804  1.0000
  C   C22       1.0  0.35714999999999997  0.90662  0.95386  1.0000
  C   C23       1.0  0.4305999999999999  0.9563700000000002  0.011520000000000004  1.0000
  C   C24       1.0  0.4309399999999999  0.9584700000000003  0.12877  1.0000
  C   C25       1.0  0.9042799999999998  0.35828  0.04898000000000001  1.0000
  C   C26       1.0  0.9570599999999999  0.42919  0.99053  1.0000
  C   C27       1.0  0.961  0.42625  0.87328  1.0000
  C   C28       1.0  0.40807  0.85765  0.54827  1.0000
  C   C29       1.0  0.45989  0.92899  0.48946  1.0000
  C   C30       1.0  0.46375  0.9260200000000001  0.37222  1.0000
  C   C31       1.0  0.5923799999999999  0.14138  0.54621  1.0000
  C   C32       1.0  0.54308  0.06794  0.48788  1.0000
  C   C33       1.0  0.5417999999999997  0.06754  0.37057  1.0000
  C   C34       1.0  0.09112  0.64094  0.04792000000000001  1.0000
  C   C35       1.0  0.04142  0.56758  0.98947  1.0000
  C   C36       1.0  0.04072  0.56687  0.8720500000000002  1.0000
  C   C37       1.0  0.8591199999999998  0.09530000000000002  0.79591  1.0000
  C   C38       1.0  0.9330299999999998  0.04679  0.73784  1.0000
  C   C39       1.0  0.9344499999999998  0.04659  0.62047  1.0000
  C   C40       1.0  0.35500999999999994  0.59055  0.29865  1.0000
  C   C41       1.0  0.42678  0.53902  0.24027  1.0000
  C   C42       1.0  0.42501  0.53591  0.12292000000000003  1.0000
  C   C43       1.0  0.63895  0.40688  0.29842  1.0000
  C   C44       1.0  0.56574  0.45633  0.23991000000000004  1.0000
  C   C45       1.0  0.56634  0.45827  0.12255000000000002  1.0000
  C   C46       1.0  0.14332  0.91187  0.79857  1.0000
  C   C47       1.0  0.07233999999999997  0.9645500000000001  0.74006  1.0000
  C   C48       1.0  0.07621  0.96977  0.62292  1.0000
  C   C49       1.0  0.49874  0.50067  0.7019  1.0000
  C   C50       1.0  0.4957899999999999  0.49767  0.9389000000000001  1.0000
  C   C51       1.0  0.0014199999999999996  0.00173  0.20116  1.0000
  C   C52       1.0  0.006909999999999999  0.008389999999999996  0.43789  1.0000
  C   C53       1.0  0.49984  0.99727  0.95089  1.0000
  C   C54       1.0  0.5029699999999999  0.99559  0.18783000000000002  1.0000
  C   C55       1.0  0.00042  0.4992  0.45154  1.0000
  C   C56       1.0  0.0017799999999999995  0.49515  0.68862  1.0000
  C   C57       1.0  0.9984099999999999  0.49918  0.04964000000000001  1.0000
  C   C58       1.0  0.00159  0.49572  0.8124400000000003  1.0000
  C   C59       1.0  0.5008499999999998  0.99926  0.54821  1.0000
  C   C60       1.0  0.50335  0.99602  0.31137  1.0000
  C   C61       1.0  0.0013  0.00419  0.79843  1.0000
  C   C62       1.0  0.006469999999999998  0.00911  0.5616000000000001  1.0000
  C   C63       1.0  0.4964599999999999  0.4978  0.29967  1.0000
  C   C64       1.0  0.49541  0.49686  0.0626  1.0000
  O   O1        1.0  0.6222299999999997  0.37749  0.60519  1.0000
  O   O2        1.0  0.60476  0.2853800000000001  0.75621  1.0000
  O   O3        1.0  0.12026999999999999  0.87564  0.10488000000000001  1.0000
  O   O4        1.0  0.10649  0.78715  0.26033  1.0000
  O   O5        1.0  0.87521  0.12048  0.1043  1.0000
  O   O6        1.0  0.8944299999999997  0.21692  0.25076  1.0000
  O   O7        1.0  0.37756  0.62598  0.60517  1.0000
  O   O8        1.0  0.3911099999999999  0.71448  0.7604100000000001  1.0000
  O   O9        1.0  0.6232  0.11984  0.85364  1.0000
  O   O10       1.0  0.71462  0.10234  0.0053  1.0000
  O   O11       1.0  0.12395  0.62187  0.35596  1.0000
  O   O12       1.0  0.21296  0.60823  0.51045  1.0000
  O   O13       1.0  0.8756199999999997  0.37769  0.35313  1.0000
  O   O14       1.0  0.7855099999999998  0.39533000000000007  0.50525  1.0000
  O   O15       1.0  0.37369999999999987  0.8794100000000002  0.85515  1.0000
  O   O16       1.0  0.2852099999999999  0.89333  0.01018  1.0000
  O   O17       1.0  0.8714799999999998  0.37852  0.14402  1.0000
  O   O18       1.0  0.8937199999999997  0.28382  0.9970400000000001  1.0000
  O   O19       1.0  0.3780399999999999  0.87608  0.6453  1.0000
  O   O20       1.0  0.3956699999999999  0.78461  0.4941  1.0000
  O   O21       1.0  0.61988  0.12441  0.64485  1.0000
  O   O22       1.0  0.6047399999999999  0.21392  0.49021000000000003  1.0000
  O   O23       1.0  0.12053999999999998  0.62309  0.14561  1.0000
  O   O24       1.0  0.10219  0.71461  0.99419  1.0000
  O   O25       1.0  0.87548  0.12381000000000002  0.89419  1.0000
  O   O26       1.0  0.7865399999999998  0.1066  0.74023  1.0000
  O   O27       1.0  0.37362  0.62204  0.39505  1.0000
  O   O28       1.0  0.28161999999999987  0.60115  0.24509  1.0000
  O   O29       1.0  0.6220999999999998  0.37803  0.39658000000000004  1.0000
  O   O30       1.0  0.7116  0.39537  0.2439  1.0000
  O   O31       1.0  0.12415  0.87995  0.89464  1.0000
  O   O32       1.0  0.21665999999999994  0.90086  0.74511  1.0000
  O   O33       1.0  0.7470399999999998  0.24931  0.62285  1.0000
  O   O34       1.0  0.24819999999999995  0.74631  0.12164  1.0000
  O   O35       1.0  0.7476899999999997  0.24945  0.12291  1.0000
  O   O36       1.0  0.24907999999999994  0.75547  0.62168  1.0000
  O   O37       1.0  0.75049  0.24876  0.87294  1.0000
  O   O38       1.0  0.25293  0.75062  0.37104  1.0000
  O   O39       1.0  0.7506899999999999  0.25067  0.37410000000000004  1.0000
  O   O40       1.0  0.24469999999999997  0.75135  0.8712  1.0000
