data_image0
_chemical_formula_structural       Zn12H128C208N8O48
_chemical_formula_sum              "Zn12 H128 C208 N8 O48"
_cell_length_a       14.14942502
_cell_length_b       18.09089777
_cell_length_c       26.05600907
_cell_angle_alpha    89.99998921
_cell_angle_beta     89.99997802
_cell_angle_gamma    90.00001914

_symmetry_space_group_name_H-M    'P 1'
_symmetry_Int_Tables_number       1

loop_
  _symmetry_equiv_pos_as_xyz
  'x,y,z'

loop_
  _atom_site_type_symbol
  _atom_site_label
  _atom_site_symmetry_multiplicity
  _atom_site_fract_x
  _atom_site_fract_y
  _atom_site_fract_z
  _atom_site_occupancy
  Zn  Zn1       1.0  0.5263669  0.9411281999999999  0.6476864  1.0000
  Zn  Zn2       1.0  0.47363349  0.5588724  0.64768667  1.0000
  Zn  Zn3       1.0  0.026367130000000006  0.55887202  0.14768622  1.0000
  Zn  Zn4       1.0  0.97363323  0.9411277300000002  0.14768641  1.0000
  Zn  Zn5       1.0  0.4999999400000001  0.75000011  0.64626371  1.0000
  Zn  Zn6       1.0  0.9999996600000001  0.74999997  0.14626379  1.0000
  Zn  Zn7       1.0  0.9736333  0.44112779  0.8523135200000002  1.0000
  Zn  Zn8       1.0  0.026366870000000008  0.0588718  0.85231345  1.0000
  Zn  Zn9       1.0  0.47363332000000014  0.05887224  0.35231337  1.0000
  Zn  Zn10      1.0  0.52636658  0.44112809  0.3523134499999999  1.0000
  Zn  Zn11      1.0  1.4000000000000004e-07  0.24999987999999998  0.85373624  1.0000
  Zn  Zn12      1.0  0.49999977  0.24999997  0.35373615  1.0000
  H   H1        1.0  0.46112762  0.05822215  0.57486411  1.0000
  H   H2        1.0  0.44899305  0.19672827  0.57208747  1.0000
  H   H3        1.0  0.56024674  0.19984108  0.72670229  1.0000
  H   H4        1.0  0.56956436  0.06166047000000001  0.7222016700000001  1.0000
  H   H5        1.0  0.6118354900000003  0.51413743  0.50212194  1.0000
  H   H6        1.0  0.70233666  0.51622994  0.42039262  1.0000
  H   H7        1.0  0.7499404900000001  0.74992387  0.43955265  1.0000
  H   H8        1.0  0.65711456  0.74701427  0.52080503  1.0000
  H   H9        1.0  0.84529364  0.5258372  0.38344776  1.0000
  H   H10       1.0  0.73901557  0.74556266  0.35498981  1.0000
  H   H11       1.0  0.83960959  0.93086465  0.6867466  1.0000
  H   H12       1.0  0.00020796  0.87392602  0.6903795099999999  1.0000
  H   H13       1.0  0.881719  0.66747476  0.63861083  1.0000
  H   H14       1.0  0.7221015300000002  0.7254058  0.63499892  1.0000
  H   H15       1.0  0.92876347  0.52913299  0.29930325  1.0000
  H   H16       1.0  0.82468544  0.74793369  0.27164691  1.0000
  H   H17       1.0  0.53887233  0.44177809  0.57486397  1.0000
  H   H18       1.0  0.55100729  0.30327211  0.57208747  1.0000
  H   H19       1.0  0.4397534900000001  0.30015936  0.72670218  1.0000
  H   H20       1.0  0.43043564  0.43833997  0.7222016  1.0000
  H   H21       1.0  0.38816409  0.98586286  0.50212207  1.0000
  H   H22       1.0  0.29766343000000006  0.98376994  0.42039249999999995  1.0000
  H   H23       1.0  0.25005946  0.75007657  0.43955253  1.0000
  H   H24       1.0  0.34288493  0.75298577  0.52080501  1.0000
  H   H25       1.0  0.15470676  0.9741628  0.38344749  1.0000
  H   H26       1.0  0.26098471  0.75443743  0.35499012  1.0000
  H   H27       1.0  0.16039030000000004  0.5691356  0.68674664  1.0000
  H   H28       1.0  0.9997919600000001  0.62607426  0.69037956  1.0000
  H   H29       1.0  0.11828103  0.83252541  0.6386107999999999  1.0000
  H   H30       1.0  0.27789845  0.77459447  0.63499887  1.0000
  H   H31       1.0  0.07123673  0.9708667599999999  0.29930312  1.0000
  H   H32       1.0  0.17531459000000002  0.75206549  0.27164719  1.0000
  H   H33       1.0  0.96112784  0.44177801  0.07486406  1.0000
  H   H34       1.0  0.9489930200000001  0.30327192  0.07208744  1.0000
  H   H35       1.0  0.06024678  0.3001592  0.22670223  1.0000
  H   H36       1.0  0.06956459000000001  0.43833982  0.22220162  1.0000
  H   H37       1.0  0.11183573000000002  0.98586259  0.00212211  1.0000
  H   H38       1.0  0.20233625  0.9837701199999999  0.92039254  1.0000
  H   H39       1.0  0.24994050000000007  0.75007638  0.93955267  1.0000
  H   H40       1.0  0.15711484  0.75298592  0.02080519  1.0000
  H   H41       1.0  0.34529364  0.9741629300000001  0.88344756  1.0000
  H   H42       1.0  0.23901548  0.75443718  0.85499009  1.0000
  H   H43       1.0  0.33960942  0.5691354800000001  0.1867467  1.0000
  H   H44       1.0  0.50020775  0.62607418  0.19037965999999998  1.0000
  H   H45       1.0  0.38171907  0.8325253  0.13861073  1.0000
  H   H46       1.0  0.22210157  0.77459423  0.13499881  1.0000
  H   H47       1.0  0.42876350000000013  0.9708668800000001  0.79930318  1.0000
  H   H48       1.0  0.32468554  0.75206574  0.77164713  1.0000
  H   H49       1.0  0.03887242  0.05822198  0.0748641  1.0000
  H   H50       1.0  0.05100722  0.19672804  0.07208745  1.0000
  H   H51       1.0  0.93975361  0.19984087  0.22670227  1.0000
  H   H52       1.0  0.9304358200000002  0.06166027000000001  0.22220174  1.0000
  H   H53       1.0  0.88816395  0.51413731  0.00212206  1.0000
  H   H54       1.0  0.79766346  0.51622992  0.92039248  1.0000
  H   H55       1.0  0.7500593500000002  0.7499236  0.93955259  1.0000
  H   H56       1.0  0.8428849700000001  0.74701406  0.02080512  1.0000
  H   H57       1.0  0.6547066200000001  0.52583705  0.88344774  1.0000
  H   H58       1.0  0.76098432  0.74556259  0.85498995  1.0000
  H   H59       1.0  0.66039054  0.93086458  0.18674663  1.0000
  H   H60       1.0  0.4997921800000001  0.87392586  0.19037963000000002  1.0000
  H   H61       1.0  0.61828098  0.66747471  0.1386107  1.0000
  H   H62       1.0  0.7778984600000002  0.72540579  0.13499875  1.0000
  H   H63       1.0  0.57123656  0.52913273  0.79930329  1.0000
  H   H64       1.0  0.6753143900000003  0.7479339  0.77164715  1.0000
  H   H65       1.0  0.03887241000000002  0.55822179  0.9251358700000001  1.0000
  H   H66       1.0  0.05100723  0.69672779  0.92791219  1.0000
  H   H67       1.0  0.93975272  0.69984057  0.77329754  1.0000
  H   H68       1.0  0.9304348600000002  0.5616598900000002  0.77779846  1.0000
  H   H69       1.0  0.88816398  0.01413729  0.99787781  1.0000
  H   H70       1.0  0.7976636700000002  0.01623001  0.07960745  1.0000
  H   H71       1.0  0.75005962  0.24992359000000003  0.06044736  1.0000
  H   H72       1.0  0.8428851700000002  0.24701409  0.97919476  1.0000
  H   H73       1.0  0.6547066200000001  0.0258372  0.11655235000000001  1.0000
  H   H74       1.0  0.7609845800000001  0.24556274  0.14500988  1.0000
  H   H75       1.0  0.6603906700000002  0.4308645  0.81325342  1.0000
  H   H76       1.0  0.49979214000000005  0.37392581  0.8096204900000001  1.0000
  H   H77       1.0  0.61828083  0.16747463  0.86138923  1.0000
  H   H78       1.0  0.7778984100000002  0.22540553  0.86500112  1.0000
  H   H79       1.0  0.57123672  0.029133130000000004  0.20069678000000002  1.0000
  H   H80       1.0  0.67531464  0.24793438000000004  0.22835281  1.0000
  H   H81       1.0  0.9611279500000001  0.9417776600000001  0.92513579  1.0000
  H   H82       1.0  0.9489930800000002  0.80327154  0.92791232  1.0000
  H   H83       1.0  0.06024698000000001  0.80015884  0.77329747  1.0000
  H   H84       1.0  0.06956486000000002  0.9383394700000001  0.7777982000000001  1.0000
  H   H85       1.0  0.11183603000000002  0.48586274  0.99787802  1.0000
  H   H86       1.0  0.20233676000000006  0.4837702300000001  0.07960741  1.0000
  H   H87       1.0  0.24994081  0.25007638  0.06044736  1.0000
  H   H88       1.0  0.15711495000000003  0.2529859  0.9791949400000001  1.0000
  H   H89       1.0  0.34529364  0.47416294000000003  0.11655253  1.0000
  H   H90       1.0  0.23901573  0.25443727  0.14501002  1.0000
  H   H91       1.0  0.33960958  0.06913552  0.81325341  1.0000
  H   H92       1.0  0.50020803  0.12607424  0.80962058  1.0000
  H   H93       1.0  0.38171923000000013  0.33252534  0.8613892199999998  1.0000
  H   H94       1.0  0.22210168000000005  0.27459443  0.8650010900000001  1.0000
  H   H95       1.0  0.42876338000000014  0.4708669200000001  0.20069692  1.0000
  H   H96       1.0  0.32468561  0.2520658  0.22835291  1.0000
  H   H97       1.0  0.53887227  0.94177795  0.42513606  1.0000
  H   H98       1.0  0.55100706  0.8032719  0.42791247  1.0000
  H   H99       1.0  0.4397535300000001  0.80015916  0.27329784  1.0000
  H   H100      1.0  0.43043568  0.93833979  0.27779836  1.0000
  H   H101      1.0  0.38816415000000004  0.4858626200000001  0.49787808  1.0000
  H   H102      1.0  0.29766332  0.48377009  0.57960752  1.0000
  H   H103      1.0  0.25005913  0.25007622  0.56044742  1.0000
  H   H104      1.0  0.34288499  0.25298587  0.47919496999999994  1.0000
  H   H105      1.0  0.1547064  0.47416290000000005  0.6165524800000001  1.0000
  H   H106      1.0  0.26098457  0.25443734  0.64501015  1.0000
  H   H107      1.0  0.16039044  0.06913549  0.31325342  1.0000
  H   H108      1.0  0.99979207  0.12607413  0.30962045  1.0000
  H   H109      1.0  0.11828097000000003  0.33252534  0.36138921  1.0000
  H   H110      1.0  0.27789838  0.27459438  0.3650012  1.0000
  H   H111      1.0  0.07123672  0.47086683000000007  0.70069702  1.0000
  H   H112      1.0  0.17531465000000004  0.25206593  0.72835311  1.0000
  H   H113      1.0  0.46112753  0.55822212  0.42513606  1.0000
  H   H114      1.0  0.4489929400000001  0.69672822  0.42791247  1.0000
  H   H115      1.0  0.56024663  0.6998409  0.27329779  1.0000
  H   H116      1.0  0.5695643200000002  0.56166028  0.27779833  1.0000
  H   H117      1.0  0.61183578  0.01413743  0.49787803  1.0000
  H   H118      1.0  0.70233664  0.01623  0.57960739  1.0000
  H   H119      1.0  0.7499407200000002  0.24992391  0.56044716  1.0000
  H   H120      1.0  0.6571147300000002  0.2470142  0.47919483  1.0000
  H   H121      1.0  0.84529362  0.02583712  0.61655233  1.0000
  H   H122      1.0  0.7390156  0.24556297  0.64500996  1.0000
  H   H123      1.0  0.83960959  0.43086453  0.31325335  1.0000
  H   H124      1.0  0.00020796  0.37392586  0.30962044  1.0000
  H   H125      1.0  0.88171902  0.16747465  0.36138921  1.0000
  H   H126      1.0  0.7221015300000002  0.22540558000000002  0.36500114  1.0000
  H   H127      1.0  0.92876322  0.029133300000000004  0.70069678  1.0000
  H   H128      1.0  0.82468543  0.24793417  0.72835295  1.0000
  C   C1        1.0  0.4820874  0.09235686  0.60734213  1.0000
  C   C2        1.0  0.47578135  0.16886302  0.60619642  1.0000
  C   C3        1.0  0.50294042  0.20937307  0.64961594  1.0000
  C   C4        1.0  0.53647992  0.17056575  0.69248703  1.0000
  C   C5        1.0  0.5421313  0.09400665  0.69021394  1.0000
  C   C6        1.0  0.62866273  0.63075636  0.51638065  1.0000
  C   C7        1.0  0.64276592  0.56559102  0.48830742000000005  1.0000
  C   C8        1.0  0.6943349600000001  0.56674549  0.44280165  1.0000
  C   C9        1.0  0.73285573  0.63319768  0.42403236  1.0000
  C   C10       1.0  0.71852767  0.69823837  0.4526224  1.0000
  C   C11       1.0  0.66736602  0.69707525  0.49807425  1.0000
  C   C12       1.0  0.78550115  0.63526307  0.37525245  1.0000
  C   C13       1.0  0.8397973200000002  0.57452683  0.35901893  1.0000
  C   C14       1.0  0.78144678  0.69808797  0.34343919  1.0000
  C   C15       1.0  0.6794663400000002  0.86931075  0.6544401100000001  1.0000
  C   C16       1.0  0.77218648  0.83199534  0.66010102  1.0000
  C   C17       1.0  0.85060569  0.87332145  0.6761580699999999  1.0000
  C   C18       1.0  0.9396077800000001  0.84123208  0.67806316  1.0000
  C   C19       1.0  0.9524506300000002  0.76664871  0.66448305  1.0000
  C   C20       1.0  0.87269351  0.72501599  0.6499878900000001  1.0000
  C   C21       1.0  0.7834184300000002  0.75711222  0.64753403  1.0000
  C   C22       1.0  0.9276810200000002  0.63923646  0.22881913  1.0000
  C   C23       1.0  0.8805276100000002  0.63819082  0.28019302  1.0000
  C   C24       1.0  0.88655837  0.57602781  0.31212170000000006  1.0000
  C   C25       1.0  0.82840157  0.69969264  0.29662221  1.0000
  C   C26       1.0  0.5751961200000002  0.63196065  0.5659562  1.0000
  C   C27       1.0  0.51791268  0.40764341  0.60734211  1.0000
  C   C28       1.0  0.52421892  0.3311374  0.60619636  1.0000
  C   C29       1.0  0.49705986  0.29062732  0.64961594  1.0000
  C   C30       1.0  0.46352041  0.32943477  0.6924869  1.0000
  C   C31       1.0  0.4578687  0.40599379  0.69021389  1.0000
  C   C32       1.0  0.3713367400000001  0.86924372  0.51638087  1.0000
  C   C33       1.0  0.35723373  0.9344092200000002  0.48830758  1.0000
  C   C34       1.0  0.3056648500000001  0.9332546599999999  0.44280178000000003  1.0000
  C   C35       1.0  0.26714419  0.86680261  0.4240323999999999  1.0000
  C   C36       1.0  0.28147212  0.80176192  0.45262244  1.0000
  C   C37       1.0  0.33263361  0.80292492  0.49807435999999994  1.0000
  C   C38       1.0  0.21449895000000002  0.86473697  0.37525247  1.0000
  C   C39       1.0  0.16020281000000006  0.9254731300000001  0.3590188  1.0000
  C   C40       1.0  0.21855334000000004  0.80191196  0.34343927  1.0000
  C   C41       1.0  0.32053357000000005  0.63068947  0.65444021  1.0000
  C   C42       1.0  0.22781347000000005  0.66800495  0.66010112  1.0000
  C   C43       1.0  0.14939429  0.62667881  0.67615814  1.0000
  C   C44       1.0  0.06039219000000001  0.65876812  0.6780631500000001  1.0000
  C   C45       1.0  0.04754934  0.7333515  0.664483  1.0000
  C   C46       1.0  0.1273064  0.7749842  0.64998785  1.0000
  C   C47       1.0  0.21658154000000004  0.74288807  0.64753404  1.0000
  C   C48       1.0  0.07231885000000003  0.86076277  0.22881945  1.0000
  C   C49       1.0  0.11947231  0.86180877  0.28019319  1.0000
  C   C50       1.0  0.11344190000000003  0.9239720100000001  0.31212174  1.0000
  C   C51       1.0  0.17159855  0.80030695  0.29662239  1.0000
  C   C52       1.0  0.4248035400000001  0.86803948  0.56595631  1.0000
  C   C53       1.0  0.9820875  0.40764323  0.10734215  1.0000
  C   C54       1.0  0.9757813100000002  0.33113719  0.10619637  1.0000
  C   C55       1.0  0.002940430000000001  0.29062714  0.14961596  1.0000
  C   C56       1.0  0.03647989  0.32943457  0.19248694  1.0000
  C   C57       1.0  0.04213152  0.40599359  0.19021392  1.0000
  C   C58       1.0  0.12866326000000003  0.86924373  0.01638088  1.0000
  C   C59       1.0  0.14276626  0.93440917  0.9883075100000001  1.0000
  C   C60       1.0  0.19433512000000003  0.9332546  0.94280167  1.0000
  C   C61       1.0  0.23285577000000005  0.8668025  0.92403239  1.0000
  C   C62       1.0  0.21852788000000006  0.8017618  0.95262252  1.0000
  C   C63       1.0  0.16736638  0.80292498  0.99807442  1.0000
  C   C64       1.0  0.28550107  0.86473694  0.8752524699999998  1.0000
  C   C65       1.0  0.33979728  0.92547317  0.85901892  1.0000
  C   C66       1.0  0.28144669  0.80191189  0.84343928  1.0000
  C   C67       1.0  0.17946666  0.63068915  0.15444015999999997  1.0000
  C   C68       1.0  0.27218664  0.66800487  0.1601011  1.0000
  C   C69       1.0  0.35060572  0.6266787  0.17615818  1.0000
  C   C70       1.0  0.43960773  0.65876808  0.17806325  1.0000
  C   C71       1.0  0.45245064  0.7333514  0.16448299  1.0000
  C   C72       1.0  0.37269358  0.77498415  0.14998778  1.0000
  C   C73       1.0  0.28341857  0.74288798  0.14753396  1.0000
  C   C74       1.0  0.42768088  0.860763  0.72881932  1.0000
  C   C75       1.0  0.3805277  0.86180902  0.78019318  1.0000
  C   C76       1.0  0.38655828  0.92397214  0.8121218  1.0000
  C   C77       1.0  0.32840164  0.8003071  0.79662239  1.0000
  C   C78       1.0  0.07519671  0.86803952  0.06595642  1.0000
  C   C79       1.0  0.017912780000000003  0.09235668  0.10734217  1.0000
  C   C80       1.0  0.02421892000000001  0.16886278  0.10619642  1.0000
  C   C81       1.0  0.99705986  0.20937289  0.14961595  1.0000
  C   C82       1.0  0.9635204200000003  0.17056545000000004  0.19248701000000001  1.0000
  C   C83       1.0  0.9578688500000002  0.09400642  0.19021397  1.0000
  C   C84       1.0  0.87133657  0.63075614  0.01638081  1.0000
  C   C85       1.0  0.8572334700000003  0.56559085  0.98830748  1.0000
  C   C86       1.0  0.8056647200000002  0.56674531  0.94280166  1.0000
  C   C87       1.0  0.76714421  0.63319756  0.92403239  1.0000
  C   C88       1.0  0.7814720800000002  0.69823817  0.95262245  1.0000
  C   C89       1.0  0.8326334800000001  0.69707509  0.9980743799999999  1.0000
  C   C90       1.0  0.71449887  0.63526292  0.8752524599999999  1.0000
  C   C91       1.0  0.6602026600000003  0.5745267  0.8590189  1.0000
  C   C92       1.0  0.71855317  0.69808789  0.84343919  1.0000
  C   C93       1.0  0.82053332  0.86931094  0.15444015999999997  1.0000
  C   C94       1.0  0.72781333  0.8319952  0.16010104  1.0000
  C   C95       1.0  0.64939424  0.87332137  0.17615811999999997  1.0000
  C   C96       1.0  0.5603922  0.84123195  0.17806321  1.0000
  C   C97       1.0  0.54754939  0.76664864  0.16448297000000003  1.0000
  C   C98       1.0  0.62730645  0.72501587  0.14998774  1.0000
  C   C99       1.0  0.7165814700000002  0.75711208  0.1475339  1.0000
  C   C100      1.0  0.57231898  0.63923666  0.72881935  1.0000
  C   C101      1.0  0.61947229  0.63819081  0.78019315  1.0000
  C   C102      1.0  0.6134417  0.57602766  0.81212174  1.0000
  C   C103      1.0  0.67159833  0.69969271  0.79662233  1.0000
  C   C104      1.0  0.9248033  0.63196074  0.06595633  1.0000
  C   C105      1.0  0.01791249  0.5923564  0.8926576399999999  1.0000
  C   C106      1.0  0.02421886  0.66886277  0.89380342  1.0000
  C   C107      1.0  0.99705982  0.70937258  0.85038391  1.0000
  C   C108      1.0  0.96351987  0.67056504  0.80751292  1.0000
  C   C109      1.0  0.95786815  0.59400594  0.80978595  1.0000
  C   C110      1.0  0.87133674  0.13075615  0.983619  1.0000
  C   C111      1.0  0.8572336  0.06559085  0.011692369999999999  1.0000
  C   C112      1.0  0.80566491  0.0667454  0.0571982  1.0000
  C   C113      1.0  0.76714434  0.13319752  0.07596754  1.0000
  C   C114      1.0  0.78147228  0.19823816  0.04737746  1.0000
  C   C115      1.0  0.8326336800000003  0.19707507  0.00192548  1.0000
  C   C116      1.0  0.71449903  0.13526308  0.12474748  1.0000
  C   C117      1.0  0.66020273  0.07452688  0.14098115  1.0000
  C   C118      1.0  0.71855329  0.1980881  0.15656074  1.0000
  C   C119      1.0  0.82053329  0.36931082  0.84555992  1.0000
  C   C120      1.0  0.72781334  0.33199505  0.8398989200000001  1.0000
  C   C121      1.0  0.6493944  0.37332129000000003  0.82384189  1.0000
  C   C122      1.0  0.56039237  0.34123195  0.82193689  1.0000
  C   C123      1.0  0.54754937  0.26664862  0.83551706  1.0000
  C   C124      1.0  0.62730642  0.22501578999999997  0.8500122  1.0000
  C   C125      1.0  0.7165815500000002  0.25711193  0.85246598  1.0000
  C   C126      1.0  0.57231907  0.13923681  0.27118076  1.0000
  C   C127      1.0  0.6194724900000003  0.13819117  0.21980692  1.0000
  C   C128      1.0  0.6134418000000001  0.07602791  0.18787832  1.0000
  C   C129      1.0  0.67159854  0.19969292  0.20337765000000002  1.0000
  C   C130      1.0  0.92480341  0.13196042  0.93404351  1.0000
  C   C131      1.0  0.9820877800000001  0.9076429900000001  0.89265767  1.0000
  C   C132      1.0  0.97578169  0.8311366800000001  0.89380339  1.0000
  C   C133      1.0  0.00294049  0.79062691  0.8503838  1.0000
  C   C134      1.0  0.03648015  0.82943408  0.80751273  1.0000
  C   C135      1.0  0.04213170000000001  0.9059933400000001  0.80978586  1.0000
  C   C136      1.0  0.12866319  0.36924395  0.98361925  1.0000
  C   C137      1.0  0.1427665  0.43440922  0.0116926  1.0000
  C   C138      1.0  0.19433541  0.43325468000000006  0.05719833  1.0000
  C   C139      1.0  0.23285595000000006  0.36680249  0.07596762  1.0000
  C   C140      1.0  0.21852797  0.30176182  0.04737753000000001  1.0000
  C   C141      1.0  0.16736639  0.30292498  0.00192564  1.0000
  C   C142      1.0  0.28550127  0.36473701000000003  0.12474755  1.0000
  C   C143      1.0  0.3397974400000001  0.42547318  0.14098123  1.0000
  C   C144      1.0  0.28144690000000006  0.30191197  0.15656081  1.0000
  C   C145      1.0  0.17946659000000006  0.1306891  0.84555992  1.0000
  C   C146      1.0  0.27218663  0.16800485  0.8398989399999999  1.0000
  C   C147      1.0  0.35060569000000014  0.12667873  0.8238419  1.0000
  C   C148      1.0  0.43960773  0.15876811  0.82193688  1.0000
  C   C149      1.0  0.45245069  0.23335142  0.83551702  1.0000
  C   C150      1.0  0.37269360000000007  0.27498419  0.85001217  1.0000
  C   C151      1.0  0.2834184800000001  0.24288798  0.85246597  1.0000
  C   C152      1.0  0.42768095  0.36076312  0.27118085  1.0000
  C   C153      1.0  0.38052759000000014  0.36180895  0.21980699999999997  1.0000
  C   C154      1.0  0.38655829  0.42397217  0.18787842  1.0000
  C   C155      1.0  0.32840165  0.30030716  0.20337771000000002  1.0000
  C   C156      1.0  0.07519625  0.36803978  0.93404388  1.0000
  C   C157      1.0  0.51791262  0.90764336  0.39265790000000006  1.0000
  C   C158      1.0  0.5242188  0.83113725  0.39380356  1.0000
  C   C159      1.0  0.49705979  0.79062717  0.35038406  1.0000
  C   C160      1.0  0.46352036  0.82943464  0.30751307  1.0000
  C   C161      1.0  0.45786873  0.9059937  0.30978614  1.0000
  C   C162      1.0  0.37133687  0.36924386  0.48361919  1.0000
  C   C163      1.0  0.35723361  0.43440905  0.51169255  1.0000
  C   C164      1.0  0.30566471  0.43325466  0.55719828  1.0000
  C   C165      1.0  0.26714407  0.36680242  0.57596768  1.0000
  C   C166      1.0  0.28147189  0.30176174  0.5473776  1.0000
  C   C167      1.0  0.33263352  0.3029249  0.50192565  1.0000
  C   C168      1.0  0.21449877000000006  0.364737  0.6247476599999999  1.0000
  C   C169      1.0  0.16020268  0.42547323000000004  0.6409812599999999  1.0000
  C   C170      1.0  0.21855333000000005  0.301912  0.65656083  1.0000
  C   C171      1.0  0.3205332300000001  0.13068905  0.34555993  1.0000
  C   C172      1.0  0.22781324000000003  0.16800483  0.33989897  1.0000
  C   C173      1.0  0.14939423  0.1266787  0.3238418900000001  1.0000
  C   C174      1.0  0.060392180000000004  0.15876806  0.32193682999999995  1.0000
  C   C175      1.0  0.047549380000000016  0.23335141  0.33551703  1.0000
  C   C176      1.0  0.12730645  0.27498416  0.3500122  1.0000
  C   C177      1.0  0.21658151000000006  0.24288798  0.35246603  1.0000
  C   C178      1.0  0.07231901  0.36076322  0.77118091  1.0000
  C   C179      1.0  0.11947263  0.36180895  0.7198071200000001  1.0000
  C   C180      1.0  0.11344178  0.42397217  0.68787854  1.0000
  C   C181      1.0  0.17159862  0.30030727  0.70337784  1.0000
  C   C182      1.0  0.42480371  0.36803937  0.43404373  1.0000
  C   C183      1.0  0.4820873300000001  0.59235673  0.39265790000000006  1.0000
  C   C184      1.0  0.47578123  0.66886284  0.39380359  1.0000
  C   C185      1.0  0.50294031  0.70937291  0.35038404000000006  1.0000
  C   C186      1.0  0.53647978  0.67056549  0.30751304  1.0000
  C   C187      1.0  0.5421312500000001  0.59400641  0.30978608  1.0000
  C   C188      1.0  0.62866307  0.1307563  0.48361922  1.0000
  C   C189      1.0  0.6427663  0.06559093  0.51169254  1.0000
  C   C190      1.0  0.6943354  0.06674557  0.55719821  1.0000
  C   C191      1.0  0.73285596  0.13319769  0.57596754  1.0000
  C   C192      1.0  0.7185281  0.19823842000000003  0.54737743  1.0000
  C   C193      1.0  0.6673663100000002  0.19707513000000002  0.50192558  1.0000
  C   C194      1.0  0.78550122  0.13526323  0.62474745  1.0000
  C   C195      1.0  0.8397973000000002  0.07452691  0.6409810199999999  1.0000
  C   C196      1.0  0.7814468  0.19808818  0.6565607699999999  1.0000
  C   C197      1.0  0.67946613  0.36931055  0.34555996  1.0000
  C   C198      1.0  0.77218647  0.33199519  0.33989899  1.0000
  C   C199      1.0  0.85060562  0.37332131  0.32384192  1.0000
  C   C200      1.0  0.9396077300000001  0.34123198  0.32193684  1.0000
  C   C201      1.0  0.9524506700000002  0.26664861  0.33551702  1.0000
  C   C202      1.0  0.87269354  0.22501586  0.35001217  1.0000
  C   C203      1.0  0.7834184300000002  0.25711201  0.35246602  1.0000
  C   C204      1.0  0.9276810800000003  0.13923674  0.77118067  1.0000
  C   C205      1.0  0.8805275400000002  0.13819105  0.71980686  1.0000
  C   C206      1.0  0.8865581300000003  0.07602796  0.6878782099999999  1.0000
  C   C207      1.0  0.82840154  0.19969288  0.70337769  1.0000
  C   C208      1.0  0.5751960500000002  0.13196032  0.43404384  1.0000
  N   N1        1.0  0.51492957  0.05558126  0.64855695  1.0000
  N   N2        1.0  0.48507035  0.4444192699999999  0.6485568  1.0000
  N   N3        1.0  0.014929810000000003  0.44441901999999994  0.14855684  1.0000
  N   N4        1.0  0.9850704900000002  0.05558097  0.14855696  1.0000
  N   N5        1.0  0.98506998  0.55558074  0.85144292  1.0000
  N   N6        1.0  0.014930110000000003  0.9444187199999999  0.85144289  1.0000
  N   N7        1.0  0.48507032  0.94441917  0.35144316  1.0000
  N   N8        1.0  0.51492951  0.55558097  0.35144316  1.0000
  O   O1        1.0  0.67299874  0.93905102  0.66217067  1.0000
  O   O2        1.0  0.96641373  0.57831408  0.21443177  1.0000
  O   O3        1.0  0.5373221600000001  0.57061881  0.58049768  1.0000
  O   O4        1.0  0.57297073  0.69264622  0.5896728  1.0000
  O   O5        1.0  0.60654396  0.8331132000000001  0.63996954  1.0000
  O   O6        1.0  0.92426138  0.6987959  0.20363006  1.0000
  O   O7        1.0  0.32700093  0.5609492  0.66217082  1.0000
  O   O8        1.0  0.03358662  0.92168548  0.21443173  1.0000
  O   O9        1.0  0.46267643  0.92938154  0.58049814  1.0000
  O   O10       1.0  0.4270297100000001  0.80735364  0.58967296  1.0000
  O   O11       1.0  0.39345609  0.66688689  0.63996967  1.0000
  O   O12       1.0  0.07573772000000002  0.80120286  0.20363104  1.0000
  O   O13       1.0  0.17299938000000006  0.56094893  0.16217048999999997  1.0000
  O   O14       1.0  0.46641347  0.92168562  0.7144316  1.0000
  O   O15       1.0  0.03732381  0.92938153  0.08049821  1.0000
  O   O16       1.0  0.07297054  0.8073536500000001  0.08967312  1.0000
  O   O17       1.0  0.10654378000000003  0.66688637  0.13996975  1.0000
  O   O18       1.0  0.42426151  0.80120319  0.70363088  1.0000
  O   O19       1.0  0.82700074  0.93905114  0.16217063  1.0000
  O   O20       1.0  0.53358673  0.57831419  0.71443169  1.0000
  O   O21       1.0  0.96267611  0.57061844  0.08049821  1.0000
  O   O22       1.0  0.9270297300000002  0.69264635  0.08967273000000002  1.0000
  O   O23       1.0  0.89345618  0.83311374  0.13996965  1.0000
  O   O24       1.0  0.5757380900000001  0.69879653  0.7036307  1.0000
  O   O25       1.0  0.82700046  0.43905111  0.83782946  1.0000
  O   O26       1.0  0.53358688  0.07831443  0.28556828  1.0000
  O   O27       1.0  0.96267615  0.07061786  0.9195015599999999  1.0000
  O   O28       1.0  0.92702994  0.19264579  0.9103268  1.0000
  O   O29       1.0  0.89345607  0.33311364  0.86003024  1.0000
  O   O30       1.0  0.5757381900000001  0.19879665  0.29636961  1.0000
  O   O31       1.0  0.17299921  0.06094887  0.8378293  1.0000
  O   O32       1.0  0.4664131800000001  0.42168571  0.2855684  1.0000
  O   O33       1.0  0.03732216  0.42938192  0.9195023899999999  1.0000
  O   O34       1.0  0.07297056  0.30735453  0.9103269400000001  1.0000
  O   O35       1.0  0.10654384000000001  0.16688624  0.86003032  1.0000
  O   O36       1.0  0.42426172  0.30120352  0.29636963  1.0000
  O   O37       1.0  0.32700057000000005  0.060948850000000006  0.33782938  1.0000
  O   O38       1.0  0.03358699  0.42168563  0.78556842  1.0000
  O   O39       1.0  0.4626779100000001  0.42938183  0.41950229  1.0000
  O   O40       1.0  0.42702872000000003  0.30735451  0.41032682  1.0000
  O   O41       1.0  0.39345601  0.16688632  0.36003032  1.0000
  O   O42       1.0  0.0757379  0.30120339  0.7963697599999999  1.0000
  O   O43       1.0  0.6729989200000002  0.43905083  0.33782929000000006  1.0000
  O   O44       1.0  0.9664133900000001  0.07831426  0.78556811  1.0000
  O   O45       1.0  0.53732221  0.07061831  0.41950234  1.0000
  O   O46       1.0  0.5729703500000002  0.1926458  0.41032692  1.0000
  O   O47       1.0  0.60654393  0.33311308000000006  0.36003043  1.0000
  O   O48       1.0  0.92426192  0.19879636  0.79636956  1.0000
