data_image0
_chemical_formula_structural       Dy4H18C40O30
_chemical_formula_sum              "Dy4 H18 C40 O30"
_cell_length_a       7.3494
_cell_length_b       11.475
_cell_length_c       16.185200000000002
_cell_angle_alpha    78.799
_cell_angle_beta     82.483
_cell_angle_gamma    79.955

_space_group_name_H-M_alt    "P 1"
_space_group_IT_number       1

loop_
  _space_group_symop_operation_xyz
  'x, y, z'

loop_
  _atom_site_type_symbol
  _atom_site_label
  _atom_site_symmetry_multiplicity
  _atom_site_fract_x
  _atom_site_fract_y
  _atom_site_fract_z
  _atom_site_occupancy
  Dy  Dy1       1.0  0.05845999999999999  0.93402  0.22637000000000004  1.0000
  Dy  Dy2       1.0  0.5557100000000003  0.73545  0.23603  1.0000
  Dy  Dy3       1.0  0.9415399999999999  0.06598  0.77363  1.0000
  Dy  Dy4       1.0  0.4442900000000002  0.26455999999999996  0.76397  1.0000
  H   H1        1.0  0.00529999999999992  0.7929000000000003  0.033000000000000015  1.0000
  H   H2        1.0  0.429  0.2694  0.0201  1.0000
  H   H3        1.0  0.15369999999999998  0.7444  0.4406000000000001  1.0000
  H   H4        1.0  0.15120000000000008  0.12339999999999998  0.4032  1.0000
  H   H5        1.0  0.1253999999999999  0.6147000000000001  0.8932000000000002  1.0000
  H   H6        1.0  0.3498  0.45880000000000004  0.15330000000000005  1.0000
  H   H7        1.0  0.7813  0.4946000000000001  0.4107000000000001  1.0000
  H   H8        1.0  0.6149  0.8207000000000001  0.453  1.0000
  H   H9        1.0  0.7973000000000002  0.045899999999999976  0.9703  1.0000
  H   H10       1.0  0.9947000000000003  0.20710000000000006  0.967  1.0000
  H   H11       1.0  0.571  0.7306  0.9799000000000002  1.0000
  H   H12       1.0  0.8463  0.2556  0.5594  1.0000
  H   H13       1.0  0.8487999999999999  0.8766  0.5968  1.0000
  H   H14       1.0  0.8746  0.3853  0.1068  1.0000
  H   H15       1.0  0.6502  0.5411999999999999  0.8467000000000002  1.0000
  H   H16       1.0  0.21870000000000012  0.5054  0.5893  1.0000
  H   H17       1.0  0.38509999999999994  0.17930000000000001  0.547  1.0000
  H   H18       1.0  0.2027000000000001  0.9541  0.029700000000000004  1.0000
  C   C1        1.0  0.20600000000000002  0.6074  0.0873  1.0000
  C   C2        1.0  0.12970000000000004  0.6511  0.01  1.0000
  C   C3        1.0  0.1653  0.5825999999999999  0.9463000000000003  1.0000
  C   C4        1.0  0.26039999999999996  0.4662  0.9617000000000002  1.0000
  C   C5        1.0  0.3231000000000001  0.4185  0.0405  1.0000
  C   C6        1.0  0.3011  0.4894000000000001  0.1019  1.0000
  C   C7        1.0  0.1921  0.6857999999999999  0.152  1.0000
  C   C8        1.0  0.29860000000000003  0.3952  0.8921  1.0000
  C   C9        1.0  0.09870000000000001  0.5959  0.4858  1.0000
  C   C10       1.0  0.9671  0.5938000000000001  0.4310000000000001  1.0000
  C   C11       1.0  0.8694  0.49699999999999994  0.44640000000000013  1.0000
  C   C12       1.0  0.9285  0.6916000000000001  0.357  1.0000
  C   C13       1.0  0.35020000000000007  0.07590000000000001  0.464  1.0000
  C   C14       1.0  0.5685  0.8927000000000002  0.4720000000000001  1.0000
  C   C15       1.0  0.41790000000000005  0.9681  0.4361000000000001  1.0000
  C   C16       1.0  0.3373999999999999  0.9306000000000001  0.3663  1.0000
  C   C17       1.0  0.6769000000000001  0.027900000000000015  0.9816  1.0000
  C   C18       1.0  0.43289999999999995  0.9528000000000001  0.08540000000000003  1.0000
  C   C19       1.0  0.6132000000000001  0.9829  0.0647  1.0000
  C   C20       1.0  0.7479000000000001  0.9651000000000002  0.12850000000000006  1.0000
  C   C21       1.0  0.794  0.3926  0.9127000000000002  1.0000
  C   C22       1.0  0.8702999999999997  0.34889999999999993  0.9900000000000002  1.0000
  C   C23       1.0  0.8347  0.41740000000000005  0.05370000000000001  1.0000
  C   C24       1.0  0.7396000000000001  0.5338  0.038300000000000015  1.0000
  C   C25       1.0  0.6769000000000001  0.5815  0.9595  1.0000
  C   C26       1.0  0.6989000000000001  0.5106000000000002  0.8981  1.0000
  C   C27       1.0  0.8079  0.3141999999999999  0.8480000000000002  1.0000
  C   C28       1.0  0.7014000000000004  0.6048  0.1079  1.0000
  C   C29       1.0  0.9013000000000003  0.40410000000000007  0.5142  1.0000
  C   C30       1.0  0.032899999999999964  0.40619999999999995  0.5690000000000002  1.0000
  C   C31       1.0  0.1305999999999999  0.503  0.5536000000000002  1.0000
  C   C32       1.0  0.07149999999999988  0.30840000000000006  0.6430000000000002  1.0000
  C   C33       1.0  0.6498  0.9241  0.536  1.0000
  C   C34       1.0  0.43149999999999994  0.10729999999999995  0.5280000000000002  1.0000
  C   C35       1.0  0.5821  0.03189999999999994  0.5639000000000002  1.0000
  C   C36       1.0  0.6625999999999999  0.06939999999999993  0.6337000000000003  1.0000
  C   C37       1.0  0.32309999999999994  0.9721  0.0184  1.0000
  C   C38       1.0  0.5670999999999999  0.04719999999999995  0.9146000000000002  1.0000
  C   C39       1.0  0.38680000000000003  0.017099999999999983  0.9353  1.0000
  C   C40       1.0  0.2521  0.03489999999999999  0.8715  1.0000
  O   O1        1.0  0.07419999999999992  0.7803000000000002  0.14550000000000005  1.0000
  O   O2        1.0  0.3020999999999999  0.6563  0.20938000000000007  1.0000
  O   O3        1.0  0.26710000000000006  0.44250000000000006  0.8175  1.0000
  O   O4        1.0  0.3723  0.28559999999999997  0.9086000000000002  1.0000
  O   O5        1.0  0.01809999999999995  0.7582  0.9924000000000002  1.0000
  O   O6        1.0  0.4188  0.3038  0.060800000000000014  1.0000
  O   O7        1.0  0.021299999999999965  0.7787000000000001  0.34341  1.0000
  O   O8        1.0  0.8089  0.6825  0.3126  1.0000
  O   O9        1.0  0.2023  0.6868  0.4731  1.0000
  O   O10       1.0  0.411  0.8336  0.3421  1.0000
  O   O11       1.0  0.1971  0.9958  0.33600000000000013  1.0000
  O   O12       1.0  0.2031000000000001  0.15529999999999997  0.4327  1.0000
  O   O13       1.0  0.7287999999999997  0.8935  0.19893000000000005  1.0000
  O   O14       1.0  0.8868  0.018800000000000008  0.11176  1.0000
  O   O15       1.0  0.3665  0.9061  0.16515  1.0000
  O   O16       1.0  0.9257999999999998  0.21969999999999992  0.8545000000000003  1.0000
  O   O17       1.0  0.6978999999999999  0.34369999999999995  0.7906200000000002  1.0000
  O   O18       1.0  0.7329000000000002  0.5575  0.1825  1.0000
  O   O19       1.0  0.6277  0.7144  0.0914  1.0000
  O   O20       1.0  0.9819000000000002  0.24180000000000001  0.007600000000000002  1.0000
  O   O21       1.0  0.5811999999999998  0.6962000000000002  0.9392  1.0000
  O   O22       1.0  0.9787000000000002  0.2213000000000001  0.65659  1.0000
  O   O23       1.0  0.1911  0.3175  0.6874  1.0000
  O   O24       1.0  0.7977  0.3132  0.5269  1.0000
  O   O25       1.0  0.589  0.16640000000000002  0.6579000000000002  1.0000
  O   O26       1.0  0.8029  0.0041999999999999425  0.6640000000000003  1.0000
  O   O27       1.0  0.7969000000000005  0.8447  0.5673  1.0000
  O   O28       1.0  0.2711999999999999  0.10649999999999996  0.8010700000000002  1.0000
  O   O29       1.0  0.1132  0.9812000000000001  0.8882400000000003  1.0000
  O   O30       1.0  0.6335  0.09390000000000001  0.83485  1.0000
