data_image0
_chemical_formula_structural       Eu12H144C252N12O72
_chemical_formula_sum              "Eu12 H144 C252 N12 O72"
_cell_length_a       14.5758
_cell_length_b       23.245
_cell_length_c       24.815
_cell_angle_alpha    90.0
_cell_angle_beta     102.904
_cell_angle_gamma    90.0

_space_group_name_H-M_alt    "P 1"
_space_group_IT_number       1

loop_
  _space_group_symop_operation_xyz
  'x, y, z'

loop_
  _atom_site_type_symbol
  _atom_site_label
  _atom_site_symmetry_multiplicity
  _atom_site_fract_x
  _atom_site_fract_y
  _atom_site_fract_z
  _atom_site_occupancy
  Eu  Eu1       1.0  0.7562500000000002  0.7428799999999998  0.77122  1.0000
  Eu  Eu2       1.0  0.26339  0.26554  0.07082  1.0000
  Eu  Eu3       1.0  0.7612500000000002  0.7821  0.10669  1.0000
  Eu  Eu4       1.0  0.2437500000000001  0.24287999999999996  0.7287800000000001  1.0000
  Eu  Eu5       1.0  0.73661  0.7655399999999999  0.42918  1.0000
  Eu  Eu6       1.0  0.23875000000000005  0.2821  0.3933100000000001  1.0000
  Eu  Eu7       1.0  0.24375000000000008  0.25712  0.22878000000000007  1.0000
  Eu  Eu8       1.0  0.73661  0.7344599999999998  0.92918  1.0000
  Eu  Eu9       1.0  0.23875000000000005  0.21789999999999995  0.89331  1.0000
  Eu  Eu10      1.0  0.7562500000000002  0.7571199999999999  0.27122  1.0000
  Eu  Eu11      1.0  0.26339  0.23445999999999997  0.57082  1.0000
  Eu  Eu12      1.0  0.7612500000000002  0.7179  0.60669  1.0000
  H   H1        1.0  0.14470000000000005  0.5359  0.9339  1.0000
  H   H2        1.0  0.15060000000000007  0.4409  0.9563000000000001  1.0000
  H   H3        1.0  0.3709000000000001  0.4688  0.0827  1.0000
  H   H4        1.0  0.3671  0.565  0.06170000000000001  1.0000
  H   H5        1.0  0.41060000000000024  0.5993  0.9491000000000003  1.0000
  H   H6        1.0  0.5487  0.6485999999999998  0.9667000000000001  1.0000
  H   H7        1.0  0.4382  0.7694  0.046000000000000006  1.0000
  H   H8        1.0  0.2977  0.7184  0.0313  1.0000
  H   H9        1.0  0.2324  0.7045  0.9105  1.0000
  H   H10       1.0  0.09890000000000007  0.7505999999999998  0.8632  1.0000
  H   H11       1.0  0.9435000000000003  0.6543  0.9412  1.0000
  H   H12       1.0  0.07870000000000014  0.6092999999999998  0.9925000000000003  1.0000
  H   H13       1.0  0.11340000000000001  0.571  0.8425  1.0000
  H   H14       1.0  0.9705000000000004  0.6119999999999999  0.8047000000000002  1.0000
  H   H15       1.0  0.08169999999999998  0.6812  0.6847  1.0000
  H   H16       1.0  0.2262000000000001  0.6378  0.7239  1.0000
  H   H17       1.0  0.3660000000000001  0.5075999999999999  0.8899000000000001  1.0000
  H   H18       1.0  0.3693000000000001  0.40789999999999993  0.8988000000000002  1.0000
  H   H19       1.0  0.1531000000000001  0.3966  0.7665000000000002  1.0000
  H   H20       1.0  0.15800000000000003  0.4953  0.7569000000000001  1.0000
  H   H21       1.0  0.42110000000000014  0.527  0.7856000000000002  1.0000
  H   H22       1.0  0.5617  0.5709  0.7855  1.0000
  H   H23       1.0  0.4667  0.7157  0.8398  1.0000
  H   H24       1.0  0.3250000000000001  0.6758999999999998  0.8360000000000001  1.0000
  H   H25       1.0  0.6781000000000001  0.04  0.8095  1.0000
  H   H26       1.0  0.6798  0.9444  0.7874000000000002  1.0000
  H   H27       1.0  0.8071  0.9087  0.9436000000000002  1.0000
  H   H28       1.0  0.8049000000000002  0.0051  0.9671  1.0000
  H   H29       1.0  0.7224000000000004  0.1937  0.8517000000000001  1.0000
  H   H30       1.0  0.5821  0.24149999999999994  0.817  1.0000
  H   H31       1.0  0.4395000000000001  0.11869999999999999  0.8751000000000001  1.0000
  H   H32       1.0  0.5781  0.0699  0.91  1.0000
  H   H33       1.0  0.9122000000000001  0.0646  0.8890000000000001  1.0000
  H   H34       1.0  0.05670000000000001  0.10769999999999998  0.9239  1.0000
  H   H35       1.0  0.9325999999999999  0.2269  0.9965  1.0000
  H   H36       1.0  0.7915000000000001  0.18459999999999993  0.9640000000000001  1.0000
  H   H37       1.0  0.8553  0.0359  0.5661  1.0000
  H   H38       1.0  0.8494000000000002  0.9408999999999997  0.5437000000000001  1.0000
  H   H39       1.0  0.6291000000000001  0.9687999999999998  0.4173  1.0000
  H   H40       1.0  0.6329000000000001  0.065  0.4383  1.0000
  H   H41       1.0  0.5894  0.0993  0.5509  1.0000
  H   H42       1.0  0.4513  0.14859999999999998  0.5333  1.0000
  H   H43       1.0  0.5618  0.2694  0.454  1.0000
  H   H44       1.0  0.7023000000000003  0.2184  0.46870000000000006  1.0000
  H   H45       1.0  0.7676  0.20449999999999996  0.5895  1.0000
  H   H46       1.0  0.9011000000000001  0.2506  0.6368  1.0000
  H   H47       1.0  0.0565  0.1543  0.5588  1.0000
  H   H48       1.0  0.9213  0.10929999999999998  0.5075  1.0000
  H   H49       1.0  0.8866000000000002  0.07099999999999998  0.6575  1.0000
  H   H50       1.0  0.02950000000000005  0.11199999999999999  0.6953000000000001  1.0000
  H   H51       1.0  0.9182999999999999  0.18119999999999997  0.8153  1.0000
  H   H52       1.0  0.7738000000000002  0.13779999999999998  0.7761  1.0000
  H   H53       1.0  0.6340000000000002  0.0076  0.6101  1.0000
  H   H54       1.0  0.6307  0.9078999999999998  0.6012000000000001  1.0000
  H   H55       1.0  0.8469  0.8966  0.7335000000000002  1.0000
  H   H56       1.0  0.842  0.9953  0.7431  1.0000
  H   H57       1.0  0.5789  0.027  0.7144000000000001  1.0000
  H   H58       1.0  0.43830000000000013  0.0709  0.7145  1.0000
  H   H59       1.0  0.5333  0.21569999999999995  0.6602  1.0000
  H   H60       1.0  0.6750000000000004  0.17589999999999997  0.6640000000000003  1.0000
  H   H61       1.0  0.3219000000000002  0.5399999999999999  0.6905000000000001  1.0000
  H   H62       1.0  0.32020000000000015  0.44439999999999996  0.7126000000000001  1.0000
  H   H63       1.0  0.1929  0.40869999999999995  0.5564  1.0000
  H   H64       1.0  0.1951  0.5051  0.5329  1.0000
  H   H65       1.0  0.2776  0.6936999999999999  0.6483  1.0000
  H   H66       1.0  0.4179  0.7414999999999999  0.683  1.0000
  H   H67       1.0  0.5605  0.6186999999999999  0.6249  1.0000
  H   H68       1.0  0.4219  0.5699  0.59  1.0000
  H   H69       1.0  0.08780000000000007  0.5645999999999999  0.6110000000000001  1.0000
  H   H70       1.0  0.9433  0.6077  0.5761  1.0000
  H   H71       1.0  0.0674  0.7269  0.5035  1.0000
  H   H72       1.0  0.20850000000000002  0.6845999999999999  0.5360000000000001  1.0000
  H   H73       1.0  0.8553  0.4641  0.0661  1.0000
  H   H74       1.0  0.8494  0.5591  0.04370000000000001  1.0000
  H   H75       1.0  0.6291000000000001  0.5312  0.9173  1.0000
  H   H76       1.0  0.6329000000000001  0.4349999999999999  0.9383000000000001  1.0000
  H   H77       1.0  0.5894  0.4006999999999999  0.05090000000000001  1.0000
  H   H78       1.0  0.4513  0.3514  0.0333  1.0000
  H   H79       1.0  0.5618  0.23059999999999994  0.9540000000000001  1.0000
  H   H80       1.0  0.7023000000000003  0.28159999999999996  0.9687  1.0000
  H   H81       1.0  0.7676  0.2955  0.08950000000000002  1.0000
  H   H82       1.0  0.9011  0.24939999999999996  0.1368  1.0000
  H   H83       1.0  0.05650000000000002  0.34569999999999995  0.058800000000000005  1.0000
  H   H84       1.0  0.9213  0.3907  0.0075  1.0000
  H   H85       1.0  0.8866000000000002  0.429  0.15750000000000003  1.0000
  H   H86       1.0  0.029500000000000012  0.388  0.1953  1.0000
  H   H87       1.0  0.9183000000000001  0.3188  0.3153  1.0000
  H   H88       1.0  0.7738000000000002  0.3621999999999999  0.2761  1.0000
  H   H89       1.0  0.6340000000000002  0.49239999999999995  0.11010000000000002  1.0000
  H   H90       1.0  0.6307  0.5921  0.1012  1.0000
  H   H91       1.0  0.8469  0.6034  0.23350000000000004  1.0000
  H   H92       1.0  0.842  0.5047  0.2431  1.0000
  H   H93       1.0  0.5789  0.47299999999999986  0.21440000000000003  1.0000
  H   H94       1.0  0.43830000000000013  0.4290999999999999  0.2145  1.0000
  H   H95       1.0  0.5333  0.2843  0.16020000000000004  1.0000
  H   H96       1.0  0.6750000000000003  0.3241  0.164  1.0000
  H   H97       1.0  0.3219  0.96  0.1905  1.0000
  H   H98       1.0  0.3202  0.05559999999999998  0.21260000000000007  1.0000
  H   H99       1.0  0.1929  0.09129999999999999  0.056400000000000006  1.0000
  H   H100      1.0  0.1951  0.9948999999999998  0.0329  1.0000
  H   H101      1.0  0.2776  0.8062999999999999  0.1483  1.0000
  H   H102      1.0  0.4179  0.7584999999999997  0.183  1.0000
  H   H103      1.0  0.5605  0.8813  0.12490000000000001  1.0000
  H   H104      1.0  0.4219  0.9300999999999999  0.09  1.0000
  H   H105      1.0  0.08780000000000002  0.9354  0.111  1.0000
  H   H106      1.0  0.9433  0.8922999999999998  0.0761  1.0000
  H   H107      1.0  0.0674  0.7731  0.0035  1.0000
  H   H108      1.0  0.2085  0.8154  0.036  1.0000
  H   H109      1.0  0.1447  0.9640999999999998  0.4339  1.0000
  H   H110      1.0  0.1506  0.0591  0.45630000000000004  1.0000
  H   H111      1.0  0.3709000000000002  0.03119999999999999  0.5827000000000001  1.0000
  H   H112      1.0  0.3671  0.9349999999999999  0.5617  1.0000
  H   H113      1.0  0.41060000000000013  0.9006999999999997  0.4491  1.0000
  H   H114      1.0  0.5487000000000001  0.8513999999999999  0.4667  1.0000
  H   H115      1.0  0.43820000000000003  0.7306  0.5460000000000002  1.0000
  H   H116      1.0  0.2977  0.7816  0.5313  1.0000
  H   H117      1.0  0.2324  0.7955  0.41050000000000003  1.0000
  H   H118      1.0  0.09890000000000004  0.7493999999999998  0.3632  1.0000
  H   H119      1.0  0.9435000000000002  0.8457  0.4412000000000001  1.0000
  H   H120      1.0  0.07869999999999998  0.8907  0.4925  1.0000
  H   H121      1.0  0.1134  0.9289999999999998  0.3425  1.0000
  H   H122      1.0  0.9705000000000003  0.888  0.3047  1.0000
  H   H123      1.0  0.0817  0.8188  0.1847  1.0000
  H   H124      1.0  0.22620000000000007  0.8621999999999997  0.22390000000000004  1.0000
  H   H125      1.0  0.3660000000000001  0.9924  0.3899  1.0000
  H   H126      1.0  0.3693  0.0921  0.39880000000000004  1.0000
  H   H127      1.0  0.15310000000000004  0.1034  0.2665  1.0000
  H   H128      1.0  0.158  0.0047  0.2569  1.0000
  H   H129      1.0  0.42110000000000003  0.9729999999999999  0.2856  1.0000
  H   H130      1.0  0.5617  0.9290999999999998  0.2855  1.0000
  H   H131      1.0  0.4667  0.7843  0.33980000000000005  1.0000
  H   H132      1.0  0.32500000000000007  0.8240999999999999  0.336  1.0000
  H   H133      1.0  0.6781000000000001  0.45999999999999996  0.3095  1.0000
  H   H134      1.0  0.6798  0.5556  0.2874  1.0000
  H   H135      1.0  0.8071  0.5912999999999999  0.4436000000000001  1.0000
  H   H136      1.0  0.8049000000000002  0.49489999999999995  0.4671  1.0000
  H   H137      1.0  0.7224  0.3063  0.3517  1.0000
  H   H138      1.0  0.5821  0.2585  0.317  1.0000
  H   H139      1.0  0.4395000000000001  0.3813  0.3751  1.0000
  H   H140      1.0  0.5781  0.4301  0.41  1.0000
  H   H141      1.0  0.9122  0.4354  0.389  1.0000
  H   H142      1.0  0.05669999999999999  0.3922999999999999  0.4239  1.0000
  H   H143      1.0  0.9326  0.27309999999999995  0.4965  1.0000
  H   H144      1.0  0.7914999999999999  0.3154  0.464  1.0000
  C   C1        1.0  0.2561000000000001  0.5618999999999998  0.9954000000000002  1.0000
  C   C2        1.0  0.19  0.5226999999999999  0.9639  1.0000
  C   C3        1.0  0.1933  0.466  0.9778  1.0000
  C   C4        1.0  0.2586  0.4438999999999999  0.0234  1.0000
  C   C5        1.0  0.3248000000000001  0.4825  0.0533  1.0000
  C   C6        1.0  0.32330000000000003  0.5402999999999999  0.0404  1.0000
  C   C7        1.0  0.2561  0.384  0.0398  1.0000
  C   C8        1.0  0.4168  0.6328999999999999  0.97  1.0000
  C   C9        1.0  0.4981  0.6626  0.9799000000000001  1.0000
  C   C10       1.0  0.5079  0.7125999999999999  0.0087  1.0000
  C   C11       1.0  0.4325  0.7343  0.0275  1.0000
  C   C12       1.0  0.349  0.7044  0.0188  1.0000
  C   C13       1.0  0.34430000000000005  0.6521999999999999  0.9906000000000001  1.0000
  C   C14       1.0  0.5985  0.7472999999999997  0.023100000000000006  1.0000
  C   C15       1.0  0.16960000000000006  0.6495  0.9535  1.0000
  C   C16       1.0  0.1741000000000001  0.6933  0.9163000000000002  1.0000
  C   C17       1.0  0.09350000000000006  0.7208999999999999  0.8874000000000002  1.0000
  C   C18       1.0  0.005699999999999983  0.7051  0.8939  1.0000
  C   C19       1.0  0.0018000000000001164  0.6638  0.9343000000000002  1.0000
  C   C20       1.0  0.08300000000000003  0.6359  0.9652  1.0000
  C   C21       1.0  0.9164  0.728  0.8611  1.0000
  C   C22       1.0  0.18449999999999997  0.5998  0.7859  1.0000
  C   C23       1.0  0.10650000000000007  0.5927999999999999  0.8104000000000002  1.0000
  C   C24       1.0  0.021199999999999976  0.6172  0.7882  1.0000
  C   C25       1.0  0.011600000000000065  0.6498999999999999  0.7404  1.0000
  C   C26       1.0  0.08800000000000005  0.6585  0.7162000000000001  1.0000
  C   C27       1.0  0.17500000000000002  0.6325  0.74  1.0000
  C   C28       1.0  0.9163  0.6755  0.7144000000000001  1.0000
  C   C29       1.0  0.2654000000000002  0.5109  0.8204000000000002  1.0000
  C   C30       1.0  0.3253  0.4851  0.8641  1.0000
  C   C31       1.0  0.32610000000000017  0.4251999999999999  0.8701000000000001  1.0000
  C   C32       1.0  0.2627000000000001  0.39169999999999994  0.8334  1.0000
  C   C33       1.0  0.19770000000000013  0.4183  0.7908000000000002  1.0000
  C   C34       1.0  0.20109999999999995  0.4775999999999999  0.7854  1.0000
  C   C35       1.0  0.2648000000000001  0.32819999999999994  0.8409  1.0000
  C   C36       1.0  0.3579  0.5979  0.8112  1.0000
  C   C37       1.0  0.4305  0.5653999999999999  0.7957  1.0000
  C   C38       1.0  0.514  0.5915  0.7961  1.0000
  C   C39       1.0  0.5289000000000003  0.6482999999999999  0.8121  1.0000
  C   C40       1.0  0.45640000000000014  0.6778  0.8278000000000001  1.0000
  C   C41       1.0  0.3728000000000002  0.6543  0.8265000000000002  1.0000
  C   C42       1.0  0.6215000000000002  0.676  0.8116  1.0000
  C   C43       1.0  0.7435  0.034  0.8906000000000002  1.0000
  C   C44       1.0  0.7048  0.0137  0.8368  1.0000
  C   C45       1.0  0.7052  0.9563999999999998  0.8234  1.0000
  C   C46       1.0  0.7433  0.9166999999999998  0.8634  1.0000
  C   C47       1.0  0.7809  0.9355  0.9166  1.0000
  C   C48       1.0  0.7805000000000001  0.9935999999999999  0.9308000000000001  1.0000
  C   C49       1.0  0.7459  0.8542  0.8495000000000003  1.0000
  C   C50       1.0  0.6658000000000001  0.12669999999999998  0.8827000000000003  1.0000
  C   C51       1.0  0.6659000000000003  0.17789999999999995  0.8561  1.0000
  C   C52       1.0  0.5813  0.2067  0.8354000000000003  1.0000
  C   C53       1.0  0.4963000000000001  0.18439999999999998  0.8419000000000001  1.0000
  C   C54       1.0  0.49610000000000004  0.1336  0.8699000000000001  1.0000
  C   C55       1.0  0.5790000000000001  0.10419999999999999  0.8908000000000001  1.0000
  C   C56       1.0  0.40730000000000005  0.21619999999999998  0.8165000000000002  1.0000
  C   C57       1.0  0.8356000000000002  0.12039999999999997  0.9234  1.0000
  C   C58       1.0  0.9159000000000002  0.0974  0.9108  1.0000
  C   C59       1.0  0.002900000000000032  0.12419999999999999  0.9315000000000001  1.0000
  C   C60       1.0  0.012200000000000126  0.1728  0.9618000000000002  1.0000
  C   C61       1.0  0.9294000000000002  0.19429999999999997  0.9744  1.0000
  C   C62       1.0  0.8448000000000003  0.16869999999999996  0.9552000000000003  1.0000
  C   C63       1.0  0.1079000000000001  0.19739999999999996  0.9833000000000001  1.0000
  C   C64       1.0  0.7438999999999999  0.06189999999999999  0.5046  1.0000
  C   C65       1.0  0.81  0.022699999999999998  0.5361000000000001  1.0000
  C   C66       1.0  0.8067  0.9659999999999997  0.5222  1.0000
  C   C67       1.0  0.7414  0.9439  0.4766  1.0000
  C   C68       1.0  0.6752  0.9824999999999999  0.4467  1.0000
  C   C69       1.0  0.6767  0.0403  0.45960000000000006  1.0000
  C   C70       1.0  0.7439  0.8839999999999998  0.4602000000000001  1.0000
  C   C71       1.0  0.5832  0.1329  0.53  1.0000
  C   C72       1.0  0.5019  0.1626  0.5201  1.0000
  C   C73       1.0  0.4921  0.21259999999999996  0.4913  1.0000
  C   C74       1.0  0.5675  0.2343  0.4725  1.0000
  C   C75       1.0  0.651  0.20439999999999994  0.48120000000000007  1.0000
  C   C76       1.0  0.6557000000000001  0.1522  0.5094  1.0000
  C   C77       1.0  0.40150000000000013  0.24729999999999996  0.4769000000000001  1.0000
  C   C78       1.0  0.8304000000000001  0.1495  0.5465  1.0000
  C   C79       1.0  0.8259  0.1933  0.5837  1.0000
  C   C80       1.0  0.9065  0.2209  0.6126000000000001  1.0000
  C   C81       1.0  0.9943  0.20509999999999995  0.6061000000000001  1.0000
  C   C82       1.0  0.9982000000000001  0.16379999999999997  0.5657  1.0000
  C   C83       1.0  0.9170000000000001  0.1359  0.5348  1.0000
  C   C84       1.0  0.0836  0.228  0.6389  1.0000
  C   C85       1.0  0.8155000000000002  0.09979999999999999  0.7141  1.0000
  C   C86       1.0  0.8935000000000001  0.0928  0.6896000000000001  1.0000
  C   C87       1.0  0.9788000000000001  0.1172  0.7118  1.0000
  C   C88       1.0  0.9884000000000001  0.1499  0.7596  1.0000
  C   C89       1.0  0.9120000000000003  0.15849999999999997  0.7838000000000003  1.0000
  C   C90       1.0  0.8250000000000002  0.13249999999999998  0.76  1.0000
  C   C91       1.0  0.08370000000000011  0.17549999999999996  0.7856000000000002  1.0000
  C   C92       1.0  0.7346000000000004  0.010899999999999996  0.6796000000000001  1.0000
  C   C93       1.0  0.6747000000000001  0.9851  0.6359000000000001  1.0000
  C   C94       1.0  0.6739000000000002  0.9251999999999998  0.6299  1.0000
  C   C95       1.0  0.7373000000000002  0.8916999999999998  0.6666  1.0000
  C   C96       1.0  0.8023000000000001  0.9182999999999999  0.7092000000000002  1.0000
  C   C97       1.0  0.7989  0.9775999999999998  0.7146  1.0000
  C   C98       1.0  0.7352  0.8282  0.6591000000000001  1.0000
  C   C99       1.0  0.6421  0.0979  0.6888  1.0000
  C   C100      1.0  0.5695000000000001  0.0654  0.7043  1.0000
  C   C101      1.0  0.48600000000000015  0.0915  0.7039000000000001  1.0000
  C   C102      1.0  0.4711  0.1483  0.6879  1.0000
  C   C103      1.0  0.5435999999999999  0.1778  0.6722  1.0000
  C   C104      1.0  0.6272000000000002  0.1543  0.6735000000000002  1.0000
  C   C105      1.0  0.3785000000000001  0.176  0.6884  1.0000
  C   C106      1.0  0.2565  0.534  0.6094  1.0000
  C   C107      1.0  0.2952  0.5137  0.6632  1.0000
  C   C108      1.0  0.29480000000000006  0.4563999999999999  0.6766  1.0000
  C   C109      1.0  0.25670000000000004  0.4167  0.6366000000000002  1.0000
  C   C110      1.0  0.21910000000000002  0.43549999999999994  0.5834000000000001  1.0000
  C   C111      1.0  0.21950000000000003  0.49359999999999987  0.5692000000000002  1.0000
  C   C112      1.0  0.2541  0.3542  0.6505  1.0000
  C   C113      1.0  0.3342  0.6266999999999999  0.6173  1.0000
  C   C114      1.0  0.3341000000000001  0.6778999999999998  0.6439  1.0000
  C   C115      1.0  0.41870000000000007  0.7067  0.6646000000000001  1.0000
  C   C116      1.0  0.5037  0.6844  0.6581  1.0000
  C   C117      1.0  0.5039  0.6336  0.6301000000000001  1.0000
  C   C118      1.0  0.421  0.6042  0.6092  1.0000
  C   C119      1.0  0.5927  0.7162  0.6835000000000001  1.0000
  C   C120      1.0  0.16440000000000002  0.6203999999999998  0.5766  1.0000
  C   C121      1.0  0.08410000000000001  0.5974  0.5892  1.0000
  C   C122      1.0  0.9971000000000002  0.6242  0.5685000000000001  1.0000
  C   C123      1.0  0.9877999999999999  0.6728  0.5382  1.0000
  C   C124      1.0  0.0706  0.6942999999999998  0.5256  1.0000
  C   C125      1.0  0.1552  0.6686999999999999  0.5448  1.0000
  C   C126      1.0  0.8921  0.6974  0.5167  1.0000
  C   C127      1.0  0.7439  0.4380999999999999  0.0046  1.0000
  C   C128      1.0  0.81  0.47729999999999995  0.0361  1.0000
  C   C129      1.0  0.8067  0.534  0.0222  1.0000
  C   C130      1.0  0.7414000000000001  0.5561  0.9766000000000002  1.0000
  C   C131      1.0  0.6752  0.5174999999999998  0.9467000000000001  1.0000
  C   C132      1.0  0.6767  0.4597  0.9596  1.0000
  C   C133      1.0  0.7439000000000001  0.616  0.9602000000000003  1.0000
  C   C134      1.0  0.5832  0.3671  0.03  1.0000
  C   C135      1.0  0.5019  0.3373999999999999  0.0201  1.0000
  C   C136      1.0  0.4921000000000001  0.2874  0.9913000000000002  1.0000
  C   C137      1.0  0.5675000000000003  0.26569999999999994  0.9725000000000003  1.0000
  C   C138      1.0  0.651  0.2955999999999999  0.9812  1.0000
  C   C139      1.0  0.6557000000000001  0.3478  0.0094  1.0000
  C   C140      1.0  0.40150000000000013  0.2527  0.9769  1.0000
  C   C141      1.0  0.8304000000000001  0.35049999999999987  0.046500000000000014  1.0000
  C   C142      1.0  0.8259  0.3067  0.08370000000000001  1.0000
  C   C143      1.0  0.9065  0.2791  0.11260000000000002  1.0000
  C   C144      1.0  0.9943  0.2949  0.10610000000000003  1.0000
  C   C145      1.0  0.9982000000000002  0.3362  0.0657  1.0000
  C   C146      1.0  0.9170000000000001  0.3640999999999999  0.0348  1.0000
  C   C147      1.0  0.0836  0.272  0.1389  1.0000
  C   C148      1.0  0.8155000000000001  0.4002  0.2141  1.0000
  C   C149      1.0  0.8935  0.4072  0.1896  1.0000
  C   C150      1.0  0.9788000000000003  0.3827999999999999  0.21180000000000004  1.0000
  C   C151      1.0  0.9884000000000001  0.35009999999999997  0.2596  1.0000
  C   C152      1.0  0.9120000000000003  0.3415  0.2838  1.0000
  C   C153      1.0  0.8250000000000002  0.3674999999999999  0.26  1.0000
  C   C154      1.0  0.0837  0.3245  0.2856  1.0000
  C   C155      1.0  0.7346000000000005  0.48909999999999987  0.1796  1.0000
  C   C156      1.0  0.6747000000000001  0.5148999999999999  0.1359  1.0000
  C   C157      1.0  0.6739000000000002  0.5748  0.12990000000000002  1.0000
  C   C158      1.0  0.7373000000000002  0.6083  0.16660000000000003  1.0000
  C   C159      1.0  0.8023000000000001  0.5817  0.2092  1.0000
  C   C160      1.0  0.7989  0.5224  0.2146  1.0000
  C   C161      1.0  0.7352  0.6717999999999998  0.1591  1.0000
  C   C162      1.0  0.6421  0.4020999999999999  0.1888  1.0000
  C   C163      1.0  0.5695000000000001  0.4346  0.20430000000000006  1.0000
  C   C164      1.0  0.4860000000000002  0.4084999999999999  0.20390000000000005  1.0000
  C   C165      1.0  0.4711  0.3517  0.1879  1.0000
  C   C166      1.0  0.5436  0.32219999999999993  0.1722  1.0000
  C   C167      1.0  0.6272000000000002  0.34569999999999995  0.1735  1.0000
  C   C168      1.0  0.3785000000000001  0.32399999999999995  0.1884  1.0000
  C   C169      1.0  0.25650000000000006  0.9659999999999997  0.1094  1.0000
  C   C170      1.0  0.2952  0.9863  0.1632  1.0000
  C   C171      1.0  0.29480000000000006  0.043599999999999986  0.1766  1.0000
  C   C172      1.0  0.2567  0.08329999999999999  0.1366  1.0000
  C   C173      1.0  0.2191  0.0645  0.0834  1.0000
  C   C174      1.0  0.2195  0.006399999999999999  0.06920000000000001  1.0000
  C   C175      1.0  0.2541  0.14579999999999999  0.1505  1.0000
  C   C176      1.0  0.3342  0.8732999999999999  0.11730000000000003  1.0000
  C   C177      1.0  0.3341000000000001  0.8221  0.1439  1.0000
  C   C178      1.0  0.41870000000000007  0.7933  0.16460000000000002  1.0000
  C   C179      1.0  0.5037  0.8156  0.1581  1.0000
  C   C180      1.0  0.5039000000000001  0.8664  0.13010000000000002  1.0000
  C   C181      1.0  0.421  0.8958  0.10920000000000003  1.0000
  C   C182      1.0  0.5927  0.7838  0.18350000000000005  1.0000
  C   C183      1.0  0.16440000000000002  0.8796  0.0766  1.0000
  C   C184      1.0  0.08410000000000001  0.9026  0.0892  1.0000
  C   C185      1.0  0.9971000000000002  0.8758  0.0685  1.0000
  C   C186      1.0  0.9878  0.8272  0.0382  1.0000
  C   C187      1.0  0.0706  0.8056999999999999  0.025600000000000005  1.0000
  C   C188      1.0  0.1552  0.8312999999999999  0.0448  1.0000
  C   C189      1.0  0.8921  0.8025999999999998  0.0167  1.0000
  C   C190      1.0  0.2561000000000001  0.9381  0.4954  1.0000
  C   C191      1.0  0.19  0.9773  0.4639  1.0000
  C   C192      1.0  0.19330000000000003  0.034  0.47780000000000006  1.0000
  C   C193      1.0  0.2586  0.0561  0.5234  1.0000
  C   C194      1.0  0.3248000000000001  0.0175  0.5533  1.0000
  C   C195      1.0  0.32330000000000003  0.9596999999999999  0.5404  1.0000
  C   C196      1.0  0.2561  0.11599999999999998  0.5398  1.0000
  C   C197      1.0  0.4168  0.8670999999999999  0.47  1.0000
  C   C198      1.0  0.4981  0.8373999999999999  0.4799  1.0000
  C   C199      1.0  0.5078999999999999  0.7873999999999998  0.5087  1.0000
  C   C200      1.0  0.4325  0.7657  0.5275  1.0000
  C   C201      1.0  0.349  0.7956  0.5188  1.0000
  C   C202      1.0  0.3443  0.8478  0.4906  1.0000
  C   C203      1.0  0.5985  0.7526999999999999  0.5231  1.0000
  C   C204      1.0  0.16960000000000008  0.8504999999999998  0.4535000000000001  1.0000
  C   C205      1.0  0.17410000000000003  0.8067  0.41630000000000006  1.0000
  C   C206      1.0  0.09350000000000001  0.7790999999999998  0.3874  1.0000
  C   C207      1.0  0.005700000000000013  0.7949  0.39390000000000003  1.0000
  C   C208      1.0  0.0018000000000000249  0.8362  0.43430000000000013  1.0000
  C   C209      1.0  0.08300000000000007  0.8641  0.4652000000000001  1.0000
  C   C210      1.0  0.9164  0.772  0.3611  1.0000
  C   C211      1.0  0.1845  0.9001999999999998  0.2859  1.0000
  C   C212      1.0  0.10650000000000004  0.9071999999999999  0.31040000000000006  1.0000
  C   C213      1.0  0.021200000000000007  0.8827999999999998  0.2882  1.0000
  C   C214      1.0  0.011600000000000004  0.8501  0.2404  1.0000
  C   C215      1.0  0.088  0.8414999999999998  0.2162  1.0000
  C   C216      1.0  0.175  0.8674999999999999  0.24  1.0000
  C   C217      1.0  0.9163  0.8245  0.21440000000000003  1.0000
  C   C218      1.0  0.2654000000000001  0.9891  0.3204000000000001  1.0000
  C   C219      1.0  0.3253  0.014899999999999997  0.3641  1.0000
  C   C220      1.0  0.3261000000000001  0.0748  0.3701  1.0000
  C   C221      1.0  0.2627  0.1083  0.3334  1.0000
  C   C222      1.0  0.1977  0.08169999999999998  0.2908  1.0000
  C   C223      1.0  0.2011  0.0224  0.2854  1.0000
  C   C224      1.0  0.2648  0.1718  0.3409  1.0000
  C   C225      1.0  0.3579  0.9021  0.3112  1.0000
  C   C226      1.0  0.4305  0.9345999999999999  0.2957  1.0000
  C   C227      1.0  0.514  0.9084999999999998  0.2961  1.0000
  C   C228      1.0  0.5289  0.8517  0.3121  1.0000
  C   C229      1.0  0.45640000000000014  0.8222  0.3278  1.0000
  C   C230      1.0  0.37280000000000013  0.8457  0.3265  1.0000
  C   C231      1.0  0.6215000000000002  0.824  0.3116  1.0000
  C   C232      1.0  0.7435  0.466  0.3906  1.0000
  C   C233      1.0  0.7048  0.4862999999999999  0.3368  1.0000
  C   C234      1.0  0.7052000000000002  0.5436  0.3234  1.0000
  C   C235      1.0  0.7433  0.5833  0.3634  1.0000
  C   C236      1.0  0.7809  0.5645  0.4166  1.0000
  C   C237      1.0  0.7805  0.5064  0.4308  1.0000
  C   C238      1.0  0.7459  0.6458  0.3495  1.0000
  C   C239      1.0  0.6658  0.37329999999999997  0.3827  1.0000
  C   C240      1.0  0.6659000000000003  0.3221  0.35610000000000014  1.0000
  C   C241      1.0  0.5813  0.29329999999999995  0.3354  1.0000
  C   C242      1.0  0.4963  0.3156  0.3419  1.0000
  C   C243      1.0  0.49610000000000004  0.3663999999999999  0.3699  1.0000
  C   C244      1.0  0.5790000000000001  0.3958  0.3908  1.0000
  C   C245      1.0  0.40730000000000005  0.2838  0.3165  1.0000
  C   C246      1.0  0.8356000000000005  0.3796  0.4234  1.0000
  C   C247      1.0  0.9159  0.4025999999999999  0.4108  1.0000
  C   C248      1.0  0.002900000000000001  0.37579999999999997  0.4315  1.0000
  C   C249      1.0  0.012200000000000034  0.32719999999999994  0.4618000000000001  1.0000
  C   C250      1.0  0.9294000000000002  0.30569999999999997  0.4744000000000001  1.0000
  C   C251      1.0  0.8448000000000002  0.3313  0.4552000000000001  1.0000
  C   C252      1.0  0.10790000000000002  0.3026  0.4833  1.0000
  N   N1        1.0  0.25450000000000006  0.6203  0.9809000000000002  1.0000
  N   N2        1.0  0.7471  0.09429999999999998  0.9027  1.0000
  N   N3        1.0  0.2699000000000001  0.5705  0.8111000000000003  1.0000
  N   N4        1.0  0.7455  0.12029999999999999  0.5191  1.0000
  N   N5        1.0  0.2529  0.5943  0.5973  1.0000
  N   N6        1.0  0.7301000000000002  0.0705  0.6889000000000001  1.0000
  N   N7        1.0  0.7455  0.3796999999999999  0.0191  1.0000
  N   N8        1.0  0.2529  0.9056999999999997  0.0973  1.0000
  N   N9        1.0  0.7301000000000002  0.4295  0.18890000000000007  1.0000
  N   N10       1.0  0.25450000000000006  0.8797  0.4809000000000001  1.0000
  N   N11       1.0  0.7471  0.4056999999999999  0.4027000000000001  1.0000
  N   N12       1.0  0.2699000000000001  0.9294999999999999  0.3111  1.0000
  O   O1        1.0  0.1912  0.3509999999999999  0.014700000000000001  1.0000
  O   O2        1.0  0.3177  0.3640999999999999  0.07990000000000001  1.0000
  O   O3        1.0  0.6699  0.7265999999999998  0.008000000000000002  1.0000
  O   O4        1.0  0.6042  0.7915  0.05120000000000001  1.0000
  O   O5        1.0  0.8384  0.7078  0.8661  1.0000
  O   O6        1.0  0.92  0.7639999999999998  0.8237  1.0000
  O   O7        1.0  0.8568000000000001  0.6760999999999999  0.7435000000000002  1.0000
  O   O8        1.0  0.9051000000000005  0.6946  0.6653000000000001  1.0000
  O   O9        1.0  0.21030000000000001  0.2969  0.8041  1.0000
  O   O10       1.0  0.31850000000000017  0.3062  0.8810000000000001  1.0000
  O   O11       1.0  0.6432  0.7248999999999999  0.8349000000000002  1.0000
  O   O12       1.0  0.6750000000000004  0.6529  0.7833000000000002  1.0000
  O   O13       1.0  0.7668  0.8208999999999997  0.8905  1.0000
  O   O14       1.0  0.7288  0.8380999999999998  0.8009  1.0000
  O   O15       1.0  0.4061000000000001  0.2555  0.7824000000000002  1.0000
  O   O16       1.0  0.3298  0.1955  0.8255  1.0000
  O   O17       1.0  0.1754000000000001  0.1821  0.9649000000000001  1.0000
  O   O18       1.0  0.11210000000000003  0.23549999999999993  0.0207  1.0000
  O   O19       1.0  0.8088  0.8509999999999998  0.48530000000000006  1.0000
  O   O20       1.0  0.6823  0.8641  0.4201  1.0000
  O   O21       1.0  0.33010000000000017  0.2266  0.49200000000000005  1.0000
  O   O22       1.0  0.39580000000000015  0.2915  0.44880000000000003  1.0000
  O   O23       1.0  0.16160000000000002  0.2078  0.6339  1.0000
  O   O24       1.0  0.08  0.26399999999999996  0.6763  1.0000
  O   O25       1.0  0.1432000000000001  0.1761  0.7565  1.0000
  O   O26       1.0  0.0949000000000001  0.19459999999999997  0.8347000000000002  1.0000
  O   O27       1.0  0.7897000000000002  0.7968999999999998  0.6959  1.0000
  O   O28       1.0  0.6815000000000002  0.8061999999999999  0.619  1.0000
  O   O29       1.0  0.35680000000000006  0.22489999999999993  0.6651000000000001  1.0000
  O   O30       1.0  0.3250000000000001  0.1529  0.7167000000000002  1.0000
  O   O31       1.0  0.2332  0.32089999999999996  0.6095  1.0000
  O   O32       1.0  0.2712  0.3381  0.6991  1.0000
  O   O33       1.0  0.5939000000000001  0.7555  0.7176000000000001  1.0000
  O   O34       1.0  0.6702  0.6955  0.6745  1.0000
  O   O35       1.0  0.8246000000000002  0.6821  0.5351  1.0000
  O   O36       1.0  0.8879  0.7354999999999998  0.4793000000000001  1.0000
  O   O37       1.0  0.8088  0.649  0.9853  1.0000
  O   O38       1.0  0.6823  0.6359  0.9201  1.0000
  O   O39       1.0  0.3301000000000002  0.2733999999999999  0.9920000000000002  1.0000
  O   O40       1.0  0.39580000000000015  0.2085  0.9488000000000002  1.0000
  O   O41       1.0  0.1616  0.29219999999999996  0.1339  1.0000
  O   O42       1.0  0.08  0.236  0.1763  1.0000
  O   O43       1.0  0.1432  0.3239  0.2565  1.0000
  O   O44       1.0  0.09490000000000003  0.3054  0.33470000000000005  1.0000
  O   O45       1.0  0.7897000000000002  0.7030999999999998  0.1959  1.0000
  O   O46       1.0  0.6815000000000002  0.6937999999999998  0.11900000000000002  1.0000
  O   O47       1.0  0.3568  0.2751  0.1651  1.0000
  O   O48       1.0  0.32500000000000007  0.3470999999999999  0.2167  1.0000
  O   O49       1.0  0.2332  0.17909999999999998  0.10950000000000001  1.0000
  O   O50       1.0  0.2712  0.1619  0.1991  1.0000
  O   O51       1.0  0.5939  0.7445  0.2176  1.0000
  O   O52       1.0  0.6702  0.8045  0.17450000000000002  1.0000
  O   O53       1.0  0.8246000000000002  0.8179  0.0351  1.0000
  O   O54       1.0  0.8879  0.7644999999999998  0.9793  1.0000
  O   O55       1.0  0.1912  0.149  0.5147  1.0000
  O   O56       1.0  0.3177  0.1359  0.5799  1.0000
  O   O57       1.0  0.6699  0.7733999999999999  0.508  1.0000
  O   O58       1.0  0.6042  0.7085  0.5512  1.0000
  O   O59       1.0  0.8384  0.7922  0.3661  1.0000
  O   O60       1.0  0.9200000000000003  0.7359999999999999  0.3237  1.0000
  O   O61       1.0  0.8568  0.8239  0.24350000000000002  1.0000
  O   O62       1.0  0.9051000000000002  0.8054  0.1653  1.0000
  O   O63       1.0  0.2103  0.20309999999999997  0.3041  1.0000
  O   O64       1.0  0.3185000000000001  0.19379999999999994  0.381  1.0000
  O   O65       1.0  0.6432  0.7750999999999998  0.33490000000000003  1.0000
  O   O66       1.0  0.6750000000000003  0.8470999999999999  0.2833  1.0000
  O   O67       1.0  0.7668  0.6791  0.39050000000000007  1.0000
  O   O68       1.0  0.7288  0.6618999999999999  0.30090000000000006  1.0000
  O   O69       1.0  0.40609999999999996  0.24449999999999997  0.2824  1.0000
  O   O70       1.0  0.3298  0.30449999999999994  0.3255  1.0000
  O   O71       1.0  0.17540000000000006  0.3179  0.4649  1.0000
  O   O72       1.0  0.11210000000000003  0.2645  0.5207  1.0000
