data_image0
_chemical_formula_structural       CeO5HOHO2C2HCHCCeO5HOHO2C2HCHCCeO5HOHO2C2HCHCCeO5HOHO2C2HCHCS2
_chemical_formula_sum              "Ce4 O32 H16 C16 S2"
_cell_length_a       21.96
_cell_length_b       7.655
_cell_length_c       6.167
_cell_angle_alpha    90.0
_cell_angle_beta     91.46999999999998
_cell_angle_gamma    90.0

_symmetry_space_group_name_H-M    'P 1'
_symmetry_Int_Tables_number       1

loop_
  _symmetry_equiv_pos_as_xyz
  'x,y,z'

loop_
  _atom_site_type_symbol
  _atom_site_label
  _atom_site_symmetry_multiplicity
  _atom_site_fract_x
  _atom_site_fract_y
  _atom_site_fract_z
  _atom_site_occupancy
  Ce  Ce1       1.0  0.64534  0.25424  0.050179999999999995  1.0000
  O   O1        1.0  0.54406  0.3622  0.8855999999999998  1.0000
  O   O2        1.0  0.53758  0.14450000000000002  0.14829999999999996  1.0000
  O   O3        1.0  0.65551  0.20370000000000005  0.6534999999999997  1.0000
  O   O4        1.0  0.65939  0.0452  0.3532  1.0000
  O   O5        1.0  0.63765  0.9446000000000002  0.9055  1.0000
  H   H1        1.0  0.6066  0.8847  0.9440999999999999  1.0000
  O   O6        1.0  0.76297  0.8920000000000002  0.7172  1.0000
  H   H2        1.0  0.7598000000000001  0.9803000000000002  0.8  1.0000
  O   O7        1.0  0.66438  0.5398  0.8623  1.0000
  O   O8        1.0  0.74996  0.6477  0.005499999999999998  1.0000
  C   C1        1.0  0.6557  0.06120000000000001  0.5549  1.0000
  C   C2        1.0  0.6509  0.8949000000000003  0.6887  1.0000
  H   H3        1.0  0.6173  0.8237  0.6297999999999999  1.0000
  C   C3        1.0  0.71  0.7867  0.6873999999999999  1.0000
  H   H4        1.0  0.7122  0.7284  0.5464  1.0000
  C   C4        1.0  0.7073  0.6469000000000003  0.8621999999999997  1.0000
  Ce  Ce2       1.0  0.14534  0.7542400000000002  0.050179999999999995  1.0000
  O   O9        1.0  0.04406  0.8622000000000002  0.8855999999999998  1.0000
  O   O10       1.0  0.03758  0.6445000000000002  0.14829999999999996  1.0000
  O   O11       1.0  0.15551  0.7037000000000002  0.6534999999999997  1.0000
  O   O12       1.0  0.15939  0.5452000000000002  0.3532  1.0000
  O   O13       1.0  0.13765  0.4446000000000001  0.9055  1.0000
  H   H5        1.0  0.1066  0.3847000000000001  0.9440999999999999  1.0000
  O   O14       1.0  0.26297  0.392  0.7172  1.0000
  H   H6        1.0  0.2598  0.4803000000000001  0.8  1.0000
  O   O15       1.0  0.16438  0.0398  0.8623  1.0000
  O   O16       1.0  0.24996  0.1477  0.005499999999999998  1.0000
  C   C5        1.0  0.1557  0.5612  0.5549  1.0000
  C   C6        1.0  0.1509  0.3949  0.6887  1.0000
  H   H7        1.0  0.1173  0.3237000000000001  0.6297999999999999  1.0000
  C   C7        1.0  0.21  0.2867000000000001  0.6873999999999999  1.0000
  H   H8        1.0  0.2122  0.22840000000000005  0.5464  1.0000
  C   C8        1.0  0.20729999999999998  0.14690000000000006  0.8621999999999997  1.0000
  Ce  Ce3       1.0  0.35466  0.25424  0.94982  1.0000
  O   O17       1.0  0.45594  0.3622  0.11439999999999999  1.0000
  O   O18       1.0  0.46242000000000005  0.14450000000000002  0.8517  1.0000
  O   O19       1.0  0.34449  0.20370000000000005  0.34649999999999986  1.0000
  O   O20       1.0  0.34061  0.0452  0.6467999999999999  1.0000
  O   O21       1.0  0.36235  0.9446000000000002  0.0945  1.0000
  H   H9        1.0  0.3934  0.8847  0.055899999999999984  1.0000
  O   O22       1.0  0.23702999999999996  0.8920000000000002  0.2828  1.0000
  H   H10       1.0  0.24019999999999997  0.9803000000000002  0.2  1.0000
  O   O23       1.0  0.33562  0.5398  0.1377  1.0000
  O   O24       1.0  0.25004  0.6477  0.9945  1.0000
  C   C9        1.0  0.3443  0.06120000000000001  0.4450999999999999  1.0000
  C   C10       1.0  0.3491  0.8949000000000003  0.3113  1.0000
  H   H11       1.0  0.3827  0.8237  0.3702  1.0000
  C   C11       1.0  0.29  0.7867  0.3126  1.0000
  H   H12       1.0  0.2878  0.7284  0.4535999999999999  1.0000
  C   C12       1.0  0.2927  0.6469000000000003  0.1378  1.0000
  Ce  Ce4       1.0  0.8546600000000001  0.7542400000000002  0.94982  1.0000
  O   O25       1.0  0.95594  0.8622000000000002  0.11439999999999999  1.0000
  O   O26       1.0  0.96242  0.6445000000000002  0.8517  1.0000
  O   O27       1.0  0.84449  0.7037000000000002  0.34649999999999986  1.0000
  O   O28       1.0  0.84061  0.5452000000000002  0.6467999999999999  1.0000
  O   O29       1.0  0.86235  0.4446000000000001  0.0945  1.0000
  H   H13       1.0  0.8934  0.3847000000000001  0.055899999999999984  1.0000
  O   O30       1.0  0.73703  0.392  0.2828  1.0000
  H   H14       1.0  0.7401999999999999  0.4803000000000001  0.2  1.0000
  O   O31       1.0  0.83562  0.0398  0.1377  1.0000
  O   O32       1.0  0.7500399999999999  0.1477  0.9945  1.0000
  C   C13       1.0  0.8443  0.5612  0.4450999999999999  1.0000
  C   C14       1.0  0.8490999999999999  0.3949  0.3113  1.0000
  H   H15       1.0  0.8827  0.3237000000000001  0.3702  1.0000
  C   C15       1.0  0.79  0.2867000000000001  0.3126  1.0000
  H   H16       1.0  0.7878  0.22840000000000005  0.4535999999999999  1.0000
  C   C16       1.0  0.7927  0.14690000000000006  0.1378  1.0000
  S   S1        1.0  0.5  0.2547000000000001  0.0  1.0000
  S   S2        1.0  0.0  0.7547000000000003  0.0  1.0000
