data_image0
_chemical_formula_structural       Gd2H6C12O14
_chemical_formula_sum              "Gd2 H6 C12 O14"
_cell_length_a       6.0867
_cell_length_b       9.483
_cell_length_c       10.096
_cell_angle_alpha    88.612
_cell_angle_beta     74.385
_cell_angle_gamma    77.132

_symmetry_space_group_name_H-M    'P 1'
_symmetry_Int_Tables_number       1

loop_
  _symmetry_equiv_pos_as_xyz
  'x,y,z'

loop_
  _atom_site_type_symbol
  _atom_site_label
  _atom_site_symmetry_multiplicity
  _atom_site_fract_x
  _atom_site_fract_y
  _atom_site_fract_z
  _atom_site_occupancy
  Gd  Gd1       1.0  0.3452  0.94175  0.70299  1.0000
  Gd  Gd2       1.0  0.6548000000000002  0.05825  0.29701  1.0000
  H   H1        1.0  0.733  0.1163  0.7046  1.0000
  H   H2        1.0  0.37839999999999996  0.9686  0.35140000000000005  1.0000
  H   H3        1.0  0.26699999999999996  0.8837  0.29540000000000005  1.0000
  H   H4        1.0  0.6215999999999999  0.0314  0.6486  1.0000
  H   H5        1.0  0.27149999999999996  0.44149999999999995  0.6262000000000001  1.0000
  H   H6        1.0  0.7285  0.5585  0.37380000000000013  1.0000
  C   C1        1.0  0.19199999999999992  0.7217  0.5922  1.0000
  C   C2        1.0  0.093  0.6086  0.5447  1.0000
  C   C3        1.0  0.8079999999999999  0.2783  0.40780000000000005  1.0000
  C   C4        1.0  0.9269999999999999  0.6412  0.4661  1.0000
  C   C5        1.0  0.16099999999999998  0.2064  0.5775  1.0000
  C   C6        1.0  0.07299999999999995  0.047400000000000005  0.016600000000000004  1.0000
  C   C7        1.0  0.07299999999999994  0.3588  0.5339  1.0000
  C   C8        1.0  0.838  0.5341  0.4243  1.0000
  C   C9        1.0  0.16199999999999992  0.4658999999999999  0.5757000000000001  1.0000
  C   C10       1.0  0.927  0.9526  0.9834  1.0000
  C   C11       1.0  0.839  0.7936  0.42250000000000004  1.0000
  C   C12       1.0  0.9069999999999998  0.3914  0.4553000000000001  1.0000
  O   O1        1.0  0.004600000000000001  0.1059  0.1392  1.0000
  O   O2        1.0  0.6634999999999999  0.8762999999999999  0.5021  1.0000
  O   O3        1.0  0.6734  0.3115  0.3311  1.0000
  O   O4        1.0  0.06289999999999998  0.16989999999999997  0.6933000000000001  1.0000
  O   O5        1.0  0.8652  0.1476  0.44210000000000005  1.0000
  O   O6        1.0  0.9953999999999998  0.8940999999999999  0.8608000000000001  1.0000
  O   O7        1.0  0.3982  0.904  0.2898  1.0000
  O   O8        1.0  0.25279999999999997  0.062099999999999995  0.9262000000000001  1.0000
  O   O9        1.0  0.7472  0.9378999999999998  0.07380000000000002  1.0000
  O   O10       1.0  0.13479999999999995  0.8523999999999999  0.5579000000000001  1.0000
  O   O11       1.0  0.3266  0.6884999999999999  0.6689  1.0000
  O   O12       1.0  0.3364999999999999  0.1237  0.49790000000000006  1.0000
  O   O13       1.0  0.6017999999999999  0.096  0.7102  1.0000
  O   O14       1.0  0.9370999999999996  0.8301  0.3067  1.0000
