data_image0
_chemical_formula_structural       Co2H4C8O8
_chemical_formula_sum              "Co2 H4 C8 O8"
_cell_length_a       7.02
_cell_length_b       8.227
_cell_length_c       8.5292
_cell_angle_alpha    113.308
_cell_angle_beta     114.301
_cell_angle_gamma    90.0

_symmetry_space_group_name_H-M    'P 1'
_symmetry_Int_Tables_number       1

loop_
  _symmetry_equiv_pos_as_xyz
  'x,y,z'

loop_
  _atom_site_type_symbol
  _atom_site_label
  _atom_site_symmetry_multiplicity
  _atom_site_fract_x
  _atom_site_fract_y
  _atom_site_fract_z
  _atom_site_occupancy
  Co  Co1       1.0  0.0  0.5  0.5  1.0000
  Co  Co2       1.0  0.5  0.0  0.5  1.0000
  H   H1        1.0  0.40129999999999993  0.941  0.08460000000000001  1.0000
  H   H2        1.0  0.3167  0.559  0.9154  1.0000
  H   H3        1.0  0.5986999999999998  0.05900000000000002  0.9154  1.0000
  H   H4        1.0  0.6833  0.441  0.08460000000000001  1.0000
  C   C1        1.0  0.65734  0.15133000000000002  0.27230000000000004  1.0000
  C   C2        1.0  0.49966  0.00982  0.08132  1.0000
  C   C3        1.0  0.38504000000000005  0.3486700000000001  0.7277000000000002  1.0000
  C   C4        1.0  0.41834  0.49017999999999995  0.91868  1.0000
  C   C5        1.0  0.34265999999999996  0.8486700000000001  0.7277000000000002  1.0000
  C   C6        1.0  0.50034  0.99018  0.91868  1.0000
  C   C7        1.0  0.61496  0.6513300000000001  0.27230000000000004  1.0000
  C   C8        1.0  0.58166  0.50982  0.08132  1.0000
  O   O1        1.0  0.7934399999999998  0.2564  0.27874  1.0000
  O   O2        1.0  0.6442  0.15954  0.41978  1.0000
  O   O3        1.0  0.5147000000000002  0.2436000000000001  0.7212600000000002  1.0000
  O   O4        1.0  0.22441999999999995  0.34046  0.58022  1.0000
  O   O5        1.0  0.20656000000000013  0.7436  0.7212600000000002  1.0000
  O   O6        1.0  0.3558  0.84046  0.58022  1.0000
  O   O7        1.0  0.4853  0.7564  0.27874  1.0000
  O   O8        1.0  0.7755799999999998  0.65954  0.41978  1.0000
