data_image0
_chemical_formula_structural       Fe2H18C22N4O4
_chemical_formula_sum              "Fe2 H18 C22 N4 O4"
_cell_length_a       8.1256
_cell_length_b       10.5021
_cell_length_c       11.3817
_cell_angle_alpha    62.5251
_cell_angle_beta     84.3293
_cell_angle_gamma    77.633

_space_group_name_H-M_alt    "P 1"
_space_group_IT_number       1

loop_
  _space_group_symop_operation_xyz
  'x, y, z'

loop_
  _atom_site_type_symbol
  _atom_site_label
  _atom_site_symmetry_multiplicity
  _atom_site_fract_x
  _atom_site_fract_y
  _atom_site_fract_z
  _atom_site_occupancy
  Fe  Fe1       1.0  0.3579799999999999  0.24440999999999996  0.5078  1.0000
  Fe  Fe2       1.0  0.8579799999999999  0.75221  0.4922  1.0000
  H   H1        1.0  0.5727000000000002  0.9498999999999993  0.5426  1.0000
  H   H2        1.0  0.2755  0.9369  0.6316  1.0000
  H   H3        1.0  0.26940000000000003  0.7337999999999999  0.8297999999999999  1.0000
  H   H4        1.0  0.4525000000000001  0.9313999999999999  0.0014  1.0000
  H   H5        1.0  0.4555  0.128  0.7978  1.0000
  H   H6        1.0  0.29100000000000004  0.5438  0.011  1.0000
  H   H7        1.0  0.2904  0.3479  0.21519999999999997  1.0000
  H   H8        1.0  0.4068000000000001  0.7676999999999999  0.1864  1.0000
  H   H9        1.0  0.40620000000000006  0.5635999999999999  0.3846  1.0000
  H   H10       1.0  0.07269999999999997  0.4925  0.45740000000000003  1.0000
  H   H11       1.0  0.7755  0.5684999999999999  0.3684  1.0000
  H   H12       1.0  0.7694000000000003  0.5635999999999999  0.1702  1.0000
  H   H13       1.0  0.9525  0.9328  0.9986000000000002  1.0000
  H   H14       1.0  0.9555000000000001  0.9258  0.2022  1.0000
  H   H15       1.0  0.7910000000000001  0.5547999999999998  0.989  1.0000
  H   H16       1.0  0.7904000000000001  0.5631  0.7848  1.0000
  H   H17       1.0  0.9068000000000004  0.9541  0.8136000000000001  1.0000
  H   H18       1.0  0.9061999999999999  0.9482  0.6154  1.0000
  C   C1        1.0  0.5951  0.012160000000000006  0.45528  1.0000
  C   C2        1.0  0.3113  0.93607  0.70706  1.0000
  C   C3        1.0  0.3067000000000001  0.8131499999999997  0.8265000000000001  1.0000
  C   C4        1.0  0.3576  0.80826  0.94128  1.0000
  C   C5        1.0  0.415  0.92967  0.92766  1.0000
  C   C6        1.0  0.4163000000000001  0.04796000000000002  0.80448  1.0000
  C   C7        1.0  0.3521  0.68011  0.07278  1.0000
  C   C8        1.0  0.3154  0.55083  0.08574  1.0000
  C   C9        1.0  0.3153000000000001  0.43312999999999996  0.20914  1.0000
  C   C10       1.0  0.3842999999999999  0.6832  0.189  1.0000
  C   C11       1.0  0.3826  0.5597799999999999  0.30804  1.0000
  C   C12       1.0  0.0951  0.46744  0.54472  1.0000
  C   C13       1.0  0.8113  0.6431300000000001  0.29294  1.0000
  C   C14       1.0  0.8067000000000001  0.63965  0.1735  1.0000
  C   C15       1.0  0.8576000000000005  0.74954  0.05872  1.0000
  C   C16       1.0  0.915  0.8573299999999999  0.07234  1.0000
  C   C17       1.0  0.9163000000000001  0.85244  0.19552  1.0000
  C   C18       1.0  0.8521000000000002  0.7528899999999998  0.92722  1.0000
  C   C19       1.0  0.8154000000000003  0.63657  0.9142599999999999  1.0000
  C   C20       1.0  0.8153  0.64227  0.79086  1.0000
  C   C21       1.0  0.8843000000000001  0.8721999999999999  0.8109999999999999  1.0000
  C   C22       1.0  0.8826000000000002  0.8678199999999999  0.69196  1.0000
  N   N1        1.0  0.3491  0.43535999999999997  0.32048  1.0000
  N   N2        1.0  0.364  0.053469999999999976  0.69406  1.0000
  N   N3        1.0  0.8491  0.7558400000000001  0.67952  1.0000
  N   N4        1.0  0.8639999999999999  0.7475300000000001  0.30594  1.0000
  O   O1        1.0  0.5077000000000002  0.13779  0.40542  1.0000
  O   O2        1.0  0.7098000000000002  0.9632199999999999  0.39776  1.0000
  O   O3        1.0  0.007699999999999997  0.54321  0.59458  1.0000
  O   O4        1.0  0.20980000000000001  0.36097999999999986  0.60224  1.0000
