data_image0
_chemical_formula_structural       Cu6H18C54O24
_chemical_formula_sum              "Cu6 H18 C54 O24"
_cell_length_a       15.4506601
_cell_length_b       15.45338631
_cell_length_c       15.45734592
_cell_angle_alpha    74.73692769
_cell_angle_beta     74.74572959
_cell_angle_gamma    74.75708417

_space_group_name_H-M_alt    "P 1"
_space_group_IT_number       1

loop_
  _space_group_symop_operation_xyz
  'x, y, z'

loop_
  _atom_site_type_symbol
  _atom_site_label
  _atom_site_symmetry_multiplicity
  _atom_site_fract_x
  _atom_site_fract_y
  _atom_site_fract_z
  _atom_site_occupancy
  Cu  Cu1       1.0  0.99105363  0.9910636099999999  0.42572023  1.0000
  Cu  Cu2       1.0  0.42613188999999996  0.9911222199999999  0.9911233600000002  1.0000
  Cu  Cu3       1.0  0.9911339299999999  0.42625596999999993  0.9911444200000002  1.0000
  Cu  Cu4       1.0  0.008926909999999984  0.008916219999999997  0.57409684  1.0000
  Cu  Cu5       1.0  0.008868320000000039  0.5737346199999999  0.00885611  1.0000
  Cu  Cu6       1.0  0.5735717200000002  0.008843299999999998  0.008842020000000003  1.0000
  H   H1        1.0  0.9900252900000001  0.29740184  0.52770848  1.0000
  H   H2        1.0  0.5277401200000001  0.9900287499999998  0.29738416  1.0000
  H   H3        1.0  0.29738893  0.52770937  0.99002684  1.0000
  H   H4        1.0  0.702606  0.009977930000000003  0.47230843  1.0000
  H   H5        1.0  0.009974579999999983  0.47229747999999977  0.7026110500000002  1.0000
  H   H6        1.0  0.47227903000000004  0.7026116499999998  0.009974340000000003  1.0000
  H   H7        1.0  0.009977869999999982  0.70260623  0.4723106500000001  1.0000
  H   H8        1.0  0.4722815800000002  0.009974419999999984  0.702612  1.0000
  H   H9        1.0  0.70261047  0.47229285999999987  0.00997446  1.0000
  H   H10       1.0  0.29740062000000017  0.9900249999999996  0.52770951  1.0000
  H   H11       1.0  0.9900266500000001  0.5277047999999999  0.29738863  1.0000
  H   H12       1.0  0.5277439200000003  0.29738552999999995  0.9900291500000002  1.0000
  H   H13       1.0  0.9744333600000004  0.26454149  0.26454082  1.0000
  H   H14       1.0  0.26452921  0.97443302  0.26454007  1.0000
  H   H15       1.0  0.26451544000000005  0.2645267099999999  0.97443456  1.0000
  H   H16       1.0  0.7354893800000002  0.02556983000000001  0.7354921  1.0000
  H   H17       1.0  0.02556856999999995  0.7354591  0.73548226  1.0000
  H   H18       1.0  0.7355029699999999  0.73548214  0.02556723  1.0000
  C   C1        1.0  0.98173939  0.2712785299999999  0.40025260000000007  1.0000
  C   C2        1.0  0.98707008  0.3267559199999998  0.4561349000000001  1.0000
  C   C3        1.0  0.9839527900000001  0.17125418  0.4383001  1.0000
  C   C4        1.0  0.40016842000000014  0.9817824899999997  0.2714193  1.0000
  C   C5        1.0  0.45613979  0.98707894  0.32681609  1.0000
  C   C6        1.0  0.43823238000000003  0.98396362  0.17151894  1.0000
  C   C7        1.0  0.27131978  0.4002180199999999  0.9817618800000002  1.0000
  C   C8        1.0  0.32678739  0.4561269299999999  0.9870761500000002  1.0000
  C   C9        1.0  0.17142971000000007  0.4382343899999999  0.98396551  1.0000
  C   C10       1.0  0.72874058  0.01827075999999999  0.59975438  1.0000
  C   C11       1.0  0.67325522  0.012935479999999973  0.5438800800000001  1.0000
  C   C12       1.0  0.82876044  0.016051920000000004  0.56168799  1.0000
  C   C13       1.0  0.018233049999999983  0.59980455  0.7286465300000001  1.0000
  C   C14       1.0  0.012925039999999983  0.5438910599999999  0.67320812  1.0000
  C   C15       1.0  0.01603345000000002  0.56176929  0.82855288  1.0000
  C   C16       1.0  0.5998232300000003  0.72861649  0.01823301  1.0000
  C   C17       1.0  0.54387877  0.6731994799999997  0.01292366  1.0000
  C   C18       1.0  0.5618198200000001  0.8284975399999999  0.01605327  1.0000
  C   C19       1.0  0.01826843000000003  0.7287232999999997  0.59976836  1.0000
  C   C20       1.0  0.012935169999999972  0.6732543600000002  0.54388613  1.0000
  C   C21       1.0  0.01604919000000005  0.82874375  0.56168928  1.0000
  C   C22       1.0  0.59983793  0.018227209999999983  0.72859158  1.0000
  C   C23       1.0  0.5438882300000001  0.012923310000000009  0.67319382  1.0000
  C   C24       1.0  0.56183034  0.016053499999999995  0.82849038  1.0000
  C   C25       1.0  0.7286890400000001  0.59977641  0.018240830000000006  1.0000
  C   C26       1.0  0.67321441  0.5438759499999998  0.012925380000000004  1.0000
  C   C27       1.0  0.82857715  0.56175763  0.01603591  1.0000
  C   C28       1.0  0.27126791999999994  0.98173728  0.40025897  1.0000
  C   C29       1.0  0.3267550799999999  0.9870693799999999  0.4561408600000001  1.0000
  C   C30       1.0  0.1712422800000001  0.9839509399999999  0.4382999900000001  1.0000
  C   C31       1.0  0.9817694799999999  0.40018771  0.27136537  1.0000
  C   C32       1.0  0.9870769  0.45611146999999996  0.32679614000000007  1.0000
  C   C33       1.0  0.983968  0.4382210899999998  0.17145360000000007  1.0000
  C   C34       1.0  0.40019163999999996  0.27138552  0.98177682  1.0000
  C   C35       1.0  0.4561496  0.3268085  0.98707856  1.0000
  C   C36       1.0  0.43824595999999993  0.17150620999999994  0.9839628700000003  1.0000
  C   C37       1.0  0.98960605  0.4199347399999998  0.4199421700000001  1.0000
  C   C38       1.0  0.9965267  0.4759947199999998  0.47600906  1.0000
  C   C39       1.0  0.9783480799999998  0.30787575  0.30796027  1.0000
  C   C40       1.0  0.41994017  0.98960522  0.4199518200000001  1.0000
  C   C41       1.0  0.47600613999999997  0.9965254100000001  0.47601211  1.0000
  C   C42       1.0  0.3078600000000002  0.9783512399999998  0.30797965  1.0000
  C   C43       1.0  0.41995076  0.4199550000000001  0.98960469  1.0000
  C   C44       1.0  0.47600770000000003  0.4759997199999999  0.9965212100000003  1.0000
  C   C45       1.0  0.30789724999999996  0.3079326499999999  0.97835375  1.0000
  C   C46       1.0  0.58007367  0.01039625  0.58006385  1.0000
  C   C47       1.0  0.5240099700000002  0.003476170000000004  0.52399963  1.0000
  C   C48       1.0  0.69216711  0.021655430000000014  0.69204967  1.0000
  C   C49       1.0  0.010396459999999986  0.58007878  0.5800623  1.0000
  C   C50       1.0  0.003475820000000021  0.52401973  0.52399394  1.0000
  C   C51       1.0  0.021656600000000092  0.6921220099999996  0.69206653  1.0000
  C   C52       1.0  0.5800518400000002  0.5800587799999998  0.01039559  1.0000
  C   C53       1.0  0.52399597  0.52401081  0.00347994  1.0000
  C   C54       1.0  0.69213135  0.69206982  0.021650680000000005  1.0000
  O   O1        1.0  0.9779289600000001  0.12459836  0.38393129  1.0000
  O   O2        1.0  0.99368002  0.14113202999999996  0.52122253  1.0000
  O   O3        1.0  0.38399314000000007  0.9778472199999998  0.12464696  1.0000
  O   O4        1.0  0.52119759  0.9936054799999998  0.14113312  1.0000
  O   O5        1.0  0.12445303000000002  0.3840786399999998  0.9778947200000002  1.0000
  O   O6        1.0  0.14101961000000002  0.52122525  0.99361948  1.0000
  O   O7        1.0  0.87544063  0.022057980000000005  0.61604444  1.0000
  O   O8        1.0  0.8588341600000001  0.006331379999999991  0.47876194  1.0000
  O   O9        1.0  0.022104790000000006  0.6159214999999999  0.8754962600000002  1.0000
  O   O10       1.0  0.006379769999999989  0.47876896  0.85896723  1.0000
  O   O11       1.0  0.6159548000000001  0.8754339699999998  0.022124750000000006  1.0000
  O   O12       1.0  0.4787703100000001  0.8588203199999997  0.006413700000000001  1.0000
  O   O13       1.0  0.022056260000000064  0.8754196699999998  0.6160418  1.0000
  O   O14       1.0  0.006328300000000029  0.8588375199999998  0.4787576200000001  1.0000
  O   O15       1.0  0.61596289  0.022125699999999943  0.8754027800000003  1.0000
  O   O16       1.0  0.47877702  0.006416460000000002  0.8587983  1.0000
  O   O17       1.0  0.8755485600000001  0.6159159199999997  0.02210657  1.0000
  O   O18       1.0  0.8589829300000001  0.4787668299999999  0.00637976  1.0000
  O   O19       1.0  0.12457911000000006  0.9779288599999998  0.38392886  1.0000
  O   O20       1.0  0.14113493  0.9936790299999999  0.5212175300000002  1.0000
  O   O21       1.0  0.97789548  0.38407388999999986  0.12450469000000003  1.0000
  O   O22       1.0  0.9936210500000004  0.5212212499999997  0.14103846  1.0000
  O   O23       1.0  0.38400223  0.12461296999999998  0.9778455500000001  1.0000
  O   O24       1.0  0.5212063399999999  0.14111135000000002  0.99360686  1.0000
