data_image0
_chemical_formula_structural       Sc3H18C12O12
_chemical_formula_sum              "Sc3 H18 C12 O12"
_cell_length_a       7.91124182
_cell_length_b       7.91116458
_cell_length_c       12.309859499999998
_cell_angle_alpha    90.00352598999999
_cell_angle_beta     89.99642293
_cell_angle_gamma    119.98485881000002

_symmetry_space_group_name_H-M    'P 1'
_symmetry_Int_Tables_number       1

loop_
  _symmetry_equiv_pos_as_xyz
  'x,y,z'

loop_
  _atom_site_type_symbol
  _atom_site_label
  _atom_site_symmetry_multiplicity
  _atom_site_fract_x
  _atom_site_fract_y
  _atom_site_fract_z
  _atom_site_occupancy
  Sc  Sc1       1.0  0.38516949  0.99995203  0.6666204400000001  1.0000
  Sc  Sc2       1.0  0.99994746  0.38516842  0.3333801  1.0000
  Sc  Sc3       1.0  0.61464952  0.61464954  1.56e-06  1.0000
  H   H1        1.0  0.3614125899999998  0.3879379599999999  0.59821998  1.0000
  H   H2        1.0  0.2521288999999999  0.4524210399999999  0.70416981  1.0000
  H   H3        1.0  0.4904588699999999  0.6254899  0.6624965500000002  1.0000
  H   H4        1.0  0.6121423499999998  0.9733525899999999  0.2648697  1.0000
  H   H5        1.0  0.54765576  0.79964651  0.37082372000000013  1.0000
  H   H6        1.0  0.3746786599999998  0.8651303999999997  0.32922267  1.0000
  H   H7        1.0  0.026627979999999968  0.6387558199999999  0.9315389700000002  1.0000
  H   H8        1.0  0.20045194999999982  0.7480202999999997  0.03743686  1.0000
  H   H9        1.0  0.13506922999999985  0.5096066499999999  0.9958111400000002  1.0000
  H   H10       1.0  0.3879362  0.3614118899999999  0.4017769100000001  1.0000
  H   H11       1.0  0.45241909  0.25212704999999996  0.29582789000000004  1.0000
  H   H12       1.0  0.62548363  0.4904593999999999  0.33750000000000013  1.0000
  H   H13       1.0  0.9733545599999999  0.6121441299999998  0.7351299400000002  1.0000
  H   H14       1.0  0.7996473400000002  0.5476558  0.6291768  1.0000
  H   H15       1.0  0.86512719  0.37467528  0.6707796  1.0000
  H   H16       1.0  0.63875545  0.026623289999999997  0.06846085000000002  1.0000
  H   H17       1.0  0.74801959  0.20044805999999998  0.96256215  1.0000
  H   H18       1.0  0.50960959  0.13506924999999997  0.004189890000000001  1.0000
  C   C1        1.0  0.26233729  0.58720118  0.55263333  1.0000
  C   C2        1.0  0.34897214  0.5086207299999999  0.6330798  1.0000
  C   C3        1.0  0.41267113000000005  0.67513399  0.21931157000000007  1.0000
  C   C4        1.0  0.49144198  0.8403423299999998  0.2997620100000001  1.0000
  C   C5        1.0  0.3248642799999999  0.7375787799999998  0.8858921300000001  1.0000
  C   C6        1.0  0.15971551  0.65111662  0.96637069  1.0000
  C   C7        1.0  0.58719828  0.2623379599999999  0.4473667700000001  1.0000
  C   C8        1.0  0.50861662  0.34897165  0.36691748  1.0000
  C   C9        1.0  0.6751366799999999  0.4126744499999999  0.7806916000000003  1.0000
  C   C10       1.0  0.8403427099999999  0.4914420499999999  0.70023885  1.0000
  C   C11       1.0  0.7375806699999999  0.32486148999999986  0.11410646000000002  1.0000
  C   C12       1.0  0.65111814  0.15971325999999997  0.033629540000000006  1.0000
  O   O1        1.0  0.27970886  0.75446384  0.5675045400000001  1.0000
  O   O2        1.0  0.17178852  0.48229056  0.47096163000000013  1.0000
  O   O3        1.0  0.24541416  0.5253857799999999  0.23426063  1.0000
  O   O4        1.0  0.51737992  0.6894031  0.13755163  1.0000
  O   O5        1.0  0.47474654  0.72022286  0.90081883  1.0000
  O   O6        1.0  0.3104585499999999  0.8279769699999998  0.8041631500000002  1.0000
  O   O7        1.0  0.75445609  0.27970387999999996  0.43249182  1.0000
  O   O8        1.0  0.48229373  0.17180141  0.52904028  1.0000
  O   O9        1.0  0.52539078  0.24541899999999997  0.7657426900000002  1.0000
  O   O10       1.0  0.68941106  0.5173859899999997  0.8624505500000003  1.0000
  O   O11       1.0  0.72022681  0.47474847  0.09918211  1.0000
  O   O12       1.0  0.8279841599999999  0.31045833999999994  0.19583639000000003  1.0000
