data_image0
_chemical_formula_structural       Eu2H12C24N6O14
_chemical_formula_sum              "Eu2 H12 C24 N6 O14"
_cell_length_a       9.2236
_cell_length_b       10.3657
_cell_length_c       12.8839
_cell_angle_alpha    75.576
_cell_angle_beta     69.469
_cell_angle_gamma    86.16800000000002

_symmetry_space_group_name_H-M    'P 1'
_symmetry_Int_Tables_number       1

loop_
  _symmetry_equiv_pos_as_xyz
  'x,y,z'

loop_
  _atom_site_type_symbol
  _atom_site_label
  _atom_site_symmetry_multiplicity
  _atom_site_fract_x
  _atom_site_fract_y
  _atom_site_fract_z
  _atom_site_occupancy
  Eu  Eu1       1.0  0.9557399999999999  0.7508300000000001  0.9980299999999999  1.0000
  Eu  Eu2       1.0  0.044259999999999994  0.24917000000000003  0.00197  1.0000
  H   H1        1.0  0.37730000000000014  0.4323  0.6904999999999999  1.0000
  H   H2        1.0  0.1066  0.7454  0.6423  1.0000
  H   H3        1.0  0.24970000000000006  0.7875  0.4507  1.0000
  H   H4        1.0  0.9224000000000001  0.9349000000000002  0.6911999999999999  1.0000
  H   H5        1.0  0.1776  0.24840000000000007  0.6638  1.0000
  H   H6        1.0  0.2469  0.2881000000000001  0.4693  1.0000
  H   H7        1.0  0.6227  0.5677000000000001  0.3095  1.0000
  H   H8        1.0  0.8934000000000002  0.2546  0.3576999999999999  1.0000
  H   H9        1.0  0.7502999999999999  0.21250000000000002  0.5493  1.0000
  H   H10       1.0  0.07760000000000002  0.06510000000000005  0.30879999999999996  1.0000
  H   H11       1.0  0.8224  0.7515999999999999  0.3362  1.0000
  H   H12       1.0  0.7531  0.7119000000000001  0.5307  1.0000
  C   C1        1.0  0.1369  0.5546999999999999  0.8151  1.0000
  C   C2        1.0  0.4336  0.5397  0.5253  1.0000
  C   C3        1.0  0.3507  0.5061000000000001  0.6431  1.0000
  C   C4        1.0  0.22690000000000002  0.5855000000000002  0.6881999999999999  1.0000
  C   C5        1.0  0.1889  0.6915  0.6152  1.0000
  C   C6        1.0  0.277  0.7159000000000002  0.5  1.0000
  C   C7        1.0  0.9900999999999999  0.05590000000000006  0.8303999999999998  1.0000
  C   C8        1.0  0.031200000000000016  0.0398  0.5296  1.0000
  C   C9        1.0  0.9868999999999999  0.008500000000000023  0.6475  1.0000
  C   C10       1.0  0.03949999999999997  0.088  0.7002  1.0000
  C   C11       1.0  0.13870000000000002  0.19390000000000004  0.6316999999999999  1.0000
  C   C12       1.0  0.17900000000000005  0.21720000000000003  0.5147  1.0000
  C   C13       1.0  0.8631000000000002  0.4453  0.18489999999999995  1.0000
  C   C14       1.0  0.5664000000000001  0.4603000000000001  0.47469999999999996  1.0000
  C   C15       1.0  0.6493  0.4939  0.35689999999999994  1.0000
  C   C16       1.0  0.7731  0.41450000000000004  0.3118  1.0000
  C   C17       1.0  0.8111  0.30850000000000005  0.3848  1.0000
  C   C18       1.0  0.7229999999999999  0.28409999999999996  0.5  1.0000
  C   C19       1.0  0.009899999999999985  0.9441000000000002  0.1696  1.0000
  C   C20       1.0  0.9687999999999999  0.9602000000000002  0.47039999999999993  1.0000
  C   C21       1.0  0.013099999999999999  0.9915000000000002  0.3525  1.0000
  C   C22       1.0  0.9605  0.912  0.29979999999999996  1.0000
  C   C23       1.0  0.8613  0.8061000000000003  0.36829999999999996  1.0000
  C   C24       1.0  0.8210000000000001  0.7828000000000003  0.48529999999999995  1.0000
  N   N1        1.0  0.3973  0.6436000000000001  0.4546  1.0000
  N   N2        1.0  0.12609999999999993  0.14340000000000003  0.4625  1.0000
  N   N3        1.0  0.6236  0.7605  0.047499999999999994  1.0000
  N   N4        1.0  0.6026999999999998  0.35640000000000005  0.5454  1.0000
  N   N5        1.0  0.8739  0.8566  0.5375  1.0000
  N   N6        1.0  0.37640000000000007  0.23950000000000005  0.9524999999999999  1.0000
  O   O1        1.0  0.16770000000000004  0.4506  0.8755  1.0000
  O   O2        1.0  0.03699999999999999  0.6375  0.851  1.0000
  O   O3        1.0  0.9063999999999999  0.9545  0.8857  1.0000
  O   O4        1.0  0.03669999999999998  0.13560000000000003  0.8698  1.0000
  O   O5        1.0  0.7129000000000001  0.7211000000000003  0.9616999999999998  1.0000
  O   O6        1.0  0.6803  0.8027000000000001  0.1069  1.0000
  O   O7        1.0  0.48200000000000004  0.7569000000000001  0.0679  1.0000
  O   O8        1.0  0.8322999999999999  0.5494000000000001  0.1245  1.0000
  O   O9        1.0  0.963  0.36250000000000004  0.149  1.0000
  O   O10       1.0  0.0936  0.04550000000000001  0.1143  1.0000
  O   O11       1.0  0.9632999999999999  0.8644000000000001  0.1302  1.0000
  O   O12       1.0  0.2871000000000001  0.27890000000000004  0.0383  1.0000
  O   O13       1.0  0.31970000000000004  0.19730000000000006  0.8930999999999999  1.0000
  O   O14       1.0  0.518  0.24310000000000007  0.9320999999999998  1.0000
