data_image0
_chemical_formula_structural       Cu8H48C32N24O2
_chemical_formula_sum              "Cu8 H48 C32 N24 O2"
_cell_length_a       10.867017
_cell_length_b       20.031578
_cell_length_c       11.33766418
_cell_angle_alpha    90.0
_cell_angle_beta     96.43336901
_cell_angle_gamma    90.0

_space_group_name_H-M_alt    "P 1"
_space_group_IT_number       1

loop_
  _space_group_symop_operation_xyz
  'x, y, z'

loop_
  _atom_site_type_symbol
  _atom_site_label
  _atom_site_symmetry_multiplicity
  _atom_site_fract_x
  _atom_site_fract_y
  _atom_site_fract_z
  _atom_site_occupancy
  Cu  Cu1       1.0  0.006621629999999995  0.3551095999999999  0.97883668  1.0000
  Cu  Cu2       1.0  0.47726582  0.81270433  0.02175974  1.0000
  Cu  Cu3       1.0  0.9637365299999999  0.61988899  0.0036601299999999993  1.0000
  Cu  Cu4       1.0  0.46913866  0.19417242999999998  0.029156289999999998  1.0000
  Cu  Cu5       1.0  0.028839950000000007  0.44779735  0.50810651  1.0000
  Cu  Cu6       1.0  0.52224153  0.93703538  0.47561584  1.0000
  Cu  Cu7       1.0  0.009796590000000003  0.56656738  0.51986127  1.0000
  Cu  Cu8       1.0  0.51745474  0.06523305999999998  0.47863553999999997  1.0000
  H   H1        1.0  0.89398839  0.28495484  0.19205291999999996  1.0000
  H   H2        1.0  0.23830681  0.38003215  0.17422070999999997  1.0000
  H   H3        1.0  0.21573084  0.39363762  0.45685199  1.0000
  H   H4        1.0  0.3343379  0.35043728999999996  0.3889334699999999  1.0000
  H   H5        1.0  0.30451667  0.3086747799999999  0.59168596  1.0000
  H   H6        1.0  0.15017038  0.28593345  0.54138795  1.0000
  H   H7        1.0  0.42093863  0.91215048  0.21721263  1.0000
  H   H8        1.0  0.62098493  0.73322487  0.24046156  1.0000
  H   H9        1.0  0.72653626  0.8609298999999999  0.50177559  1.0000
  H   H10       1.0  0.80685581  0.81825671  0.39512558  1.0000
  H   H11       1.0  0.82668465  0.76178815  0.59458323  1.0000
  H   H12       1.0  0.66380797  0.7541340899999999  0.584613  1.0000
  H   H13       1.0  0.13701904  0.3936083  0.75747874  1.0000
  H   H14       1.0  0.75901825  0.36310363  0.7978354999999998  1.0000
  H   H15       1.0  0.77754558  0.4316094999999999  0.4939596399999999  1.0000
  H   H16       1.0  0.67120109  0.39571113999999996  0.58453922  1.0000
  H   H17       1.0  0.66846078  0.33463987  0.3940791699999999  1.0000
  H   H18       1.0  0.8302341900000001  0.31915024  0.4217025599999999  1.0000
  H   H19       1.0  0.61709073  0.7621456899999999  0.8148052099999997  1.0000
  H   H20       1.0  0.26154119  0.8472983999999999  0.80926204  1.0000
  H   H21       1.0  0.32376535  0.8739579099999999  0.5275648799999999  1.0000
  H   H22       1.0  0.1953188  0.8337105399999999  0.58451845  1.0000
  H   H23       1.0  0.23584607  0.78777459  0.38948505999999994  1.0000
  H   H24       1.0  0.38923764  0.76653701  0.44664214  1.0000
  H   H25       1.0  0.10041111000000001  0.58483455  0.78318381  1.0000
  H   H26       1.0  0.73836055  0.65107995  0.81433653  1.0000
  H   H27       1.0  0.7538112599999999  0.5800124599999998  0.51231941  1.0000
  H   H28       1.0  0.65205679  0.6289073999999999  0.59105238  1.0000
  H   H29       1.0  0.67402811  0.68072515  0.39970914  1.0000
  H   H30       1.0  0.8376202600000001  0.68314996  0.42830953  1.0000
  H   H31       1.0  0.61463656  0.24108783999999997  0.8207381899999999  1.0000
  H   H32       1.0  0.25784437  0.15750425999999998  0.81695055  1.0000
  H   H33       1.0  0.33262002  0.12232541  0.53742715  1.0000
  H   H34       1.0  0.1991638  0.15864058999999997  0.59225888  1.0000
  H   H35       1.0  0.23124498000000002  0.20492946999999995  0.3958887  1.0000
  H   H36       1.0  0.38454684000000006  0.22871013  0.44755598  1.0000
  H   H37       1.0  0.9179610900000001  0.73508067  0.18071519  1.0000
  H   H38       1.0  0.14753354  0.5646850499999999  0.22722086999999996  1.0000
  H   H39       1.0  0.22809651999999997  0.59918233  0.4545605999999999  1.0000
  H   H40       1.0  0.33028516  0.64807445  0.37541562999999994  1.0000
  H   H41       1.0  0.31057765  0.6854518  0.5865854299999999  1.0000
  H   H42       1.0  0.15548271  0.70845583  0.54117528  1.0000
  H   H43       1.0  0.42670093  0.08811849  0.21760004  1.0000
  H   H44       1.0  0.65079842  0.25703227  0.24088241999999996  1.0000
  H   H45       1.0  0.70379995  0.15399619  0.51840065  1.0000
  H   H46       1.0  0.7858682799999999  0.19096054  0.4070642399999999  1.0000
  H   H47       1.0  0.79873759  0.25352301  0.60243799  1.0000
  H   H48       1.0  0.63673987  0.26686151  0.57836886  1.0000
  C   C1        1.0  0.98576762  0.30546601999999995  0.21619366  1.0000
  C   C2        1.0  0.16030244  0.35391678  0.20407492  1.0000
  C   C3        1.0  0.24260133000000003  0.34502643999999993  0.4203204299999999  1.0000
  C   C4        1.0  0.24377342  0.29059853  0.51398543  1.0000
  C   C5        1.0  0.48537673  0.87315312  0.24944114  1.0000
  C   C6        1.0  0.608667  0.78658427  0.25329906  1.0000
  C   C7        1.0  0.72855689  0.8147262399999999  0.4493592999999999  1.0000
  C   C8        1.0  0.74278618  0.75444157  0.531947  1.0000
  C   C9        1.0  0.03817307  0.3862331  0.73759925  1.0000
  C   C10       1.0  0.84524583  0.36919297999999995  0.7599551299999999  1.0000
  C   C11       1.0  0.7577219000000001  0.38648174  0.5447789  1.0000
  C   C12       1.0  0.7448233900000001  0.32483994  0.46453069  1.0000
  C   C13       1.0  0.52552329  0.78112957  0.7843367899999999  1.0000
  C   C14       1.0  0.34498866  0.82423123  0.7845043099999998  1.0000
  C   C15       1.0  0.28993154  0.8263638799999999  0.5613951  1.0000
  C   C16       1.0  0.29389351  0.7711449  0.46959009  1.0000
  C   C17       1.0  0.00538458999999998  0.60107486  0.7618337099999998  1.0000
  C   C18       1.0  0.8113635599999999  0.62353469  0.77754644  1.0000
  C   C19       1.0  0.74306268  0.62870314  0.55683676  1.0000
  C   C20       1.0  0.75122501  0.6868338  0.47056789  1.0000
  C   C21       1.0  0.52359709  0.22131730999999996  0.7906633799999999  1.0000
  C   C22       1.0  0.34254934  0.17883956  0.79162928  1.0000
  C   C23       1.0  0.29262204  0.16916339  0.56867445  1.0000
  C   C24       1.0  0.29075741000000005  0.22332809999999997  0.47404836  1.0000
  C   C25       1.0  0.9908656600000002  0.70068036  0.21428368  1.0000
  C   C26       1.0  0.10816599  0.6141359499999999  0.23306835999999997  1.0000
  C   C27       1.0  0.24321400999999995  0.6489049299999999  0.4167505599999999  1.0000
  C   C28       1.0  0.24767505  0.70361374  0.5103986999999999  1.0000
  C   C29       1.0  0.48133389  0.13031466999999997  0.25337159  1.0000
  C   C30       1.0  0.57416001  0.22799248999999996  0.26954279  1.0000
  C   C31       1.0  0.706114  0.19749293  0.4593617499999999  1.0000
  C   C32       1.0  0.72056227  0.26139344  0.53310865  1.0000
  N   N1        1.0  0.05278863000000001  0.33761263  0.13780937999999998  1.0000
  N   N2        1.0  0.043816509999999996  0.30117324  0.32491070999999994  1.0000
  N   N3        1.0  0.15529021  0.33126817  0.31572819  1.0000
  N   N4        1.0  0.51849189  0.822101  0.1822558  1.0000
  N   N5        1.0  0.54092933  0.8729171999999997  0.3602514899999999  1.0000
  N   N6        1.0  0.61300749  0.8134258599999998  0.36926578  1.0000
  N   N7        1.0  0.96089519  0.37219004999999994  0.81990918  1.0000
  N   N8        1.0  0.97931747  0.39298264  0.62707171  1.0000
  N   N9        1.0  0.8546805200000002  0.37988803  0.64178886  1.0000
  N   N10       1.0  0.44495409  0.80533378  0.85877562  1.0000
  N   N11       1.0  0.48149256000000007  0.78378846  0.67085427  1.0000
  N   N12       1.0  0.3669233  0.81096887  0.67224808  1.0000
  N   N13       1.0  0.92457392  0.61020783  0.8421669799999998  1.0000
  N   N14       1.0  0.9559449600000001  0.6102477  0.64903936  1.0000
  N   N15       1.0  0.8345323199999999  0.6332801899999999  0.6595791  1.0000
  N   N16       1.0  0.44154349000000004  0.19962426  0.86565664  1.0000
  N   N17       1.0  0.48186713  0.21524799  0.67697702  1.0000
  N   N18       1.0  0.36701827000000004  0.18832789  0.67877789  1.0000
  N   N19       1.0  0.01372861  0.6409057  0.16099274  1.0000
  N   N20       1.0  0.06684035999999999  0.71223654  0.31152583999999994  1.0000
  N   N21       1.0  0.14151084  0.6574755199999999  0.32098604  1.0000
  N   N22       1.0  0.5054218  0.18479596  0.19008119  1.0000
  N   N23       1.0  0.53064714  0.13159034  0.36610469  1.0000
  N   N24       1.0  0.59055553  0.19493279  0.3806471899999999  1.0000
  O   O1        1.0  0.07340195  0.51338597  0.41229899999999997  1.0000
  O   O2        1.0  0.49381134  0.9999347499999999  0.5802090699999999  1.0000
