data_image0
_chemical_formula_structural       Zn4H44C88O16
_chemical_formula_sum              "Zn4 H44 C88 O16"
_cell_length_a       13.45825
_cell_length_b       15.67643
_cell_length_c       11.40497
_cell_angle_alpha    90.0
_cell_angle_beta     100.79997
_cell_angle_gamma    90.0

_symmetry_space_group_name_H-M    'P 1'
_symmetry_Int_Tables_number       1

loop_
  _symmetry_equiv_pos_as_xyz
  'x,y,z'

loop_
  _atom_site_type_symbol
  _atom_site_label
  _atom_site_symmetry_multiplicity
  _atom_site_fract_x
  _atom_site_fract_y
  _atom_site_fract_z
  _atom_site_occupancy
  Zn  Zn1       1.0  0.19201  0.4999999999999999  0.07764  1.0000
  Zn  Zn2       1.0  0.3079899999999999  0.4999999999999999  0.92236  1.0000
  Zn  Zn3       1.0  0.8079899999999998  0.4999999999999999  0.92236  1.0000
  Zn  Zn4       1.0  0.69201  0.4999999999999999  0.07764  1.0000
  H   H1        1.0  0.28989999999999994  0.2653  0.2722  1.0000
  H   H2        1.0  0.37903  0.13360999999999995  0.35790000000000005  1.0000
  H   H3        1.0  0.4458899999999999  0.0  0.23519  1.0000
  H   H4        1.0  0.28989999999999994  0.73471  0.2722  1.0000
  H   H5        1.0  0.37903  0.8663899999999998  0.35790000000000005  1.0000
  H   H6        1.0  0.2101  0.2653  0.72781  1.0000
  H   H7        1.0  0.12096999999999997  0.13360999999999995  0.6421  1.0000
  H   H8        1.0  0.054109999999999984  0.0  0.76482  1.0000
  H   H9        1.0  0.2101  0.73471  0.72781  1.0000
  H   H10       1.0  0.12096999999999997  0.8663899999999998  0.6421  1.0000
  H   H11       1.0  0.63284  0.19821999999999995  0.19515  1.0000
  H   H12       1.0  0.541  0.3263799999999999  0.10306  1.0000
  H   H13       1.0  0.66986  0.21734  0.42822000000000005  1.0000
  H   H14       1.0  0.8671599999999997  0.19821999999999995  0.80485  1.0000
  H   H15       1.0  0.9589999999999999  0.3263799999999999  0.89694  1.0000
  H   H16       1.0  0.8301399999999998  0.21734  0.57178  1.0000
  H   H17       1.0  0.8671599999999997  0.8017799999999998  0.80485  1.0000
  H   H18       1.0  0.9589999999999999  0.6736199999999998  0.89694  1.0000
  H   H19       1.0  0.8301399999999998  0.78266  0.57178  1.0000
  H   H20       1.0  0.63284  0.8017799999999998  0.19515  1.0000
  H   H21       1.0  0.541  0.6736199999999998  0.10306  1.0000
  H   H22       1.0  0.66986  0.78266  0.42822000000000005  1.0000
  H   H23       1.0  0.13283999999999999  0.19821999999999995  0.19515  1.0000
  H   H24       1.0  0.04099999999999999  0.3263799999999999  0.10306  1.0000
  H   H25       1.0  0.16985999999999998  0.21734  0.42822000000000005  1.0000
  H   H26       1.0  0.3671599999999999  0.19821999999999995  0.80485  1.0000
  H   H27       1.0  0.459  0.3263799999999999  0.89694  1.0000
  H   H28       1.0  0.33013999999999993  0.21734  0.57178  1.0000
  H   H29       1.0  0.3671599999999999  0.8017799999999998  0.80485  1.0000
  H   H30       1.0  0.459  0.6736199999999998  0.89694  1.0000
  H   H31       1.0  0.33013999999999993  0.78266  0.57178  1.0000
  H   H32       1.0  0.13283999999999999  0.8017799999999998  0.19515  1.0000
  H   H33       1.0  0.04099999999999999  0.6736199999999998  0.10306  1.0000
  H   H34       1.0  0.16985999999999998  0.78266  0.42822000000000005  1.0000
  H   H35       1.0  0.7898999999999998  0.2653  0.27219  1.0000
  H   H36       1.0  0.87903  0.13360999999999995  0.35790000000000005  1.0000
  H   H37       1.0  0.9458899999999999  0.0  0.23519  1.0000
  H   H38       1.0  0.7898999999999998  0.73471  0.27219  1.0000
  H   H39       1.0  0.87903  0.8663899999999998  0.35790000000000005  1.0000
  H   H40       1.0  0.7100999999999997  0.2653  0.7278  1.0000
  H   H41       1.0  0.6209699999999998  0.13360999999999995  0.6421  1.0000
  H   H42       1.0  0.5541099999999998  0.0  0.76482  1.0000
  H   H43       1.0  0.7100999999999997  0.73471  0.7278  1.0000
  H   H44       1.0  0.6209699999999998  0.8663899999999998  0.6421  1.0000
  C   C1        1.0  0.35285  0.37885  0.12367  1.0000
  C   C2        1.0  0.4096299999999999  0.3039099999999999  0.18232000000000004  1.0000
  C   C3        1.0  0.36458  0.24962999999999994  0.25505  1.0000
  C   C4        1.0  0.41470999999999997  0.17628999999999995  0.30313  1.0000
  C   C5        1.0  0.35285  0.6211499999999998  0.12367  1.0000
  C   C6        1.0  0.4096299999999999  0.69609  0.18232000000000004  1.0000
  C   C7        1.0  0.36458  0.7503699999999998  0.25505  1.0000
  C   C8        1.0  0.41470999999999997  0.8237099999999998  0.30313  1.0000
  C   C9        1.0  0.14715  0.37885  0.8763300000000002  1.0000
  C   C10       1.0  0.09036999999999998  0.3039099999999999  0.81768  1.0000
  C   C11       1.0  0.13541999999999998  0.24962999999999994  0.74495  1.0000
  C   C12       1.0  0.08528999999999999  0.17628999999999995  0.69687  1.0000
  C   C13       1.0  0.14715  0.6211499999999998  0.8763300000000002  1.0000
  C   C14       1.0  0.09036999999999998  0.69609  0.81768  1.0000
  C   C15       1.0  0.13541999999999998  0.7503699999999998  0.74495  1.0000
  C   C16       1.0  0.08528999999999999  0.8237099999999998  0.69687  1.0000
  C   C17       1.0  0.51233  0.15748  0.28357  1.0000
  C   C18       1.0  0.55796  0.21306999999999995  0.21258  1.0000
  C   C19       1.0  0.50669  0.2849699999999999  0.16094  1.0000
  C   C20       1.0  0.5635599999999998  0.07819999999999998  0.33356  1.0000
  C   C21       1.0  0.51768  0.0  0.29774  1.0000
  C   C22       1.0  0.6572999999999998  0.07932999999999997  0.41473  1.0000
  C   C23       1.0  0.70366  0.0  0.45725000000000005  1.0000
  C   C24       1.0  0.7056699999999998  0.15722  0.45932  1.0000
  C   C25       1.0  0.9876599999999999  0.15748  0.71643  1.0000
  C   C26       1.0  0.94204  0.21306999999999995  0.78742  1.0000
  C   C27       1.0  0.9932999999999997  0.2849699999999999  0.8390600000000001  1.0000
  C   C28       1.0  0.9364299999999999  0.07819999999999998  0.66644  1.0000
  C   C29       1.0  0.9823199999999999  0.0  0.70226  1.0000
  C   C30       1.0  0.8426999999999998  0.07932999999999997  0.58528  1.0000
  C   C31       1.0  0.79633  0.0  0.54275  1.0000
  C   C32       1.0  0.7943299999999998  0.15722  0.54069  1.0000
  C   C33       1.0  0.9876599999999999  0.8425299999999998  0.71643  1.0000
  C   C34       1.0  0.94204  0.78693  0.78742  1.0000
  C   C35       1.0  0.9932999999999997  0.7150299999999998  0.8390600000000001  1.0000
  C   C36       1.0  0.9364299999999999  0.9218099999999998  0.66644  1.0000
  C   C37       1.0  0.8426999999999998  0.92067  0.58528  1.0000
  C   C38       1.0  0.7943299999999998  0.8427799999999998  0.54069  1.0000
  C   C39       1.0  0.51233  0.8425299999999998  0.28357  1.0000
  C   C40       1.0  0.55796  0.78693  0.21258  1.0000
  C   C41       1.0  0.50669  0.7150299999999998  0.16094  1.0000
  C   C42       1.0  0.5635599999999998  0.9218099999999998  0.33356  1.0000
  C   C43       1.0  0.6572999999999998  0.92067  0.41473  1.0000
  C   C44       1.0  0.7056699999999998  0.8427799999999998  0.45932  1.0000
  C   C45       1.0  0.01233  0.15748  0.28357  1.0000
  C   C46       1.0  0.057959999999999984  0.21306999999999995  0.21259000000000003  1.0000
  C   C47       1.0  0.006699999999999997  0.2849699999999999  0.16094  1.0000
  C   C48       1.0  0.06356  0.07819999999999998  0.33356  1.0000
  C   C49       1.0  0.01767999999999999  0.0  0.29774  1.0000
  C   C50       1.0  0.15729999999999994  0.07932999999999997  0.41473  1.0000
  C   C51       1.0  0.20366  0.0  0.45725000000000005  1.0000
  C   C52       1.0  0.20567  0.15722  0.45932  1.0000
  C   C53       1.0  0.48767  0.15748  0.71644  1.0000
  C   C54       1.0  0.44204  0.21306999999999995  0.78742  1.0000
  C   C55       1.0  0.49329999999999996  0.2849699999999999  0.8390600000000001  1.0000
  C   C56       1.0  0.43644  0.07819999999999998  0.66645  1.0000
  C   C57       1.0  0.48232  0.0  0.70226  1.0000
  C   C58       1.0  0.3427  0.07932999999999997  0.58528  1.0000
  C   C59       1.0  0.29633  0.0  0.54275  1.0000
  C   C60       1.0  0.29433  0.15722  0.54069  1.0000
  C   C61       1.0  0.48765999999999987  0.8425299999999998  0.71644  1.0000
  C   C62       1.0  0.44204  0.78693  0.78742  1.0000
  C   C63       1.0  0.49329999999999996  0.7150299999999998  0.8390600000000001  1.0000
  C   C64       1.0  0.43644  0.9218099999999998  0.66645  1.0000
  C   C65       1.0  0.3427  0.92067  0.58528  1.0000
  C   C66       1.0  0.29433  0.8427799999999998  0.54069  1.0000
  C   C67       1.0  0.01233  0.8425299999999998  0.28357  1.0000
  C   C68       1.0  0.057959999999999984  0.78693  0.21259000000000003  1.0000
  C   C69       1.0  0.006699999999999997  0.7150299999999998  0.16094  1.0000
  C   C70       1.0  0.06356  0.9218099999999998  0.33356  1.0000
  C   C71       1.0  0.15729999999999994  0.92067  0.41473  1.0000
  C   C72       1.0  0.20567  0.8427799999999998  0.45932  1.0000
  C   C73       1.0  0.8528499999999999  0.37885  0.12366000000000002  1.0000
  C   C74       1.0  0.9096299999999998  0.3039099999999999  0.18232000000000004  1.0000
  C   C75       1.0  0.8645799999999997  0.24962999999999994  0.25505  1.0000
  C   C76       1.0  0.9146999999999998  0.17628999999999995  0.30313  1.0000
  C   C77       1.0  0.8528499999999999  0.6211499999999998  0.12366000000000002  1.0000
  C   C78       1.0  0.9096299999999998  0.69609  0.18232000000000004  1.0000
  C   C79       1.0  0.8645799999999997  0.7503699999999998  0.25505  1.0000
  C   C80       1.0  0.9146999999999998  0.8237099999999998  0.30313  1.0000
  C   C81       1.0  0.64715  0.37885  0.8763300000000002  1.0000
  C   C82       1.0  0.5903699999999997  0.3039099999999999  0.81768  1.0000
  C   C83       1.0  0.63542  0.24962999999999994  0.74495  1.0000
  C   C84       1.0  0.58529  0.17628999999999995  0.69687  1.0000
  C   C85       1.0  0.64715  0.6211499999999998  0.8763300000000002  1.0000
  C   C86       1.0  0.5903699999999997  0.69609  0.81768  1.0000
  C   C87       1.0  0.63542  0.7503699999999998  0.74495  1.0000
  C   C88       1.0  0.58529  0.8237099999999998  0.69687  1.0000
  O   O1        1.0  0.27572  0.4047099999999999  0.16519  1.0000
  O   O2        1.0  0.3845699999999999  0.41122  0.03426  1.0000
  O   O3        1.0  0.27572  0.5952899999999998  0.16519  1.0000
  O   O4        1.0  0.3845699999999999  0.5887899999999998  0.03426  1.0000
  O   O5        1.0  0.22429  0.4047099999999999  0.8348100000000002  1.0000
  O   O6        1.0  0.11543000000000003  0.41122  0.9657300000000001  1.0000
  O   O7        1.0  0.22429  0.5952899999999998  0.8348100000000002  1.0000
  O   O8        1.0  0.11543000000000003  0.5887899999999998  0.9657300000000001  1.0000
  O   O9        1.0  0.7757099999999999  0.4047099999999999  0.16519  1.0000
  O   O10       1.0  0.8845699999999997  0.41122  0.03426  1.0000
  O   O11       1.0  0.7757099999999999  0.5952899999999998  0.16519  1.0000
  O   O12       1.0  0.8845699999999997  0.5887899999999998  0.03426  1.0000
  O   O13       1.0  0.72428  0.4047099999999999  0.8348100000000002  1.0000
  O   O14       1.0  0.61543  0.41122  0.9657300000000001  1.0000
  O   O15       1.0  0.72428  0.5952899999999998  0.8348100000000002  1.0000
  O   O16       1.0  0.61543  0.5887899999999998  0.9657300000000001  1.0000
