# generated using pymatgen
data_CuH2(C3O2)2
_symmetry_space_group_name_H-M   'P 1'
_cell_length_a   18.70433077
_cell_length_b   18.70417968
_cell_length_c   18.70452412
_cell_angle_alpha   59.99556775
_cell_angle_beta   59.99949014
_cell_angle_gamma   59.99834083
_symmetry_Int_Tables_number   1
_chemical_formula_structural   CuH2(C3O2)2
_chemical_formula_sum   'Cu12 H24 C72 O48'
_cell_volume   4626.90770878
_cell_formula_units_Z   12
loop_
 _symmetry_equiv_pos_site_id
 _symmetry_equiv_pos_as_xyz
  1  'x, y, z'
loop_
 _atom_site_type_symbol
 _atom_site_label
 _atom_site_symmetry_multiplicity
 _atom_site_fract_x
 _atom_site_fract_y
 _atom_site_fract_z
 _atom_site_occupancy
  Cu  Cu1  1  0.00000000  0.00000383  0.43423428  1.0
  Cu  Cu2  1  0.00000232  0.56571571  0.99999467  1.0
  Cu  Cu3  1  0.43417736  0.99999824  0.99999816  1.0
  Cu  Cu4  1  0.56573797  0.00000083  0.43425995  1.0
  Cu  Cu5  1  0.00000251  0.43411630  0.56588021  1.0
  Cu  Cu6  1  0.43418057  0.56582400  0.99999724  1.0
  Cu  Cu7  1  0.56576040  0.00000064  0.00000047  1.0
  Cu  Cu8  1  0.00000063  0.43415998  0.00000425  1.0
  Cu  Cu9  1  0.00000205  0.99999619  0.56581789  1.0
  Cu  Cu10  1  0.56577882  0.43421876  0.00000062  1.0
  Cu  Cu11  1  0.43418307  0.99999998  0.56581917  1.0
  Cu  Cu12  1  0.99999969  0.56566224  0.43433823  1.0
  H  H1  1  0.50352783  0.73389764  0.02868259  1.0
  H  H2  1  0.97131790  0.26610761  0.49647664  1.0
  H  H3  1  0.49647777  0.97131671  0.26610269  1.0
  H  H4  1  0.73390129  0.02868271  0.50351362  1.0
  H  H5  1  0.73390476  0.50351986  0.02868237  1.0
  H  H6  1  0.26610944  0.97131709  0.26610366  1.0
  H  H7  1  0.02868280  0.73392912  0.50349672  1.0
  H  H8  1  0.26611261  0.49649592  0.26607464  1.0
  H  H9  1  0.26610518  0.26610838  0.97131650  1.0
  H  H10  1  0.97131815  0.49650439  0.26608127  1.0
  H  H11  1  0.73389104  0.73392957  0.50349653  1.0
  H  H12  1  0.49647451  0.26610315  0.26610572  1.0
  H  H13  1  0.50353373  0.02868369  0.73388658  1.0
  H  H14  1  0.26610970  0.49648772  0.97131679  1.0
  H  H15  1  0.49647377  0.26610380  0.97131668  1.0
  H  H16  1  0.02868379  0.50352056  0.73389679  1.0
  H  H17  1  0.26610540  0.26610371  0.49647486  1.0
  H  H18  1  0.26610939  0.97131693  0.49647600  1.0
  H  H19  1  0.73389528  0.02868248  0.73389305  1.0
  H  H20  1  0.73390340  0.50352487  0.73388861  1.0
  H  H21  1  0.73388953  0.73391287  0.02868212  1.0
  H  H22  1  0.97131805  0.26611125  0.26610004  1.0
  H  H23  1  0.50353459  0.73389831  0.73388361  1.0
  H  H24  1  0.02868297  0.73391110  0.73388459  1.0
  C  C1  1  0.02946849  0.74315001  0.61368309  1.0
  C  C2  1  0.02964521  0.57036328  0.69998732  1.0
  C  C3  1  0.61370971  0.02947207  0.74311072  1.0
  C  C4  1  0.02393606  0.56944096  0.56952807  1.0
  C  C5  1  0.02964183  0.70003404  0.57034049  1.0
  C  C6  1  0.74312473  0.02946690  0.61369444  1.0
  C  C7  1  0.57036780  0.69999706  0.69999019  1.0
  C  C8  1  0.43052751  0.16287013  0.97606247  1.0
  C  C9  1  0.30002293  0.42965049  0.97035777  1.0
  C  C10  1  0.97035802  0.42966357  0.29998778  1.0
  C  C11  1  0.97053761  0.38631222  0.38626205  1.0
  C  C12  1  0.56945994  0.02392630  0.56946631  1.0
  C  C13  1  0.02946469  0.61374809  0.61369532  1.0
  C  C14  1  0.70000427  0.57036960  0.69998331  1.0
  C  C15  1  0.97035875  0.30001733  0.42963335  1.0
  C  C16  1  0.61370886  0.02947330  0.61369483  1.0
  C  C17  1  0.61369830  0.74312665  0.02947137  1.0
  C  C18  1  0.16287484  0.97606224  0.43053610  1.0
  C  C19  1  0.56945271  0.83715556  0.56946616  1.0
  C  C20  1  0.57036658  0.02964623  0.69998713  1.0
  C  C21  1  0.70000167  0.02964072  0.69998827  1.0
  C  C22  1  0.42963286  0.30001586  0.97035661  1.0
  C  C23  1  0.61370308  0.74312962  0.61369329  1.0
  C  C24  1  0.30002338  0.42965270  0.29996645  1.0
  C  C25  1  0.56946095  0.83713636  0.02393628  1.0
  C  C26  1  0.29999665  0.30001294  0.42963684  1.0
  C  C27  1  0.25688392  0.97053208  0.38629464  1.0
  C  C28  1  0.16291165  0.43046728  0.43055561  1.0
  C  C29  1  0.30000086  0.30001049  0.97035600  1.0
  C  C30  1  0.69999794  0.57036181  0.02964194  1.0
  C  C31  1  0.56947690  0.56947285  0.83711647  1.0
  C  C32  1  0.83712944  0.02393796  0.56946453  1.0
  C  C33  1  0.43053298  0.43053747  0.97606514  1.0
  C  C34  1  0.97053758  0.38630599  0.25689688  1.0
  C  C35  1  0.38629614  0.25689211  0.97052718  1.0
  C  C36  1  0.83709195  0.56944729  0.56952800  1.0
  C  C37  1  0.43052785  0.97606333  0.16287412  1.0
  C  C38  1  0.38631226  0.38630277  0.25685606  1.0
  C  C39  1  0.97605929  0.43048111  0.16290777  1.0
  C  C40  1  0.43052120  0.16285636  0.43054876  1.0
  C  C41  1  0.43053179  0.43053421  0.16286842  1.0
  C  C42  1  0.30000607  0.97035651  0.42963997  1.0
  C  C43  1  0.97053298  0.25689437  0.38628965  1.0
  C  C44  1  0.02964073  0.70002655  0.69997254  1.0
  C  C45  1  0.02394212  0.56944531  0.83707993  1.0
  C  C46  1  0.83708462  0.56945279  0.02394003  1.0
  C  C47  1  0.38630015  0.97052672  0.38629624  1.0
  C  C48  1  0.43052615  0.97607443  0.43054726  1.0
  C  C49  1  0.56946810  0.02393664  0.83712196  1.0
  C  C50  1  0.02393949  0.83714663  0.56945499  1.0
  C  C51  1  0.74308856  0.61373908  0.02946262  1.0
  C  C52  1  0.38631329  0.38630399  0.97052991  1.0
  C  C53  1  0.61370904  0.61369353  0.02947008  1.0
  C  C54  1  0.42963836  0.30001401  0.29999239  1.0
  C  C55  1  0.69999113  0.70002823  0.57033538  1.0
  C  C56  1  0.38628929  0.25689591  0.38628865  1.0
  C  C57  1  0.74309914  0.61374730  0.61369053  1.0
  C  C58  1  0.97035940  0.30001273  0.29999660  1.0
  C  C59  1  0.69998555  0.70002067  0.02964127  1.0
  C  C60  1  0.02946419  0.61374427  0.74307527  1.0
  C  C61  1  0.97606153  0.16286978  0.43054049  1.0
  C  C62  1  0.70000569  0.02964332  0.57034900  1.0
  C  C63  1  0.57036598  0.69999154  0.02964267  1.0
  C  C64  1  0.25691251  0.38630151  0.97053692  1.0
  C  C65  1  0.42964397  0.97035400  0.30000154  1.0
  C  C66  1  0.25690780  0.38630507  0.38624981  1.0
  C  C67  1  0.16291644  0.43047872  0.97605870  1.0
  C  C68  1  0.61371739  0.61370088  0.74311125  1.0
  C  C69  1  0.38630401  0.97052779  0.25688123  1.0
  C  C70  1  0.97606614  0.43047422  0.43056044  1.0
  C  C71  1  0.30000713  0.97035874  0.30000261  1.0
  C  C72  1  0.56947106  0.56946597  0.02393362  1.0
  O  O1  1  0.50816781  0.12640479  0.97926642  1.0
  O  O2  1  0.97926073  0.12644176  0.50817907  1.0
  O  O3  1  0.49183155  0.02073573  0.61384515  1.0
  O  O4  1  0.61383026  0.87360883  0.49183607  1.0
  O  O5  1  0.02075780  0.61386994  0.87349700  1.0
  O  O6  1  0.49184027  0.87356499  0.02073942  1.0
  O  O7  1  0.49184432  0.02073896  0.87356014  1.0
  O  O8  1  0.49186555  0.61384578  0.87355248  1.0
  O  O9  1  0.97926513  0.12643023  0.38613362  1.0
  O  O10  1  0.50817175  0.38616493  0.97926684  1.0
  O  O11  1  0.38615655  0.50815100  0.12643075  1.0
  O  O12  1  0.61384226  0.49183137  0.87359551  1.0
  O  O13  1  0.61384055  0.49182867  0.02072955  1.0
  O  O14  1  0.38614464  0.12644068  0.97925770  1.0
  O  O15  1  0.02073448  0.87359070  0.49180824  1.0
  O  O16  1  0.97923611  0.38611900  0.50815018  1.0
  O  O17  1  0.50815848  0.97927541  0.38617360  1.0
  O  O18  1  0.87353657  0.61384913  0.49187349  1.0
  O  O19  1  0.12649369  0.38612244  0.50814980  1.0
  O  O20  1  0.49185737  0.61384349  0.02073499  1.0
  O  O21  1  0.02074142  0.87355673  0.61387476  1.0
  O  O22  1  0.38615385  0.97926752  0.50817236  1.0
  O  O23  1  0.12646755  0.50812594  0.38615434  1.0
  O  O24  1  0.49183039  0.87358750  0.61384742  1.0
  O  O25  1  0.87351988  0.61386567  0.02075151  1.0
  O  O26  1  0.38615786  0.50815023  0.97926325  1.0
  O  O27  1  0.12650100  0.38611485  0.97923777  1.0
  O  O28  1  0.02076128  0.49184194  0.87349814  1.0
  O  O29  1  0.61382577  0.02072468  0.49183722  1.0
  O  O30  1  0.87359180  0.02073397  0.49181565  1.0
  O  O31  1  0.02076589  0.49184972  0.61388453  1.0
  O  O32  1  0.87351013  0.49185207  0.61387645  1.0
  O  O33  1  0.61383436  0.02073466  0.87359542  1.0
  O  O34  1  0.50816866  0.97926763  0.12640164  1.0
  O  O35  1  0.12647825  0.50814426  0.97924281  1.0
  O  O36  1  0.97923675  0.38610994  0.12650433  1.0
  O  O37  1  0.02074619  0.61385248  0.49187544  1.0
  O  O38  1  0.38614643  0.12641297  0.50817519  1.0
  O  O39  1  0.87356504  0.02073898  0.61386753  1.0
  O  O40  1  0.38614934  0.97925847  0.12643664  1.0
  O  O41  1  0.12641584  0.97926799  0.38614266  1.0
  O  O42  1  0.87350365  0.49184853  0.02076038  1.0
  O  O43  1  0.97924359  0.50814517  0.12648281  1.0
  O  O44  1  0.50816678  0.38616392  0.12640197  1.0
  O  O45  1  0.12643425  0.97926156  0.50817698  1.0
  O  O46  1  0.61383916  0.87359559  0.02073402  1.0
  O  O47  1  0.50814880  0.12640583  0.38617213  1.0
  O  O48  1  0.97925466  0.50812872  0.38614780  1.0
