data_image0
_chemical_formula_structural       Ga4H16C32O20
_chemical_formula_sum              "Ga4 H16 C32 O20"
_cell_length_a       12.0426
_cell_length_b       12.28788
_cell_length_c       12.28064
_cell_angle_alpha    76.12925000000001
_cell_angle_beta     60.67410000000001
_cell_angle_gamma    60.69786

_symmetry_space_group_name_H-M    'P 1'
_symmetry_Int_Tables_number       1

loop_
  _symmetry_equiv_pos_as_xyz
  'x,y,z'

loop_
  _atom_site_type_symbol
  _atom_site_label
  _atom_site_symmetry_multiplicity
  _atom_site_fract_x
  _atom_site_fract_y
  _atom_site_fract_z
  _atom_site_occupancy
  Ga  Ga1       1.0  0.19000000000000006  0.61854  0.99997  1.0000
  Ga  Ga2       1.0  0.81011  0.38139  0.9998499999999999  1.0000
  Ga  Ga3       1.0  0.5585400000000001  0.5  0.88283  1.0000
  Ga  Ga4       1.0  0.94167  0.49957  0.1175  1.0000
  H   H1        1.0  0.23871  0.5588  0.3069  1.0000
  H   H2        1.0  0.10451000000000006  0.44115  0.69311  1.0000
  H   H3        1.0  0.5474300000000003  0.80689  0.94118  1.0000
  H   H4        1.0  0.29586000000000007  0.19291  0.05881  1.0000
  H   H5        1.0  0.5113800000000003  0.19300000000000003  0.9412299999999999  1.0000
  H   H6        1.0  0.6453700000000001  0.80696  0.05886999999999999  1.0000
  H   H7        1.0  0.20265000000000002  0.55878  0.69302  1.0000
  H   H8        1.0  0.4543100000000001  0.4412  0.30681  1.0000
  H   H9        1.0  0.19091999999999998  0.43431  0.93385  1.0000
  H   H10       1.0  0.5599300000000001  0.56514  0.06599  1.0000
  H   H11       1.0  0.37422999999999995  0.43468  0.06607  1.0000
  H   H12       1.0  0.8753700000000002  0.56553  0.93404  1.0000
  H   H13       1.0  0.86347  0.50002  0.49998  1.0000
  H   H14       1.0  0.11365999999999997  0.99987  0.99992  1.0000
  H   H15       1.0  0.8864500000000003  0.99996  0.0  1.0000
  H   H16       1.0  0.6365000000000001  0.50005  0.50006  1.0000
  C   C1        1.0  0.044020000000000024  0.54848  0.2697899999999999  1.0000
  C   C2        1.0  0.05367000000000008  0.52713  0.39060999999999996  1.0000
  C   C3        1.0  0.16736999999999996  0.53087  0.39187  1.0000
  C   C4        1.0  0.8623800000000003  0.45152  0.73028  1.0000
  C   C5        1.0  0.9714000000000002  0.4729300000000001  0.60945  1.0000
  C   C6        1.0  0.09017000000000006  0.4691  0.60812  1.0000
  C   C7        1.0  0.34216999999999986  0.76976  0.95221  1.0000
  C   C8        1.0  0.33075000000000004  0.8905100000000001  0.9731  1.0000
  C   C9        1.0  0.44826999999999984  0.8918300000000002  0.9691299999999999  1.0000
  C   C10       1.0  0.06466  0.22978000000000004  0.04785999999999999  1.0000
  C   C11       1.0  0.19467000000000004  0.10913000000000002  0.02697  1.0000
  C   C12       1.0  0.30947000000000013  0.10794000000000001  0.03091  1.0000
  C   C13       1.0  0.7056600000000001  0.23011000000000006  0.9521999999999999  1.0000
  C   C14       1.0  0.69617  0.10935000000000002  0.9731499999999998  1.0000
  C   C15       1.0  0.5826000000000001  0.10806  0.9691799999999998  1.0000
  C   C16       1.0  0.88765  0.76995  0.04792  1.0000
  C   C17       1.0  0.7784500000000002  0.89067  0.02705  1.0000
  C   C18       1.0  0.65969  0.89191  0.03097  1.0000
  C   C19       1.0  0.40737000000000007  0.54845  0.73031  1.0000
  C   C20       1.0  0.41925999999999997  0.5270900000000001  0.60938  1.0000
  C   C21       1.0  0.30186999999999997  0.53085  0.60805  1.0000
  C   C22       1.0  0.6862200000000002  0.45149  0.26976  1.0000
  C   C23       1.0  0.55572  0.47292  0.39052999999999993  1.0000
  C   C24       1.0  0.44078  0.46911000000000014  0.39177999999999996  1.0000
  C   C25       1.0  0.9536599999999998  0.50004  0.5000199999999999  1.0000
  C   C26       1.0  0.18860999999999992  0.49996000000000007  0.5  1.0000
  C   C27       1.0  0.20387999999999976  0.9998200000000002  0.99998  1.0000
  C   C28       1.0  0.4386599999999998  0.9999200000000001  0.99997  1.0000
  C   C29       1.0  0.79618  3.0877454865098844e-25  4.9999999999999996e-05  1.0000
  C   C30       1.0  0.5614299999999999  0.9999500000000001  1e-05  1.0000
  C   C31       1.0  0.54632  0.50004  0.49999  1.0000
  C   C32       1.0  0.31150999999999995  0.49997  0.49989999999999996  1.0000
  O   O1        1.0  0.10431999999999995  0.613  0.18774  1.0000
  O   O2        1.0  0.9794499999999999  0.49742  0.25964  1.0000
  O   O3        1.0  0.9056099999999998  0.38707  0.81218  1.0000
  O   O4        1.0  0.7367400000000002  0.50224  0.74051  1.0000
  O   O5        1.0  0.4669299999999999  0.6876300000000001  0.8882  1.0000
  O   O6        1.0  0.22634999999999997  0.75995  0.0031899999999999997  1.0000
  O   O7        1.0  0.04306000000000001  0.31197  0.11203999999999999  1.0000
  O   O8        1.0  0.9901600000000002  0.23968000000000003  0.99658  1.0000
  O   O9        1.0  0.6447599999999999  0.31232000000000004  0.8883  1.0000
  O   O10       1.0  0.7707100000000001  0.23986000000000002  0.003059999999999999  1.0000
  O   O11       1.0  0.8452700000000001  0.6877000000000001  0.11215  1.0000
  O   O12       1.0  0.013340000000000117  0.7601700000000001  0.9964599999999999  1.0000
  O   O13       1.0  0.2823400000000001  0.61277  0.8122099999999999  1.0000
  O   O14       1.0  0.5228100000000003  0.49765  0.7405499999999999  1.0000
  O   O15       1.0  0.70768  0.3871  0.18766999999999998  1.0000
  O   O16       1.0  0.76119  0.50223  0.25962  1.0000
  O   O17       1.0  0.12706000000000003  0.49777  0.99835  1.0000
  O   O18       1.0  0.6241900000000002  0.5019  0.00127  1.0000
  O   O19       1.0  0.3745200000000001  0.49809000000000003  0.0014999999999999998  1.0000
  O   O20       1.0  0.87466  0.5020300000000001  0.99851  1.0000
