# generated using pymatgen
data_InH11C12O5
_symmetry_space_group_name_H-M   'P 1'
_cell_length_a   15.80585000
_cell_length_b   18.36692000
_cell_length_c   23.51582000
_cell_angle_alpha   89.97245000
_cell_angle_beta   89.97428000
_cell_angle_gamma   75.07575000
_symmetry_Int_Tables_number   1
_chemical_formula_structural   InH11C12O5
_chemical_formula_sum   'In12 H132 C144 O60'
_cell_volume   6596.46806209
_cell_formula_units_Z   12
loop_
 _symmetry_equiv_pos_site_id
 _symmetry_equiv_pos_as_xyz
  1  'x, y, z'
loop_
 _atom_site_type_symbol
 _atom_site_label
 _atom_site_symmetry_multiplicity
 _atom_site_fract_x
 _atom_site_fract_y
 _atom_site_fract_z
 _atom_site_occupancy
  In  In1  1  0.31050000  0.14001000  0.51542000  1.0
  In  In2  1  0.18455000  0.34453000  0.52949000  1.0
  In  In3  1  0.69001000  0.35929000  0.01533000  1.0
  In  In4  1  0.81504000  0.15472000  0.03065000  1.0
  In  In5  1  0.68950000  0.85999000  0.48458000  1.0
  In  In6  1  0.81544000  0.65547000  0.47050000  1.0
  In  In7  1  0.30999000  0.64071000  0.98467000  1.0
  In  In8  1  0.18495000  0.84528000  0.96935000  1.0
  In  In9  1  0.50000000  0.00000000  0.50000000  1.0
  In  In10  1  0.50000000  0.50000000  0.00000000  1.0
  In  In11  1  0.00000000  0.50000000  0.50000000  1.0
  In  In12  1  0.00000000  0.00000000  0.00000000  1.0
  H  H1  1  0.47427000  0.13641000  0.54272000  1.0
  H  H2  1  0.26500000  0.25398000  0.44529000  1.0
  H  H3  1  0.12386000  0.46500000  0.58343000  1.0
  H  H4  1  0.35347000  0.89932000  0.63141000  1.0
  H  H5  1  0.17415000  0.95585000  0.57365000  1.0
  H  H6  1  0.18254000  0.92920000  0.76575000  1.0
  H  H7  1  0.29389000  0.88843000  0.75192000  1.0
  H  H8  1  0.23361000  0.96121000  0.70699000  1.0
  H  H9  1  0.07296000  0.66310000  0.70191000  1.0
  H  H10  1  0.18432000  0.61407000  0.70038000  1.0
  H  H11  1  0.14085000  0.66830000  0.76124000  1.0
  H  H12  1  0.21630000  0.83201000  0.52148000  1.0
  H  H13  1  0.14662000  0.77000000  0.51700000  1.0
  H  H14  1  0.10148000  0.86795000  0.52602000  1.0
  H  H15  1  0.16392000  0.82667000  0.80844000  1.0
  H  H16  1  0.29748000  0.67472000  0.78718000  1.0
  H  H17  1  0.12445000  0.63683000  0.60498000  1.0
  H  H18  1  0.99842000  0.78248000  0.56028000  1.0
  H  H19  1  0.20911000  0.54214000  0.36620000  1.0
  H  H20  1  0.34735000  0.40445000  0.41068000  1.0
  H  H21  1  0.55365000  0.46313000  0.43761000  1.0
  H  H22  1  0.44498000  0.51779000  0.44977000  1.0
  H  H23  1  0.46612000  0.41918000  0.44444000  1.0
  H  H24  1  0.57946000  0.48871000  0.18345000  1.0
  H  H25  1  0.58509000  0.56510000  0.22752000  1.0
  H  H26  1  0.65332000  0.47499000  0.24170000  1.0
  H  H27  1  0.29168000  0.44321000  0.21734000  1.0
  H  H28  1  0.25705000  0.42994000  0.28790000  1.0
  H  H29  1  0.23308000  0.52078000  0.25787000  1.0
  H  H30  1  0.67835000  0.46184000  0.33068000  1.0
  H  H31  1  0.56867000  0.59625000  0.39783000  1.0
  H  H32  1  0.47364000  0.46290000  0.15700000  1.0
  H  H33  1  0.29841000  0.57832000  0.17964000  1.0
  H  H34  1  0.52596000  0.36424000  0.04269000  1.0
  H  H35  1  0.73596000  0.24478000  0.94538000  1.0
  H  H36  1  0.87615000  0.03297000  0.08327000  1.0
  H  H37  1  0.64837000  0.59909000  0.13103000  1.0
  H  H38  1  0.82785000  0.54326000  0.07339000  1.0
  H  H39  1  0.81908000  0.57006000  0.26535000  1.0
  H  H40  1  0.70782000  0.61076000  0.25196000  1.0
  H  H41  1  0.76757000  0.53805000  0.20682000  1.0
  H  H42  1  0.92817000  0.83649000  0.20061000  1.0
  H  H43  1  0.81633000  0.88475000  0.20077000  1.0
  H  H44  1  0.86225000  0.82946000  0.26063000  1.0
  H  H45  1  0.78457000  0.66676000  0.02109000  1.0
  H  H46  1  0.85400000  0.72896000  0.01617000  1.0
  H  H47  1  0.89945000  0.63114000  0.02541000  1.0
  H  H48  1  0.83878000  0.67172000  0.30772000  1.0
  H  H49  1  0.70761000  0.82504000  0.28705000  1.0
  H  H50  1  0.87811000  0.86193000  0.10466000  1.0
  H  H51  1  0.00267000  0.71656000  0.05824000  1.0
  H  H52  1  0.79207000  0.95746000  0.86602000  1.0
  H  H53  1  0.65416000  0.09470000  0.91119000  1.0
  H  H54  1  0.44706000  0.03863000  0.93764000  1.0
  H  H55  1  0.55515000  0.98302000  0.95002000  1.0
  H  H56  1  0.53551000  0.08148000  0.94444000  1.0
  H  H57  1  0.42092000  0.01344000  0.68369000  1.0
  H  H58  1  0.41473000  0.93697000  0.72749000  1.0
  H  H59  1  0.34729000  0.02732000  0.74207000  1.0
  H  H60  1  0.71033000  0.05629000  0.71753000  1.0
  H  H61  1  0.74527000  0.06881000  0.78815000  1.0
  H  H62  1  0.76790000  0.97812000  0.75792000  1.0
  H  H63  1  0.32279000  0.03934000  0.83094000  1.0
  H  H64  1  0.43261000  0.90459000  0.89776000  1.0
  H  H65  1  0.52679000  0.03751000  0.65717000  1.0
  H  H66  1  0.70274000  0.92322000  0.67977000  1.0
  H  H67  1  0.52572000  0.86359000  0.45728000  1.0
  H  H68  1  0.73500000  0.74602000  0.55471000  1.0
  H  H69  1  0.87613000  0.53500000  0.41656000  1.0
  H  H70  1  0.64652000  0.10068000  0.36859000  1.0
  H  H71  1  0.82584000  0.04415000  0.42635000  1.0
  H  H72  1  0.81745000  0.07080000  0.23425000  1.0
  H  H73  1  0.70610000  0.11157000  0.24808000  1.0
  H  H74  1  0.76638000  0.03879000  0.29300000  1.0
  H  H75  1  0.92703000  0.33690000  0.29808000  1.0
  H  H76  1  0.81567000  0.38593000  0.29962000  1.0
  H  H77  1  0.85914000  0.33170000  0.23876000  1.0
  H  H78  1  0.78369000  0.16799000  0.47852000  1.0
  H  H79  1  0.85337000  0.23000000  0.48300000  1.0
  H  H80  1  0.89851000  0.13205000  0.47398000  1.0
  H  H81  1  0.83607000  0.17333000  0.19156000  1.0
  H  H82  1  0.70251000  0.32528000  0.21282000  1.0
  H  H83  1  0.87555000  0.36317000  0.39502000  1.0
  H  H84  1  0.00157000  0.21752000  0.43971000  1.0
  H  H85  1  0.79088000  0.45786000  0.63380000  1.0
  H  H86  1  0.65264000  0.59554000  0.58932000  1.0
  H  H87  1  0.44634000  0.53687000  0.56238000  1.0
  H  H88  1  0.55502000  0.48221000  0.55023000  1.0
  H  H89  1  0.53387000  0.58082000  0.55556000  1.0
  H  H90  1  0.42053000  0.51129000  0.81654000  1.0
  H  H91  1  0.41490000  0.43490000  0.77247000  1.0
  H  H92  1  0.34667000  0.52501000  0.75830000  1.0
  H  H93  1  0.70831000  0.55679000  0.78266000  1.0
  H  H94  1  0.74294000  0.57006000  0.71210000  1.0
  H  H95  1  0.76691000  0.47922000  0.74213000  1.0
  H  H96  1  0.32164000  0.53816000  0.66932000  1.0
  H  H97  1  0.43132000  0.40375000  0.60216000  1.0
  H  H98  1  0.52635000  0.53710000  0.84300000  1.0
  H  H99  1  0.70158000  0.42168000  0.82036000  1.0
  H  H100  1  0.47403000  0.63576000  0.95731000  1.0
  H  H101  1  0.26403000  0.75522000  0.05462000  1.0
  H  H102  1  0.12384000  0.96703000  0.91673000  1.0
  H  H103  1  0.35163000  0.40091000  0.86896000  1.0
  H  H104  1  0.17214000  0.45674000  0.92661000  1.0
  H  H105  1  0.18092000  0.42994000  0.73465000  1.0
  H  H106  1  0.29218000  0.38924000  0.74804000  1.0
  H  H107  1  0.23243000  0.46195000  0.79317000  1.0
  H  H108  1  0.07183000  0.16351000  0.79939000  1.0
  H  H109  1  0.18366000  0.11525000  0.79922000  1.0
  H  H110  1  0.13774000  0.17054000  0.73937000  1.0
  H  H111  1  0.21542000  0.33324000  0.97891000  1.0
  H  H112  1  0.14599000  0.27104000  0.98382000  1.0
  H  H113  1  0.10054000  0.36886000  0.97458000  1.0
  H  H114  1  0.16122000  0.32828000  0.69228000  1.0
  H  H115  1  0.29238000  0.17496000  0.71295000  1.0
  H  H116  1  0.12189000  0.13807000  0.89534000  1.0
  H  H117  1  0.99732000  0.28344000  0.94175000  1.0
  H  H118  1  0.20792000  0.04254000  0.13398000  1.0
  H  H119  1  0.34583000  0.90530000  0.08881000  1.0
  H  H120  1  0.55294000  0.96137000  0.06236000  1.0
  H  H121  1  0.44485000  0.01698000  0.04998000  1.0
  H  H122  1  0.46448000  0.91852000  0.05555000  1.0
  H  H123  1  0.57907000  0.98656000  0.31631000  1.0
  H  H124  1  0.58527000  0.06303000  0.27251000  1.0
  H  H125  1  0.65270000  0.97268000  0.25793000  1.0
  H  H126  1  0.28967000  0.94371000  0.28247000  1.0
  H  H127  1  0.25472000  0.93119000  0.21184000  1.0
  H  H128  1  0.23209000  0.02188000  0.24207000  1.0
  H  H129  1  0.67720000  0.96065000  0.16906000  1.0
  H  H130  1  0.56739000  0.09541000  0.10224000  1.0
  H  H131  1  0.47321000  0.96249000  0.34282000  1.0
  H  H132  1  0.29725000  0.07678000  0.32023000  1.0
  C  C1  1  0.32891000  0.99068000  0.57049000  1.0
  C  C2  1  0.30178000  0.93429000  0.60543000  1.0
  C  C3  1  0.22134000  0.92197000  0.60332000  1.0
  C  C4  1  0.19587000  0.86146000  0.63458000  1.0
  C  C5  1  0.20529000  0.85309000  0.69402000  1.0
  C  C6  1  0.18993000  0.78808000  0.72015000  1.0
  C  C7  1  0.15997000  0.73473000  0.68813000  1.0
  C  C8  1  0.14236000  0.74834000  0.62939000  1.0
  C  C9  1  0.16267000  0.81002000  0.60204000  1.0
  C  C10  1  0.23026000  0.91115000  0.73113000  1.0
  C  C11  1  0.13852000  0.66679000  0.71481000  1.0
  C  C12  1  0.15636000  0.82018000  0.53827000  1.0
  C  C13  1  0.20110000  0.78033000  0.78210000  1.0
  C  C14  1  0.25339000  0.72118000  0.80953000  1.0
  C  C15  1  0.25342000  0.71706000  0.87207000  1.0
  C  C16  1  0.09970000  0.69758000  0.59902000  1.0
  C  C17  1  0.02803000  0.72265000  0.56640000  1.0
  C  C18  1  0.98277000  0.67179000  0.53794000  1.0
  C  C19  1  0.18210000  0.46518000  0.43104000  1.0
  C  C20  1  0.23895000  0.49058000  0.38925000  1.0
  C  C21  1  0.32354000  0.45282000  0.38262000  1.0
  C  C22  1  0.38723000  0.46979000  0.34228000  1.0
  C  C23  1  0.46911000  0.47542000  0.36395000  1.0
  C  C24  1  0.53362000  0.48760000  0.32625000  1.0
  C  C25  1  0.51812000  0.49030000  0.26699000  1.0
  C  C26  1  0.43532000  0.48695000  0.24591000  1.0
  C  C27  1  0.36899000  0.47671000  0.28341000  1.0
  C  C28  1  0.48495000  0.46838000  0.42714000  1.0
  C  C29  1  0.58732000  0.50469000  0.22760000  1.0
  C  C30  1  0.28342000  0.46690000  0.26033000  1.0
  C  C31  1  0.61769000  0.49933000  0.34662000  1.0
  C  C32  1  0.62585000  0.55520000  0.38143000  1.0
  C  C33  1  0.71237000  0.56625000  0.39914000  1.0
  C  C34  1  0.42121000  0.49455000  0.18436000  1.0
  C  C35  1  0.35218000  0.54023000  0.15730000  1.0
  C  C36  1  0.35258000  0.54763000  0.09514000  1.0
  C  C37  1  0.67368000  0.50789000  0.07005000  1.0
  C  C38  1  0.70034000  0.56428000  0.10518000  1.0
  C  C39  1  0.78049000  0.57707000  0.10300000  1.0
  C  C40  1  0.80531000  0.63786000  0.13414000  1.0
  C  C41  1  0.79602000  0.64616000  0.19359000  1.0
  C  C42  1  0.81180000  0.71099000  0.21964000  1.0
  C  C43  1  0.84167000  0.76428000  0.18744000  1.0
  C  C44  1  0.85923000  0.75067000  0.12868000  1.0
  C  C45  1  0.83856000  0.68913000  0.10143000  1.0
  C  C46  1  0.77120000  0.58809000  0.23084000  1.0
  C  C47  1  0.86320000  0.83205000  0.21420000  1.0
  C  C48  1  0.84449000  0.67882000  0.03767000  1.0
  C  C49  1  0.80167000  0.71843000  0.28167000  1.0
  C  C50  1  0.75078000  0.77801000  0.30943000  1.0
  C  C51  1  0.75073000  0.78165000  0.37203000  1.0
  C  C52  1  0.90213000  0.80119000  0.09823000  1.0
  C  C53  1  0.97319000  0.77631000  0.06500000  1.0
  C  C54  1  0.01760000  0.82800000  0.03664000  1.0
  C  C55  1  0.81892000  0.03328000  0.93181000  1.0
  C  C56  1  0.76230000  0.00865000  0.88949000  1.0
  C  C57  1  0.67784000  0.04671000  0.88281000  1.0
  C  C58  1  0.61408000  0.03038000  0.84233000  1.0
  C  C59  1  0.53201000  0.02525000  0.86403000  1.0
  C  C60  1  0.46744000  0.01347000  0.82631000  1.0
  C  C61  1  0.48276000  0.01098000  0.76705000  1.0
  C  C62  1  0.56570000  0.01397000  0.74591000  1.0
  C  C63  1  0.63227000  0.02352000  0.78345000  1.0
  C  C64  1  0.51595000  0.03262000  0.92721000  1.0
  C  C65  1  0.41308000  0.99727000  0.72779000  1.0
  C  C66  1  0.71828000  0.03242000  0.76047000  1.0
  C  C67  1  0.38346000  0.00179000  0.84676000  1.0
  C  C68  1  0.37541000  0.94582000  0.88155000  1.0
  C  C69  1  0.28869000  0.93515000  0.89917000  1.0
  C  C70  1  0.57966000  0.00630000  0.68438000  1.0
  C  C71  1  0.64878000  0.96078000  0.65726000  1.0
  C  C72  1  0.64801000  0.95260000  0.59516000  1.0
  C  C73  1  0.67108000  0.00932000  0.42951000  1.0
  C  C74  1  0.69821000  0.06571000  0.39457000  1.0
  C  C75  1  0.77865000  0.07802000  0.39668000  1.0
  C  C76  1  0.80412000  0.13854000  0.36541000  1.0
  C  C77  1  0.79470000  0.14691000  0.30598000  1.0
  C  C78  1  0.81006000  0.21192000  0.27985000  1.0
  C  C79  1  0.84002000  0.26527000  0.31187000  1.0
  C  C80  1  0.85764000  0.25166000  0.37061000  1.0
  C  C81  1  0.83732000  0.18998000  0.39796000  1.0
  C  C82  1  0.76974000  0.08885000  0.26887000  1.0
  C  C83  1  0.86147000  0.33321000  0.28519000  1.0
  C  C84  1  0.84363000  0.17982000  0.46173000  1.0
  C  C85  1  0.79890000  0.21967000  0.21790000  1.0
  C  C86  1  0.74661000  0.27882000  0.19047000  1.0
  C  C87  1  0.74657000  0.28294000  0.12792000  1.0
  C  C88  1  0.90030000  0.30242000  0.40098000  1.0
  C  C89  1  0.97196000  0.27735000  0.43360000  1.0
  C  C90  1  0.01722000  0.32821000  0.46205000  1.0
  C  C91  1  0.81789000  0.53482000  0.56895000  1.0
  C  C92  1  0.76104000  0.50942000  0.61074000  1.0
  C  C93  1  0.67645000  0.54718000  0.61737000  1.0
  C  C94  1  0.61276000  0.53021000  0.65771000  1.0
  C  C95  1  0.53088000  0.52458000  0.63605000  1.0
  C  C96  1  0.46638000  0.51240000  0.67375000  1.0
  C  C97  1  0.48188000  0.50970000  0.73300000  1.0
  C  C98  1  0.56467000  0.51304000  0.75409000  1.0
  C  C99  1  0.63100000  0.52329000  0.71659000  1.0
  C  C100  1  0.51505000  0.53162000  0.57286000  1.0
  C  C101  1  0.41267000  0.49531000  0.77239000  1.0
  C  C102  1  0.71657000  0.53310000  0.73967000  1.0
  C  C103  1  0.38230000  0.50067000  0.65338000  1.0
  C  C104  1  0.37414000  0.44480000  0.61856000  1.0
  C  C105  1  0.28762000  0.43375000  0.60086000  1.0
  C  C106  1  0.57878000  0.50545000  0.81564000  1.0
  C  C107  1  0.64782000  0.45977000  0.84269000  1.0
  C  C108  1  0.64741000  0.45237000  0.90486000  1.0
  C  C109  1  0.32631000  0.49211000  0.92995000  1.0
  C  C110  1  0.29965000  0.43572000  0.89482000  1.0
  C  C111  1  0.21950000  0.42293000  0.89699000  1.0
  C  C112  1  0.19468000  0.36214000  0.86586000  1.0
  C  C113  1  0.20398000  0.35384000  0.80641000  1.0
  C  C114  1  0.18819000  0.28901000  0.78036000  1.0
  C  C115  1  0.15832000  0.23572000  0.81256000  1.0
  C  C116  1  0.14077000  0.24933000  0.87131000  1.0
  C  C117  1  0.16143000  0.31087000  0.89857000  1.0
  C  C118  1  0.22879000  0.41191000  0.76916000  1.0
  C  C119  1  0.13679000  0.16795000  0.78579000  1.0
  C  C120  1  0.15550000  0.32118000  0.96233000  1.0
  C  C121  1  0.19832000  0.28157000  0.71832000  1.0
  C  C122  1  0.24922000  0.22198000  0.69057000  1.0
  C  C123  1  0.24926000  0.21835000  0.62796000  1.0
  C  C124  1  0.09787000  0.19881000  0.90176000  1.0
  C  C125  1  0.02680000  0.22369000  0.93499000  1.0
  C  C126  1  0.98239000  0.17200000  0.96335000  1.0
  C  C127  1  0.18108000  0.96672000  0.06818000  1.0
  C  C128  1  0.23769000  0.99135000  0.11051000  1.0
  C  C129  1  0.32215000  0.95329000  0.11719000  1.0
  C  C130  1  0.38591000  0.96962000  0.15767000  1.0
  C  C131  1  0.46798000  0.97475000  0.13597000  1.0
  C  C132  1  0.53255000  0.98653000  0.17369000  1.0
  C  C133  1  0.51723000  0.98901000  0.23295000  1.0
  C  C134  1  0.43430000  0.98603000  0.25409000  1.0
  C  C135  1  0.36772000  0.97648000  0.21654000  1.0
  C  C136  1  0.48405000  0.96738000  0.07279000  1.0
  C  C137  1  0.58691000  0.00273000  0.27221000  1.0
  C  C138  1  0.28171000  0.96758000  0.23952000  1.0
  C  C139  1  0.61653000  0.99821000  0.15324000  1.0
  C  C140  1  0.62458000  0.05418000  0.11844000  1.0
  C  C141  1  0.71131000  0.06485000  0.10082000  1.0
  C  C142  1  0.42034000  0.99370000  0.31562000  1.0
  C  C143  1  0.35121000  0.03922000  0.34274000  1.0
  C  C144  1  0.35198000  0.04740000  0.40483000  1.0
  O  O1  1  0.45030000  0.11969000  0.50839000  1.0
  O  O2  1  0.27503000  0.25063000  0.48614000  1.0
  O  O3  1  0.08724000  0.43637000  0.56278000  1.0
  O  O4  1  0.27064000  0.04046000  0.54301000  1.0
  O  O5  1  0.41129000  0.98627000  0.57022000  1.0
  O  O6  1  0.31668000  0.66564000  0.89456000  1.0
  O  O7  1  0.19155000  0.75993000  0.90011000  1.0
  O  O8  1  0.01215000  0.60094000  0.54570000  1.0
  O  O9  1  0.91607000  0.70504000  0.50806000  1.0
  O  O10  1  0.20826000  0.39685000  0.44863000  1.0
  O  O11  1  0.11190000  0.51332000  0.44563000  1.0
  O  O12  1  0.78270000  0.51969000  0.38558000  1.0
  O  O13  1  0.70474000  0.62780000  0.42887000  1.0
  O  O14  1  0.40447000  0.49574000  0.06579000  1.0
  O  O15  1  0.30047000  0.60727000  0.07407000  1.0
  O  O16  1  0.54970000  0.38104000  0.00827000  1.0
  O  O17  1  0.72514000  0.24830000  0.98616000  1.0
  O  O18  1  0.91251000  0.06218000  0.06310000  1.0
  O  O19  1  0.73238000  0.45767000  0.04315000  1.0
  O  O20  1  0.59136000  0.51254000  0.06904000  1.0
  O  O21  1  0.68739000  0.83300000  0.39458000  1.0
  O  O22  1  0.81228000  0.73816000  0.39991000  1.0
  O  O23  1  0.98833000  0.89853000  0.04567000  1.0
  O  O24  1  0.08346000  0.79608000  0.00558000  1.0
  O  O25  1  0.79198000  0.10087000  0.95074000  1.0
  O  O26  1  0.88977000  0.98522000  0.94541000  1.0
  O  O27  1  0.21877000  0.98218000  0.88570000  1.0
  O  O28  1  0.29569000  0.87331000  0.92854000  1.0
  O  O29  1  0.59554000  0.00388000  0.56568000  1.0
  O  O30  1  0.70008000  0.89298000  0.57412000  1.0
  O  O31  1  0.54969000  0.88031000  0.49160000  1.0
  O  O32  1  0.72496000  0.74937000  0.51385000  1.0
  O  O33  1  0.91275000  0.56363000  0.43722000  1.0
  O  O34  1  0.72935000  0.95954000  0.45699000  1.0
  O  O35  1  0.58870000  0.01373000  0.42978000  1.0
  O  O36  1  0.68331000  0.33436000  0.10544000  1.0
  O  O37  1  0.80844000  0.24007000  0.09989000  1.0
  O  O38  1  0.98784000  0.39905000  0.45430000  1.0
  O  O39  1  0.08392000  0.29496000  0.49194000  1.0
  O  O40  1  0.79173000  0.60315000  0.55137000  1.0
  O  O41  1  0.88809000  0.48668000  0.55437000  1.0
  O  O42  1  0.21730000  0.48031000  0.61442000  1.0
  O  O43  1  0.29525000  0.37220000  0.57113000  1.0
  O  O44  1  0.59552000  0.50426000  0.93421000  1.0
  O  O45  1  0.69952000  0.39273000  0.92592000  1.0
  O  O46  1  0.45029000  0.61896000  0.99172000  1.0
  O  O47  1  0.27485000  0.75170000  0.01383000  1.0
  O  O48  1  0.08748000  0.93782000  0.93689000  1.0
  O  O49  1  0.26761000  0.54233000  0.95684000  1.0
  O  O50  1  0.40864000  0.48746000  0.93095000  1.0
  O  O51  1  0.31260000  0.16700000  0.60541000  1.0
  O  O52  1  0.18771000  0.26184000  0.60009000  1.0
  O  O53  1  0.01166000  0.10147000  0.95432000  1.0
  O  O54  1  0.91653000  0.20392000  0.99442000  1.0
  O  O55  1  0.20801000  0.89913000  0.04926000  1.0
  O  O56  1  0.11023000  0.01478000  0.05459000  1.0
  O  O57  1  0.78123000  0.01782000  0.11430000  1.0
  O  O58  1  0.70430000  0.12669000  0.07146000  1.0
  O  O59  1  0.40445000  0.99611000  0.43432000  1.0
  O  O60  1  0.29991000  0.10702000  0.42588000  1.0
