# generated using pymatgen
data_H7C11N
_symmetry_space_group_name_H-M   'P 1'
_cell_length_a   41.84557655
_cell_length_b   41.84666095
_cell_length_c   41.84666095
_cell_angle_alpha   90.92669409
_cell_angle_beta   119.46555650
_cell_angle_gamma   119.46555650
_symmetry_Int_Tables_number   1
_chemical_formula_structural   H7C11N
_chemical_formula_sum   'H168 C264 N24'
_cell_volume   52226.92845293
_cell_formula_units_Z   24
loop_
 _symmetry_equiv_pos_site_id
 _symmetry_equiv_pos_as_xyz
  1  'x, y, z'
loop_
 _atom_site_type_symbol
 _atom_site_label
 _atom_site_symmetry_multiplicity
 _atom_site_fract_x
 _atom_site_fract_y
 _atom_site_fract_z
 _atom_site_occupancy
  C  1  1  0.21501500  0.46715900  0.67032500  1
  C  2  1  0.25062250  0.50681650  0.69357300  1
  C  3  1  0.24845550  0.52920450  0.71698900  1
  C  4  1  0.21063050  0.51276850  0.71841400  1
  C  5  1  0.17488650  0.47326500  0.69506050  1
  C  6  1  0.17710900  0.45094500  0.67165500  1
  C  7  1  0.20675600  0.53437650  0.74045150  1
  C  8  1  0.24021850  0.56083950  0.77664100  1
  C  9  1  0.23555550  0.58149000  0.79855150  1
  C  10  1  0.20532800  0.56211500  0.80904100  1
  C  11  1  0.20316300  0.58283150  0.83425150  1
  C  12  1  0.23252400  0.62420200  0.84898600  1
  C  13  1  0.26274100  0.64452700  0.83861600  1
  C  14  1  0.26434850  0.62267900  0.81392650  1
  C  15  1  0.29218750  0.68516750  0.85407800  1
  C  16  1  0.29546300  0.70759850  0.83162950  1
  C  17  1  0.32730650  0.74772150  0.84500800  1
  C  18  1  0.34915450  0.76237650  0.82624800  1
  C  19  1  0.33545350  0.77493200  0.87348650  1
  C  20  1  0.36330150  0.81553850  0.88183400  1
  C  21  1  0.38319400  0.82992850  0.86149450  1
  C  22  1  0.37646850  0.80269150  0.83426800  1
  C  23  1  0.17355300  0.56148100  0.84452000  1
  C  24  1  0.15168150  0.57218250  0.85199600  1
  C  25  1  0.11804600  0.54717600  0.85667100  1
  C  26  1  0.07984900  0.51120700  0.82664900  1
  C  27  1  0.11894500  0.55821400  0.88940000  1
  C  28  1  0.08265200  0.53394350  0.89199150  1
  C  29  1  0.04382100  0.49836050  0.86147250  1
  C  30  1  0.04363150  0.48732300  0.82910550  1
  C  52  1  0.71582500  0.46899600  0.16933300  1
  C  53  1  0.68021450  0.45664150  0.17338100  1
  C  54  1  0.68237900  0.48222650  0.19792850  1
  C  55  1  0.72021400  0.52147050  0.21932950  1
  C  56  1  0.75596650  0.53385050  0.21558200  1
  C  57  1  0.75373900  0.50822500  0.19103300  1
  C  58  1  0.72408300  0.54738050  0.24480850  1
  C  59  1  0.69062550  0.55012750  0.23779000  1
  C  60  1  0.69527550  0.57669450  0.26310000  1
  C  61  1  0.72554250  0.61740900  0.27398750  1
  C  62  1  0.72773800  0.64478650  0.29690050  1
  C  63  1  0.69836550  0.63016100  0.30889850  1
  C  64  1  0.66812300  0.58957300  0.29898400  1
  C  65  1  0.66649150  0.56327700  0.27550350  1
  C  66  1  0.63868500  0.57559000  0.31018700  1
  C  67  1  0.63548100  0.54991350  0.32939850  1
  C  68  1  0.60361600  0.53139850  0.33765050  1
  C  69  1  0.58183550  0.49079600  0.33047850  1
  C  70  1  0.59537700  0.55167700  0.35666100  1
  C  71  1  0.56755650  0.53214050  0.36943900  1
  C  72  1  0.54775950  0.49192350  0.36398300  1
  C  73  1  0.55455250  0.47147400  0.34350150  1
  C  74  1  0.75737050  0.68466550  0.30517800  1
  C  75  1  0.77921450  0.71400700  0.33774450  1
  C  76  1  0.81288600  0.75231350  0.34640950  1
  C  77  1  0.85114600  0.76047500  0.34876800  1
  C  78  1  0.81193750  0.78414650  0.35642900  1
  C  79  1  0.84826600  0.82302550  0.36849850  1
  C  80  1  0.88714450  0.83132850  0.37184700  1
  C  81  1  0.88736650  0.79914350  0.36109000  1
  C  103  1  0.71398350  0.21754850  0.41894300  1
  C  104  1  0.73039050  0.22159900  0.45860050  1
  C  105  1  0.72936000  0.24615150  0.48098650  1
  C  106  1  0.71148450  0.26753000  0.46454650  1
  C  107  1  0.69533750  0.26377100  0.42504150  1
  C  108  1  0.69641750  0.23922400  0.40272050  1
  C  109  1  0.71104000  0.29300200  0.48614900  1
  C  110  1  0.70130750  0.28599600  0.51260850  1
  C  111  1  0.70004250  0.31130350  0.53326300  1
  C  112  1  0.67020300  0.32218100  0.51389000  1
  C  113  1  0.66572950  0.34507250  0.53461700  1
  C  114  1  0.69238300  0.35709450  0.57598650  1
  C  115  1  0.72307850  0.34720000  0.59630550  1
  C  116  1  0.72590050  0.32372950  0.57445300  1
  C  117  1  0.74829200  0.35842350  0.63694850  1
  C  118  1  0.79317700  0.37762800  0.65934800  1
  C  119  1  0.81997450  0.38594150  0.69947600  1
  C  120  1  0.85340350  0.37876700  0.71410550  1
  C  121  1  0.81863750  0.40490750  0.72669600  1
  C  122  1  0.85098200  0.41774200  0.76729000  1
  C  123  1  0.88570600  0.41222700  0.78169000  1
  C  124  1  0.88573400  0.39180850  0.75441550  1
  C  125  1  0.63411500  0.35333950  0.51327950  1
  C  126  1  0.63734300  0.38590950  0.52399950  1
  C  127  1  0.60770850  0.39457400  0.49897450  1
  C  128  1  0.60182600  0.39683000  0.46303100  1
  C  129  1  0.58591350  0.40462200  0.50994450  1
  C  130  1  0.55906150  0.41664450  0.48565600  1
  C  131  1  0.55410300  0.41996900  0.45012100  1
  C  132  1  0.57549700  0.40916900  0.43913100  1
  C  154  1  0.21685300  0.71856700  0.42075200  1
  C  155  1  0.20043400  0.74181150  0.40839850  1
  C  156  1  0.20146650  0.76522550  0.43398400  1
  C  157  1  0.21933000  0.76664650  0.47323450  1
  C  158  1  0.23545950  0.74327400  0.48560950  1
  C  159  1  0.23439550  0.71988950  0.45998400  1
  C  160  1  0.21973650  0.78866200  0.49914150  1
  C  161  1  0.22944500  0.82484800  0.50187600  1
  C  162  1  0.23069100  0.84673750  0.52845350  1
  C  163  1  0.26055100  0.85721300  0.56916700  1
  C  164  1  0.26503200  0.88240350  0.59654750  1
  C  165  1  0.23840450  0.89714800  0.58193350  1
  C  166  1  0.20770700  0.88678700  0.54134700  1
  C  167  1  0.20487850  0.86211500  0.51504450  1
  C  168  1  0.18255900  0.90227800  0.52738100  1
  C  169  1  0.13768500  0.87985450  0.50163050  1
  C  170  1  0.11097650  0.89326350  0.48315600  1
  C  171  1  0.07763250  0.87457250  0.44253000  1
  C  172  1  0.11221750  0.92171450  0.50349300  1
  C  173  1  0.07996650  0.93006850  0.48398900  1
  C  174  1  0.04526100  0.90976300  0.44374500  1
  C  175  1  0.04530600  0.88256050  0.42325150  1
  C  176  1  0.29666300  0.89267950  0.63642250  1
  C  177  1  0.29344300  0.90014850  0.66577350  1
  C  178  1  0.32313400  0.90483600  0.70408500  1
  C  179  1  0.32911950  0.87483400  0.71226750  1
  C  180  1  0.34480200  0.93755800  0.73590800  1
  C  181  1  0.37168100  0.94016650  0.77479450  1
  C  182  1  0.37679100  0.90967050  0.78311750  1
  C  183  1  0.35547700  0.87730600  0.75094500  1
  C  205  1  0.21683400  0.44451350  0.64586450  1
  C  206  1  0.20043250  0.40485750  0.64182100  1
  C  207  1  0.20147200  0.38247150  0.61727650  1
  C  208  1  0.21932600  0.39890300  0.59588200  1
  C  209  1  0.23545100  0.43840100  0.59962300  1
  C  210  1  0.23435700  0.46071900  0.62415800  1
  C  211  1  0.21977200  0.37729650  0.57041450  1
  C  212  1  0.22951150  0.35084150  0.57742800  1
  C  213  1  0.23077700  0.33018300  0.55212300  1
  C  214  1  0.26061600  0.34956150  0.54124750  1
  C  215  1  0.26510400  0.32884450  0.51836050  1
  C  216  1  0.23846900  0.28747400  0.50634800  1
  C  217  1  0.20777450  0.26714900  0.51624150  1
  C  218  1  0.20494100  0.28899500  0.53970800  1
  C  219  1  0.18257450  0.22650750  0.50502900  1
  C  220  1  0.13768250  0.20410300  0.48578650  1
  C  221  1  0.11089700  0.16398350  0.47751650  1
  C  222  1  0.07742700  0.14937250  0.48464050  1
  C  223  1  0.11218000  0.13673500  0.45852100  1
  C  224  1  0.07990050  0.09613700  0.44577850  1
  C  225  1  0.04511550  0.08179850  0.45120000  1
  C  226  1  0.04508650  0.10906700  0.47161850  1
  C  227  1  0.29675550  0.35019500  0.51013650  1
  C  228  1  0.29350300  0.33952650  0.47754050  1
  C  229  1  0.32319700  0.36453500  0.46892300  1
  C  230  1  0.32918900  0.40052800  0.46674600  1
  C  231  1  0.34485650  0.35348200  0.45874950  1
  C  232  1  0.37175100  0.37776750  0.44675850  1
  C  233  1  0.37680800  0.41334950  0.44351250  1
  C  234  1  0.35553000  0.42441400  0.45441200  1
  C  256  1  0.71400300  0.44271300  0.14486700  1
  C  257  1  0.73041000  0.45507050  0.12161550  1
  C  258  1  0.72938100  0.42948750  0.09819950  1
  C  259  1  0.71150750  0.39023600  0.09676650  1
  C  260  1  0.69536250  0.37784850  0.12012600  1
  C  261  1  0.69644550  0.40347650  0.14352900  1
  C  262  1  0.71106350  0.36432050  0.07472000  1
  C  263  1  0.70131850  0.36158950  0.03852400  1
  C  264  1  0.70004900  0.33501600  0.01660100  1
  C  265  1  0.67021300  0.29430150  0.00614050  1
  C  266  1  0.66575150  0.26693000  0.98095450  1
  C  267  1  0.69240550  0.28155950  0.96623600  1
  C  268  1  0.72307800  0.32214950  0.97658850  1
  C  269  1  0.72589150  0.34844250  0.00125400  1
  C  270  1  0.74828550  0.33613600  0.96115150  1
  C  271  1  0.79316450  0.36186000  0.98362350  1
  C  272  1  0.81996150  0.38032450  0.97028900  1
  C  273  1  0.85340050  0.42092450  0.98908500  1
  C  274  1  0.81863750  0.36000800  0.94175350  1
  C  275  1  0.85090600  0.37951450  0.93341550  1
  C  276  1  0.88568750  0.41973050  0.95380400  1
  C  277  1  0.88573150  0.44019850  0.98110400  1
  C  278  1  0.63415500  0.22705250  0.97070750  1
  C  279  1  0.63739500  0.19771400  0.96323300  1
  C  280  1  0.60774250  0.15940450  0.95858100  1
  C  281  1  0.60180550  0.15123850  0.98861000  1
  C  282  1  0.58601550  0.12757600  0.92583450  1
  C  283  1  0.55914850  0.08869600  0.92324650  1
  C  284  1  0.55409250  0.08038650  0.95377100  1
  C  285  1  0.57544000  0.11256600  0.98614300  1
  C  307  1  0.21504600  0.69411650  0.39447050  1
  C  308  1  0.25066100  0.69007350  0.40683050  1
  C  309  1  0.24851100  0.66553900  0.38124600  1
  C  310  1  0.21069600  0.64415900  0.34199300  1
  C  311  1  0.17493150  0.64789150  0.32961000  1
  C  312  1  0.17715150  0.67243750  0.35523300  1
  C  313  1  0.20682600  0.61867450  0.31608950  1
  C  314  1  0.24029050  0.62568200  0.31335950  1
  C  315  1  0.23564100  0.60037400  0.28679100  1
  C  316  1  0.20538700  0.58950250  0.24607750  1
  C  317  1  0.20319350  0.56659500  0.21869750  1
  C  318  1  0.23254700  0.55457700  0.23331800  1
  C  319  1  0.26278300  0.56448350  0.27390450  1
  C  320  1  0.26441200  0.58795550  0.30020450  1
  C  321  1  0.29221100  0.55326900  0.28787800  1
  C  322  1  0.29539950  0.53404200  0.31353850  1
  C  323  1  0.32728250  0.52581250  0.33206800  1
  C  324  1  0.34903900  0.53296500  0.37266500  1
  C  325  1  0.33554750  0.50682500  0.31179850  1
  C  326  1  0.36339900  0.49407700  0.33133900  1
  C  327  1  0.38313550  0.49948250  0.37154600  1
  C  328  1  0.37633400  0.51995500  0.39199400  1
  C  329  1  0.17357150  0.55832750  0.17882100  1
  C  330  1  0.15171800  0.52576700  0.14947400  1
  C  331  1  0.11805900  0.51711750  0.11116550  1
  C  332  1  0.07983500  0.51483300  0.10300400  1
  C  333  1  0.11896650  0.50702200  0.07932750  1
  C  334  1  0.08266050  0.49499000  0.04044950  1
  C  335  1  0.04379750  0.49167050  0.03215200  1
  C  336  1  0.04360700  0.50249650  0.06433550  1
  C  358  1  0.71579700  0.19308400  0.39629600  1
  C  359  1  0.68017700  0.16981600  0.35664600  1
  C  360  1  0.68233500  0.14639200  0.33426000  1
  C  361  1  0.72016300  0.14497200  0.35069100  1
  C  362  1  0.75592250  0.16834650  0.39018700  1
  C  363  1  0.75370500  0.19175700  0.41250800  1
  C  364  1  0.72402550  0.12291650  0.32908800  1
  C  365  1  0.69055750  0.08672350  0.30263400  1
  C  366  1  0.69520350  0.06480350  0.28197400  1
  C  367  1  0.72545850  0.05434200  0.30135250  1
  C  368  1  0.72763800  0.02914700  0.28063300  1
  C  369  1  0.69826800  0.01439950  0.23926550  1
  C  370  1  0.66804450  0.02476500  0.21894150  1
  C  371  1  0.66643150  0.04945100  0.24078550  1
  C  372  1  0.63861200  0.00931850  0.17830050  1
  C  373  1  0.63543100  0.03179500  0.15588800  1
  C  374  1  0.60358900  0.01844400  0.11576500  1
  C  375  1  0.58186650  0.03731100  0.10113950  1
  C  376  1  0.59539700  0.98994850  0.08853350  1
  C  377  1  0.56762100  0.98168100  0.04794000  1
  C  378  1  0.54779550  0.00207450  0.03357700  1
  C  379  1  0.55460750  0.02935400  0.06083150  1
  C  380  1  0.75723550  0.01886850  0.30198600  1
  C  381  1  0.77912750  0.01141450  0.29129500  1
  C  382  1  0.81276250  0.00673750  0.31630100  1
  C  383  1  0.85094900  0.03676450  0.35227150  1
  C  384  1  0.81187100  0.97401000  0.30527400  1
  C  385  1  0.84817550  0.97143400  0.32954850  1
  C  386  1  0.88700400  0.00196600  0.36512400  1
  C  387  1  0.88716600  0.03431150  0.37617250  1
  C  817  1  0.39863550  0.90905350  0.82195200  1
  C  819  1  0.44852000  0.93811450  0.89145050  1
  C  821  1  0.40172700  0.86899200  0.86187400  1
  C  823  1  0.53222700  0.43692500  0.42762300  1
  C  825  1  0.48236100  0.45656850  0.40679150  1
  C  827  1  0.52918200  0.47378100  0.38448800  1
  C  829  1  0.00435800  0.47590500  0.86084100  1
  C  831  1  0.96389400  0.45503800  0.88988200  1
  C  833  1  0.92437250  0.43274800  0.82075950  1
  C  835  1  0.92658150  0.87017050  0.38880400  1
  C  837  1  0.96699150  0.93967200  0.40836450  1
  C  839  1  0.00656450  0.91011750  0.42562100  1
  C  841  1  0.92646600  0.00260050  0.38760450  1
  C  843  1  0.96696650  0.97359150  0.40843500  1
  C  845  1  0.00645950  0.04271350  0.43071600  1
  C  847  1  0.00435000  0.47470300  0.99331800  1
  C  849  1  0.96389250  0.45510950  0.92381400  1
  C  851  1  0.92436250  0.43786000  0.95341050  1
  C  853  1  0.39864700  0.43581950  0.42652150  1
  C  855  1  0.44851750  0.45665850  0.40688400  1
  C  857  1  0.40169750  0.47896200  0.38967650  1
  C  859  1  0.53226850  0.04155550  0.95440500  1
  C  861  1  0.48237400  0.97205400  0.92537700  1
  C  863  1  0.52923850  0.00166350  0.99450100  1
  H  31  1  0.27895650  0.51988750  0.69399000  1
  H  32  1  0.27474950  0.55788150  0.73272200  1
  H  33  1  0.14997850  0.42274900  0.65472650  1
  H  34  1  0.14657850  0.46027050  0.69474400  1
  H  35  1  0.28722550  0.63700350  0.80733700  1
  H  36  1  0.18514250  0.53217050  0.79868600  1
  H  37  1  0.23238250  0.63984400  0.86793250  1
  H  38  1  0.07735200  0.50258650  0.80200550  1
  H  39  1  0.34360600  0.74372350  0.80499150  1
  H  40  1  0.38949800  0.81186900  0.81833400  1
  H  41  1  0.36566350  0.83423800  0.90028650  1
  H  42  1  0.31897450  0.76535950  0.88663400  1
  H  43  1  0.01641750  0.46194700  0.80617150  1
  H  44  1  0.08386600  0.54357350  0.91545450  1
  H  45  1  0.14571400  0.58446300  0.91129800  1
  H  46  1  0.27505450  0.69423950  0.80273600  1
  H  47  1  0.31261600  0.69762300  0.88298400  1
  H  48  1  0.17653300  0.52892800  0.72870400  1
  H  49  1  0.27051500  0.56639750  0.78897850  1
  H  50  1  0.15714850  0.59809800  0.85158250  1
  H  51  1  0.16615050  0.53483950  0.84420500  1
  H  82  1  0.65187000  0.42873400  0.15810100  1
  H  83  1  0.65607650  0.47167200  0.20030050  1
  H  84  1  0.78087650  0.51841700  0.18997850  1
  H  85  1  0.78427950  0.56183750  0.23090200  1
  H  86  1  0.64360950  0.53381150  0.26694700  1
  H  87  1  0.74573300  0.62723650  0.26423450  1
  H  88  1  0.69851600  0.64924800  0.32469400  1
  H  89  1  0.85364550  0.73831950  0.34267700  1
  H  90  1  0.58746150  0.47513350  0.31741800  1
  H  91  1  0.54156700  0.44252000  0.33965800  1
  H  92  1  0.56508250  0.54820650  0.38568300  1
  H  93  1  0.61177750  0.58129300  0.36352350  1
  H  94  1  0.91460400  0.80341450  0.36298150  1
  H  95  1  0.84699100  0.84527300  0.37680200  1
  H  96  1  0.78513400  0.77928650  0.35583950  1
  H  97  1  0.65591700  0.54145450  0.33646250  1
  H  98  1  0.61820050  0.58401050  0.30216800  1
  H  99  1  0.75429850  0.56584150  0.26959200  1
  H  100  1  0.66033750  0.53218350  0.21304200  1
  H  101  1  0.77371700  0.70813500  0.35817900  1
  H  102  1  0.76482750  0.69175950  0.28597300  1
  H  133  1  0.74304150  0.20633550  0.47167100  1
  H  134  1  0.74228300  0.24852000  0.50965900  1
  H  135  1  0.68517300  0.23817250  0.37453250  1
  H  136  1  0.68265650  0.27908000  0.41204650  1
  H  137  1  0.74681300  0.31517450  0.58877250  1
  H  138  1  0.65058850  0.31239850  0.48394700  1
  H  139  1  0.68910050  0.37289400  0.59163750  1
  H  140  1  0.61791900  0.39076050  0.45446350  1
  H  141  1  0.85602000  0.36570200  0.69543500  1
  H  142  1  0.91080800  0.38790550  0.76358750  1
  H  143  1  0.85109950  0.43391000  0.78601650  1
  H  144  1  0.79588550  0.41177550  0.71712800  1
  H  145  1  0.57311050  0.41104150  0.41378100  1
  H  146  1  0.54515700  0.42500250  0.49523950  1
  H  147  1  0.59019900  0.40405650  0.53616550  1
  H  148  1  0.80868650  0.38466550  0.64596500  1
  H  149  1  0.73187150  0.35044250  0.64943100  1
  H  150  1  0.71734850  0.31778050  0.48071100  1
  H  151  1  0.69452450  0.26125500  0.51816150  1
  H  152  1  0.66373550  0.40640700  0.54986450  1
  H  153  1  0.60775850  0.33409050  0.48665100  1
  H  184  1  0.18779500  0.74224350  0.38048750  1
  H  185  1  0.18852600  0.78096250  0.42343050  1
  H  186  1  0.24563550  0.70294100  0.47017350  1
  H  187  1  0.24812450  0.74294400  0.51359550  1
  H  188  1  0.18397200  0.85553900  0.48558000  1
  H  189  1  0.28014350  0.84686300  0.57898950  1
  H  190  1  0.24171800  0.91609650  0.60102350  1
  H  191  1  0.31311250  0.85019300  0.69012750  1
  H  192  1  0.07498250  0.85326950  0.42683700  1
  H  193  1  0.02019550  0.86662750  0.39429000  1
  H  194  1  0.07969050  0.94849000  0.50008550  1
  H  195  1  0.13489650  0.93482000  0.53312850  1
  H  196  1  0.35794800  0.85438600  0.75523100  1
  H  197  1  0.38549700  0.96362450  0.79703650  1
  H  198  1  0.34042550  0.95944450  0.73103300  1
  H  199  1  0.12211700  0.85095600  0.49313400  1
  H  200  1  0.19903600  0.93118500  0.53582500  1
  H  201  1  0.21342300  0.77689800  0.51760400  1
  H  202  1  0.23623500  0.83720050  0.48392750  1
  H  203  1  0.26710900  0.89972150  0.65990750  1
  H  204  1  0.32299850  0.89238100  0.64350650  1
  H  235  1  0.18780450  0.39179400  0.65710350  1
  H  236  1  0.18855350  0.35380050  0.61491500  1
  H  237  1  0.24562050  0.48891450  0.62522000  1
  H  238  1  0.24812900  0.45139250  0.58430950  1
  H  239  1  0.18401600  0.27466850  0.54824950  1
  H  240  1  0.28023600  0.37950500  0.55103800  1
  H  241  1  0.24178150  0.27183300  0.49057150  1
  H  242  1  0.31320150  0.40916550  0.47291000  1
  H  243  1  0.07480650  0.16805800  0.49767750  1
  H  244  1  0.01995850  0.09992350  0.47544200  1
  H  245  1  0.07976300  0.07741700  0.42958200  1
  H  246  1  0.13501650  0.14628700  0.45175250  1
  H  247  1  0.35800600  0.44980900  0.45261100  1
  H  248  1  0.38549000  0.36808950  0.43825650  1
  H  249  1  0.34045200  0.32720700  0.45921400  1
  H  250  1  0.12216600  0.21747850  0.47870650  1
  H  251  1  0.19900600  0.21403650  0.51306550  1
  H  252  1  0.21345650  0.38272700  0.54562950  1
  H  253  1  0.23629650  0.34529350  0.60217000  1
  H  254  1  0.26714400  0.31363750  0.45705550  1
  H  255  1  0.32310500  0.37682000  0.52940000  1
  H  286  1  0.74306500  0.48298700  0.12119900  1
  H  287  1  0.74230550  0.44004300  0.08245050  1
  H  288  1  0.68520050  0.39328050  0.16047400  1
  H  289  1  0.68268350  0.34985750  0.12044200  1
  H  290  1  0.74679950  0.37790800  0.00783950  1
  H  291  1  0.65062150  0.28447050  0.01649300  1
  H  292  1  0.68911350  0.26247700  0.94729750  1
  H  293  1  0.61781200  0.17338700  0.01324300  1
  H  294  1  0.85601050  0.43662550  0.01035200  1
  H  295  1  0.91082050  0.46917150  0.99701100  1
  H  296  1  0.85110850  0.36343350  0.91491300  1
  H  297  1  0.79587500  0.33039250  0.92855950  1
  H  298  1  0.57299350  0.10828900  0.00907650  1
  H  299  1  0.54530000  0.06644650  0.89977650  1
  H  300  1  0.59034750  0.13244350  0.90392500  1
  H  301  1  0.80866950  0.37033350  0.01251400  1
  H  302  1  0.73186050  0.32766600  0.93224750  1
  H  303  1  0.71737600  0.34585100  0.08646600  1
  H  304  1  0.69452950  0.37954400  0.02618750  1
  H  305  1  0.66372550  0.20360450  0.96364200  1
  H  306  1  0.60782350  0.21994650  0.97102300  1
  H  337  1  0.27899500  0.70534200  0.43474400  1
  H  338  1  0.27481500  0.66316750  0.39180650  1
  H  339  1  0.14999950  0.67346800  0.34504050  1
  H  340  1  0.14662250  0.63257300  0.30162050  1
  H  341  1  0.28729300  0.59650750  0.32967050  1
  H  342  1  0.18520750  0.59926700  0.23625150  1
  H  343  1  0.23240700  0.53879500  0.21423100  1
  H  344  1  0.07734650  0.52094600  0.12516050  1
  H  345  1  0.34338200  0.54599900  0.38831700  1
  H  346  1  0.38927400  0.52375050  0.42093650  1
  H  347  1  0.36584650  0.47779500  0.31528450  1
  H  348  1  0.31915350  0.49996450  0.28218300  1
  H  349  1  0.01638200  0.50063100  0.06006400  1
  H  350  1  0.08388900  0.48661450  0.01819550  1
  H  351  1  0.14576100  0.50759150  0.08419150  1
  H  352  1  0.27492850  0.52693450  0.32196500  1
  H  353  1  0.31276450  0.56137150  0.27952600  1
  H  354  1  0.17660800  0.59389500  0.29761900  1
  H  355  1  0.27058200  0.65042550  0.33131150  1
  H  356  1  0.15719050  0.50531900  0.15533950  1
  H  357  1  0.16614650  0.57755450  0.17173100  1
  H  388  1  0.65183700  0.16939000  0.34358200  1
  H  389  1  0.65602550  0.13063750  0.30559000  1
  H  390  1  0.78084750  0.20870350  0.44069600  1
  H  391  1  0.78423050  0.16866350  0.40317700  1
  H  392  1  0.64355050  0.05603550  0.22646100  1
  H  393  1  0.74562800  0.06468200  0.33129600  1
  H  394  1  0.69841350  0.99545650  0.22362300  1
  H  395  1  0.85343450  0.06140600  0.36088150  1
  H  396  1  0.58748950  0.05860600  0.11981550  1
  H  397  1  0.54162850  0.04532700  0.05167750  1
  H  398  1  0.56503650  0.96305650  0.02920400  1
  H  399  1  0.61171600  0.97666400  0.09809800  1
  H  400  1  0.91438500  0.05726050  0.40153650  1
  H  401  1  0.84697600  0.94798000  0.31992600  1
  H  402  1  0.78511200  0.95211550  0.27902150  1
  H  403  1  0.65587250  0.06068800  0.16925850  1
  H  404  1  0.61812700  0.98041450  0.16583150  1
  H  405  1  0.75423750  0.13466700  0.33451050  1
  H  406  1  0.66026850  0.07439000  0.29708950  1
  H  407  1  0.77369700  0.01185650  0.26539450  1
  H  408  1  0.76461650  0.01915300  0.32861650  1
  N  818  1  0.43044150  0.94111900  0.85506250  1
  N  820  1  0.43314250  0.90164750  0.89429800  1
  N  822  1  0.38534150  0.87382500  0.82670550  1
  N  824  1  0.50042850  0.43825050  0.42787700  1
  N  826  1  0.49776050  0.47479700  0.38571450  1
  N  828  1  0.54554500  0.45498500  0.40570500  1
  N  830  1  0.00329600  0.47613300  0.89289900  1
  N  832  1  0.92458700  0.43396200  0.85340800  1
  N  834  1  0.96438300  0.45397550  0.82560950  1
  N  836  1  0.92761000  0.90327450  0.39008250  1
  N  838  1  0.00631550  0.94253450  0.42659100  1
  N  840  1  0.96657350  0.87494250  0.40685300  1
  N  842  1  0.92755100  0.97055600  0.38735800  1
  N  844  1  0.00626150  0.01007250  0.42949500  1
  N  846  1  0.96643550  0.03784150  0.40950300  1
  N  848  1  0.00329200  0.47340900  0.96019900  1
  N  850  1  0.92458350  0.43687950  0.92097900  1
  N  852  1  0.96437200  0.45664450  0.98857250  1
  N  854  1  0.43045100  0.43557050  0.42520250  1
  N  856  1  0.43311900  0.47773750  0.38866050  1
  N  858  1  0.38533750  0.45774700  0.40847650  1
  N  860  1  0.50043900  0.00843450  0.92235150  1
  N  862  1  0.49778700  0.96922650  0.96185250  1
  N  864  1  0.54559350  0.03682000  0.98964250  1
