# generated using pymatgen
data_Ba2H8C16O9
_symmetry_space_group_name_H-M   'P 1'
_cell_length_a   13.95420000
_cell_length_b   19.47780000
_cell_length_c   23.76100000
_cell_angle_alpha   104.44400000
_cell_angle_beta   90.00000000
_cell_angle_gamma   90.00000000
_symmetry_Int_Tables_number   1
_chemical_formula_structural   Ba2H8C16O9
_chemical_formula_sum   'Ba24 H96 C192 O108'
_cell_volume   6254.04073775
_cell_formula_units_Z   12
loop_
 _symmetry_equiv_pos_site_id
 _symmetry_equiv_pos_as_xyz
  1  'x, y, z'
loop_
 _atom_site_type_symbol
 _atom_site_label
 _atom_site_symmetry_multiplicity
 _atom_site_fract_x
 _atom_site_fract_y
 _atom_site_fract_z
 _atom_site_occupancy
  Ba  Ba1  1  0.24821000  0.31763000  0.72967000  1.0
  Ba  Ba2  1  0.07188000  0.16410000  0.80592000  1.0
  Ba  Ba3  1  0.56115000  0.31989000  0.68487000  1.0
  Ba  Ba4  1  0.55204000  0.53153000  0.63811000  1.0
  Ba  Ba5  1  0.32855000  0.84377000  0.81342000  1.0
  Ba  Ba6  1  0.55681000  0.02210000  0.62660000  1.0
  Ba  Ba7  1  0.74821000  0.68237000  0.77033000  1.0
  Ba  Ba8  1  0.57188000  0.83590000  0.69408000  1.0
  Ba  Ba9  1  0.06115000  0.68011000  0.81513000  1.0
  Ba  Ba10  1  0.05204000  0.46847000  0.86189000  1.0
  Ba  Ba11  1  0.82855000  0.15623000  0.68658000  1.0
  Ba  Ba12  1  0.05681000  0.97790000  0.87340000  1.0
  Ba  Ba13  1  0.75179000  0.68237000  0.27033000  1.0
  Ba  Ba14  1  0.92812000  0.83590000  0.19408000  1.0
  Ba  Ba15  1  0.43885000  0.68011000  0.31513000  1.0
  Ba  Ba16  1  0.44796000  0.46847000  0.36189000  1.0
  Ba  Ba17  1  0.67145000  0.15623000  0.18658000  1.0
  Ba  Ba18  1  0.44319000  0.97790000  0.37340000  1.0
  Ba  Ba19  1  0.25179000  0.31763000  0.22967000  1.0
  Ba  Ba20  1  0.42812000  0.16410000  0.30592000  1.0
  Ba  Ba21  1  0.93885000  0.31989000  0.18487000  1.0
  Ba  Ba22  1  0.94796000  0.53153000  0.13811000  1.0
  Ba  Ba23  1  0.17145000  0.84377000  0.31342000  1.0
  Ba  Ba24  1  0.94319000  0.02210000  0.12660000  1.0
  H  H1  1  0.76380000  0.35170000  0.50000000  1.0
  H  H2  1  0.83330000  0.24630000  0.44930000  1.0
  H  H3  1  0.74230000  0.14480000  0.42510000  1.0
  H  H4  1  0.30470000  0.17390000  0.55450000  1.0
  H  H5  1  0.20370000  0.23160000  0.50450000  1.0
  H  H6  1  0.26620000  0.30150000  0.44900000  1.0
  H  H7  1  0.46940000  0.45940000  0.85230000  1.0
  H  H8  1  0.46500000  0.54610000  0.93860000  1.0
  H  H9  1  0.40200000  0.65610000  0.93960000  1.0
  H  H10  1  0.16540000  0.54770000  0.65210000  1.0
  H  H11  1  0.24130000  0.62370000  0.60750000  1.0
  H  H12  1  0.37120000  0.68800000  0.64960000  1.0
  H  H13  1  0.43730000  0.23630000  0.91670000  1.0
  H  H14  1  0.52360000  0.14850000  0.94390000  1.0
  H  H15  1  0.53670000  0.03700000  0.88030000  1.0
  H  H16  1  0.17620000  0.96950000  0.68860000  1.0
  H  H17  1  0.21200000  0.00950000  0.60760000  1.0
  H  H18  1  0.31880000  0.10160000  0.61460000  1.0
  H  H19  1  0.74940000  0.61270000  0.62160000  1.0
  H  H20  1  0.78240000  0.55580000  0.64130000  1.0
  H  H21  1  0.33710000  0.82530000  0.67330000  1.0
  H  H22  1  0.34370000  0.89340000  0.68920000  1.0
  H  H23  1  0.14960000  0.85380000  0.89620000  1.0
  H  H24  1  0.22350000  0.88070000  0.93450000  1.0
  H  H25  1  0.26380000  0.64830000  1.00000000  1.0
  H  H26  1  0.33333333  0.75370000  0.05070000  1.0
  H  H27  1  0.24230000  0.85520000  0.07490000  1.0
  H  H28  1  0.80470000  0.82610000  0.94550000  1.0
  H  H29  1  0.70370000  0.76840000  0.99550000  1.0
  H  H30  1  0.76620000  0.69850000  0.05100000  1.0
  H  H31  1  0.96940000  0.54060000  0.64770000  1.0
  H  H32  1  0.96500000  0.45390000  0.56140000  1.0
  H  H33  1  0.90200000  0.34390000  0.56040000  1.0
  H  H34  1  0.66540000  0.45230000  0.84790000  1.0
  H  H35  1  0.74130000  0.37630000  0.89250000  1.0
  H  H36  1  0.87120000  0.31200000  0.85040000  1.0
  H  H37  1  0.93730000  0.76370000  0.58330000  1.0
  H  H38  1  0.02360000  0.85150000  0.55610000  1.0
  H  H39  1  0.03670000  0.96300000  0.61970000  1.0
  H  H40  1  0.67620000  0.03050000  0.81140000  1.0
  H  H41  1  0.71200000  0.99050000  0.89240000  1.0
  H  H42  1  0.81880000  0.89840000  0.88540000  1.0
  H  H43  1  0.24940000  0.38730000  0.87840000  1.0
  H  H44  1  0.28240000  0.44420000  0.85870000  1.0
  H  H45  1  0.83710000  0.17470000  0.82670000  1.0
  H  H46  1  0.84370000  0.10660000  0.81080000  1.0
  H  H47  1  0.64960000  0.14620000  0.60380000  1.0
  H  H48  1  0.72350000  0.11930000  0.56550000  1.0
  H  H49  1  0.23620000  0.64830000  0.50000000  1.0
  H  H50  1  0.16670000  0.75370000  0.55070000  1.0
  H  H51  1  0.25770000  0.85520000  0.57490000  1.0
  H  H52  1  0.69530000  0.82610000  0.44550000  1.0
  H  H53  1  0.79630000  0.76840000  0.49550000  1.0
  H  H54  1  0.73380000  0.69850000  0.55100000  1.0
  H  H55  1  0.53060000  0.54060000  0.14770000  1.0
  H  H56  1  0.53500000  0.45390000  0.06140000  1.0
  H  H57  1  0.59800000  0.34390000  0.06040000  1.0
  H  H58  1  0.83460000  0.45230000  0.34790000  1.0
  H  H59  1  0.75870000  0.37630000  0.39250000  1.0
  H  H60  1  0.62880000  0.31200000  0.35040000  1.0
  H  H61  1  0.56270000  0.76370000  0.08330000  1.0
  H  H62  1  0.47640000  0.85150000  0.05610000  1.0
  H  H63  1  0.46330000  0.96300000  0.11970000  1.0
  H  H64  1  0.82380000  0.03050000  0.31140000  1.0
  H  H65  1  0.78800000  0.99050000  0.39240000  1.0
  H  H66  1  0.68120000  0.89840000  0.38540000  1.0
  H  H67  1  0.25060000  0.38730000  0.37840000  1.0
  H  H68  1  0.21760000  0.44420000  0.35870000  1.0
  H  H69  1  0.66290000  0.17470000  0.32670000  1.0
  H  H70  1  0.65630000  0.10660000  0.31080000  1.0
  H  H71  1  0.85040000  0.14620000  0.10380000  1.0
  H  H72  1  0.77650000  0.11930000  0.06550000  1.0
  H  H73  1  0.73620000  0.35170000  0.00000000  1.0
  H  H74  1  0.66666667  0.24630000  0.94930000  1.0
  H  H75  1  0.75770000  0.14480000  0.92510000  1.0
  H  H76  1  0.19530000  0.17390000  0.05450000  1.0
  H  H77  1  0.29630000  0.23160000  0.00450000  1.0
  H  H78  1  0.23380000  0.30150000  0.94900000  1.0
  H  H79  1  0.03060000  0.45940000  0.35230000  1.0
  H  H80  1  0.03500000  0.54610000  0.43860000  1.0
  H  H81  1  0.09800000  0.65610000  0.43960000  1.0
  H  H82  1  0.33460000  0.54770000  0.15210000  1.0
  H  H83  1  0.25870000  0.62370000  0.10750000  1.0
  H  H84  1  0.12880000  0.68800000  0.14960000  1.0
  H  H85  1  0.06270000  0.23630000  0.41670000  1.0
  H  H86  1  0.97640000  0.14850000  0.44390000  1.0
  H  H87  1  0.96330000  0.03700000  0.38030000  1.0
  H  H88  1  0.32380000  0.96950000  0.18860000  1.0
  H  H89  1  0.28800000  0.00950000  0.10760000  1.0
  H  H90  1  0.18120000  0.10160000  0.11460000  1.0
  H  H91  1  0.75060000  0.61270000  0.12160000  1.0
  H  H92  1  0.71760000  0.55580000  0.14130000  1.0
  H  H93  1  0.16290000  0.82530000  0.17330000  1.0
  H  H94  1  0.15630000  0.89340000  0.18920000  1.0
  H  H95  1  0.35040000  0.85380000  0.39620000  1.0
  H  H96  1  0.27650000  0.88070000  0.43450000  1.0
  C  C1  1  0.57410000  0.25290000  0.48550000  1.0
  C  C2  1  0.63180000  0.31280000  0.50450000  1.0
  C  C3  1  0.72700000  0.31060000  0.48960000  1.0
  C  C4  1  0.76870000  0.24780000  0.45900000  1.0
  C  C5  1  0.71350000  0.18770000  0.44320000  1.0
  C  C6  1  0.61720000  0.18980000  0.45370000  1.0
  C  C7  1  0.46830000  0.25200000  0.49580000  1.0
  C  C8  1  0.42830000  0.21090000  0.53040000  1.0
  C  C9  1  0.33040000  0.20280000  0.53240000  1.0
  C  C10  1  0.26970000  0.23690000  0.50220000  1.0
  C  C11  1  0.30690000  0.27820000  0.46910000  1.0
  C  C12  1  0.40510000  0.28570000  0.46530000  1.0
  C  C13  1  0.60000000  0.38050000  0.54720000  1.0
  C  C14  1  0.56000000  0.12250000  0.42960000  1.0
  C  C15  1  0.49110000  0.17500000  0.56480000  1.0
  C  C16  1  0.44130000  0.32930000  0.42550000  1.0
  C  C17  1  0.37380000  0.58460000  0.80140000  1.0
  C  C18  1  0.41250000  0.51810000  0.80140000  1.0
  C  C19  1  0.44510000  0.50410000  0.85290000  1.0
  C  C20  1  0.44190000  0.55540000  0.90450000  1.0
  C  C21  1  0.40370000  0.62120000  0.90490000  1.0
  C  C22  1  0.36810000  0.63640000  0.85510000  1.0
  C  C23  1  0.33610000  0.59840000  0.74650000  1.0
  C  C24  1  0.25260000  0.56400000  0.72260000  1.0
  C  C25  1  0.21890000  0.57280000  0.66940000  1.0
  C  C26  1  0.26430000  0.61810000  0.64280000  1.0
  C  C27  1  0.34320000  0.65540000  0.66720000  1.0
  C  C28  1  0.38240000  0.64470000  0.71900000  1.0
  C  C29  1  0.42040000  0.45840000  0.74700000  1.0
  C  C30  1  0.32530000  0.70820000  0.85870000  1.0
  C  C31  1  0.19780000  0.51810000  0.75370000  1.0
  C  C32  1  0.47320000  0.68330000  0.74210000  1.0
  C  C33  1  0.39430000  0.10800000  0.80190000  1.0
  C  C34  1  0.38800000  0.17650000  0.84020000  1.0
  C  C35  1  0.43910000  0.19090000  0.89220000  1.0
  C  C36  1  0.49280000  0.13890000  0.90810000  1.0
  C  C37  1  0.50020000  0.07180000  0.86990000  1.0
  C  C38  1  0.45430000  0.05670000  0.81720000  1.0
  C  C39  1  0.33800000  0.08650000  0.74740000  1.0
  C  C40  1  0.26540000  0.03530000  0.74400000  1.0
  C  C41  1  0.22070000  0.00570000  0.69120000  1.0
  C  C42  1  0.24180000  0.02970000  0.64280000  1.0
  C  C43  1  0.30720000  0.08370000  0.64680000  1.0
  C  C44  1  0.35650000  0.11210000  0.69910000  1.0
  C  C45  1  0.32640000  0.23430000  0.82730000  1.0
  C  C46  1  0.47530000  0.98520000  0.77530000  1.0
  C  C47  1  0.22810000  0.01580000  0.79760000  1.0
  C  C48  1  0.43270000  0.16870000  0.70120000  1.0
  C  C49  1  0.07410000  0.74710000  0.01450000  1.0
  C  C50  1  0.13180000  0.68720000  0.99550000  1.0
  C  C51  1  0.22700000  0.68940000  0.01040000  1.0
  C  C52  1  0.26870000  0.75220000  0.04100000  1.0
  C  C53  1  0.21350000  0.81230000  0.05680000  1.0
  C  C54  1  0.11720000  0.81020000  0.04630000  1.0
  C  C55  1  0.96830000  0.74800000  0.00420000  1.0
  C  C56  1  0.92830000  0.78910000  0.96960000  1.0
  C  C57  1  0.83040000  0.79720000  0.96760000  1.0
  C  C58  1  0.76970000  0.76310000  0.99780000  1.0
  C  C59  1  0.80690000  0.72180000  0.03090000  1.0
  C  C60  1  0.90510000  0.71430000  0.03470000  1.0
  C  C61  1  0.10000000  0.61950000  0.95280000  1.0
  C  C62  1  0.06000000  0.87750000  0.07040000  1.0
  C  C63  1  0.99110000  0.82500000  0.93520000  1.0
  C  C64  1  0.94130000  0.67070000  0.07450000  1.0
  C  C65  1  0.87380000  0.41540000  0.69860000  1.0
  C  C66  1  0.91250000  0.48190000  0.69860000  1.0
  C  C67  1  0.94510000  0.49590000  0.64710000  1.0
  C  C68  1  0.94190000  0.44460000  0.59550000  1.0
  C  C69  1  0.90370000  0.37880000  0.59510000  1.0
  C  C70  1  0.86810000  0.36360000  0.64490000  1.0
  C  C71  1  0.83610000  0.40160000  0.75350000  1.0
  C  C72  1  0.75260000  0.43600000  0.77740000  1.0
  C  C73  1  0.71890000  0.42720000  0.83060000  1.0
  C  C74  1  0.76430000  0.38190000  0.85720000  1.0
  C  C75  1  0.84320000  0.34460000  0.83280000  1.0
  C  C76  1  0.88240000  0.35530000  0.78100000  1.0
  C  C77  1  0.92040000  0.54160000  0.75300000  1.0
  C  C78  1  0.82530000  0.29180000  0.64130000  1.0
  C  C79  1  0.69780000  0.48190000  0.74630000  1.0
  C  C80  1  0.97320000  0.31670000  0.75790000  1.0
  C  C81  1  0.89430000  0.89200000  0.69810000  1.0
  C  C82  1  0.88800000  0.82350000  0.65980000  1.0
  C  C83  1  0.93910000  0.80910000  0.60780000  1.0
  C  C84  1  0.99280000  0.86110000  0.59190000  1.0
  C  C85  1  0.00020000  0.92820000  0.63010000  1.0
  C  C86  1  0.95430000  0.94330000  0.68280000  1.0
  C  C87  1  0.83800000  0.91350000  0.75260000  1.0
  C  C88  1  0.76540000  0.96470000  0.75600000  1.0
  C  C89  1  0.72070000  0.99430000  0.80880000  1.0
  C  C90  1  0.74180000  0.97030000  0.85720000  1.0
  C  C91  1  0.80720000  0.91630000  0.85320000  1.0
  C  C92  1  0.85650000  0.88790000  0.80090000  1.0
  C  C93  1  0.82640000  0.76570000  0.67270000  1.0
  C  C94  1  0.97530000  0.01480000  0.72470000  1.0
  C  C95  1  0.72810000  0.98420000  0.70240000  1.0
  C  C96  1  0.93270000  0.83130000  0.79880000  1.0
  C  C97  1  0.42590000  0.74710000  0.51450000  1.0
  C  C98  1  0.36820000  0.68720000  0.49550000  1.0
  C  C99  1  0.27300000  0.68940000  0.51040000  1.0
  C  C100  1  0.23130000  0.75220000  0.54100000  1.0
  C  C101  1  0.28650000  0.81230000  0.55680000  1.0
  C  C102  1  0.38280000  0.81020000  0.54630000  1.0
  C  C103  1  0.53170000  0.74800000  0.50420000  1.0
  C  C104  1  0.57170000  0.78910000  0.46960000  1.0
  C  C105  1  0.66960000  0.79720000  0.46760000  1.0
  C  C106  1  0.73030000  0.76310000  0.49780000  1.0
  C  C107  1  0.69310000  0.72180000  0.53090000  1.0
  C  C108  1  0.59490000  0.71430000  0.53470000  1.0
  C  C109  1  0.40000000  0.61950000  0.45280000  1.0
  C  C110  1  0.44000000  0.87750000  0.57040000  1.0
  C  C111  1  0.50890000  0.82500000  0.43520000  1.0
  C  C112  1  0.55870000  0.67070000  0.57450000  1.0
  C  C113  1  0.62620000  0.41540000  0.19860000  1.0
  C  C114  1  0.58750000  0.48190000  0.19860000  1.0
  C  C115  1  0.55490000  0.49590000  0.14710000  1.0
  C  C116  1  0.55810000  0.44460000  0.09550000  1.0
  C  C117  1  0.59630000  0.37880000  0.09510000  1.0
  C  C118  1  0.63190000  0.36360000  0.14490000  1.0
  C  C119  1  0.66390000  0.40160000  0.25350000  1.0
  C  C120  1  0.74740000  0.43600000  0.27740000  1.0
  C  C121  1  0.78110000  0.42720000  0.33060000  1.0
  C  C122  1  0.73570000  0.38190000  0.35720000  1.0
  C  C123  1  0.65680000  0.34460000  0.33280000  1.0
  C  C124  1  0.61760000  0.35530000  0.28100000  1.0
  C  C125  1  0.57960000  0.54160000  0.25300000  1.0
  C  C126  1  0.67470000  0.29180000  0.14130000  1.0
  C  C127  1  0.80220000  0.48190000  0.24630000  1.0
  C  C128  1  0.52680000  0.31670000  0.25790000  1.0
  C  C129  1  0.60570000  0.89200000  0.19810000  1.0
  C  C130  1  0.61200000  0.82350000  0.15980000  1.0
  C  C131  1  0.56090000  0.80910000  0.10780000  1.0
  C  C132  1  0.50720000  0.86110000  0.09190000  1.0
  C  C133  1  0.49980000  0.92820000  0.13010000  1.0
  C  C134  1  0.54570000  0.94330000  0.18280000  1.0
  C  C135  1  0.66200000  0.91350000  0.25260000  1.0
  C  C136  1  0.73460000  0.96470000  0.25600000  1.0
  C  C137  1  0.77930000  0.99430000  0.30880000  1.0
  C  C138  1  0.75820000  0.97030000  0.35720000  1.0
  C  C139  1  0.69280000  0.91630000  0.35320000  1.0
  C  C140  1  0.64350000  0.88790000  0.30090000  1.0
  C  C141  1  0.67360000  0.76570000  0.17270000  1.0
  C  C142  1  0.52470000  0.01480000  0.22470000  1.0
  C  C143  1  0.77190000  0.98420000  0.20240000  1.0
  C  C144  1  0.56730000  0.83130000  0.29880000  1.0
  C  C145  1  0.92590000  0.25290000  0.98550000  1.0
  C  C146  1  0.86820000  0.31280000  0.00450000  1.0
  C  C147  1  0.77300000  0.31060000  0.98960000  1.0
  C  C148  1  0.73130000  0.24780000  0.95900000  1.0
  C  C149  1  0.78650000  0.18770000  0.94320000  1.0
  C  C150  1  0.88280000  0.18980000  0.95370000  1.0
  C  C151  1  0.03170000  0.25200000  0.99580000  1.0
  C  C152  1  0.07170000  0.21090000  0.03040000  1.0
  C  C153  1  0.16960000  0.20280000  0.03240000  1.0
  C  C154  1  0.23030000  0.23690000  0.00220000  1.0
  C  C155  1  0.19310000  0.27820000  0.96910000  1.0
  C  C156  1  0.09490000  0.28570000  0.96530000  1.0
  C  C157  1  0.90000000  0.38050000  0.04720000  1.0
  C  C158  1  0.94000000  0.12250000  0.92960000  1.0
  C  C159  1  0.00890000  0.17500000  0.06480000  1.0
  C  C160  1  0.05870000  0.32930000  0.92550000  1.0
  C  C161  1  0.12620000  0.58460000  0.30140000  1.0
  C  C162  1  0.08750000  0.51810000  0.30140000  1.0
  C  C163  1  0.05490000  0.50410000  0.35290000  1.0
  C  C164  1  0.05810000  0.55540000  0.40450000  1.0
  C  C165  1  0.09630000  0.62120000  0.40490000  1.0
  C  C166  1  0.13190000  0.63640000  0.35510000  1.0
  C  C167  1  0.16390000  0.59840000  0.24650000  1.0
  C  C168  1  0.24740000  0.56400000  0.22260000  1.0
  C  C169  1  0.28110000  0.57280000  0.16940000  1.0
  C  C170  1  0.23570000  0.61810000  0.14280000  1.0
  C  C171  1  0.15680000  0.65540000  0.16720000  1.0
  C  C172  1  0.11760000  0.64470000  0.21900000  1.0
  C  C173  1  0.07960000  0.45840000  0.24700000  1.0
  C  C174  1  0.17470000  0.70820000  0.35870000  1.0
  C  C175  1  0.30220000  0.51810000  0.25370000  1.0
  C  C176  1  0.02680000  0.68330000  0.24210000  1.0
  C  C177  1  0.10570000  0.10800000  0.30190000  1.0
  C  C178  1  0.11200000  0.17650000  0.34020000  1.0
  C  C179  1  0.06090000  0.19090000  0.39220000  1.0
  C  C180  1  0.00720000  0.13890000  0.40810000  1.0
  C  C181  1  0.99980000  0.07180000  0.36990000  1.0
  C  C182  1  0.04570000  0.05670000  0.31720000  1.0
  C  C183  1  0.16200000  0.08650000  0.24740000  1.0
  C  C184  1  0.23460000  0.03530000  0.24400000  1.0
  C  C185  1  0.27930000  0.00570000  0.19120000  1.0
  C  C186  1  0.25820000  0.02970000  0.14280000  1.0
  C  C187  1  0.19280000  0.08370000  0.14680000  1.0
  C  C188  1  0.14350000  0.11210000  0.19910000  1.0
  C  C189  1  0.17360000  0.23430000  0.32730000  1.0
  C  C190  1  0.02470000  0.98520000  0.27530000  1.0
  C  C191  1  0.27190000  0.01580000  0.29760000  1.0
  C  C192  1  0.06730000  0.16870000  0.20120000  1.0
  O  O1  1  0.54370000  0.37590000  0.58762000  1.0
  O  O2  1  0.63430000  0.43790000  0.54146000  1.0
  O  O3  1  0.59150000  0.06530000  0.43719000  1.0
  O  O4  1  0.48620000  0.12560000  0.40073000  1.0
  O  O5  1  0.47340000  0.11190000  0.56588000  1.0
  O  O6  1  0.56140000  0.21010000  0.59203000  1.0
  O  O7  1  0.45640000  0.39310000  0.44582000  1.0
  O  O8  1  0.45040000  0.29850000  0.37180000  1.0
  O  O9  1  0.43330000  0.47180000  0.69887000  1.0
  O  O10  1  0.41490000  0.39630000  0.75431000  1.0
  O  O11  1  0.36960000  0.76020000  0.88890000  1.0
  O  O12  1  0.25100000  0.71360000  0.83070000  1.0
  O  O13  1  0.14620000  0.54850000  0.79520000  1.0
  O  O14  1  0.20550000  0.45300000  0.73640000  1.0
  O  O15  1  0.54810000  0.64930000  0.74153000  1.0
  O  O16  1  0.46700000  0.75110000  0.75984000  1.0
  O  O17  1  0.24770000  0.21910000  0.80297000  1.0
  O  O18  1  0.35970000  0.29610000  0.84270000  1.0
  O  O19  1  0.47700000  0.93130000  0.79591000  1.0
  O  O20  1  0.49460000  0.98240000  0.72370000  1.0
  O  O21  1  0.22390000  0.95170000  0.79758000  1.0
  O  O22  1  0.19660000  0.06500000  0.83789000  1.0
  O  O23  1  0.51800000  0.15140000  0.70340000  1.0
  O  O24  1  0.40370000  0.22970000  0.69970000  1.0
  O  O25  1  0.74060000  0.58850000  0.64640000  1.0
  O  O26  1  0.36040000  0.85340000  0.69430000  1.0
  O  O27  1  0.19670000  0.88240000  0.90268000  1.0
  O  O28  1  0.04370000  0.62410000  0.91238000  1.0
  O  O29  1  0.13430000  0.56210000  0.95854000  1.0
  O  O30  1  0.09150000  0.93470000  0.06281000  1.0
  O  O31  1  0.98620000  0.87440000  0.09927000  1.0
  O  O32  1  0.97340000  0.88810000  0.93412000  1.0
  O  O33  1  0.06140000  0.78990000  0.90797000  1.0
  O  O34  1  0.95640000  0.60690000  0.05418000  1.0
  O  O35  1  0.95040000  0.70150000  0.12820000  1.0
  O  O36  1  0.93330000  0.52820000  0.80113000  1.0
  O  O37  1  0.91490000  0.60370000  0.74569000  1.0
  O  O38  1  0.86960000  0.23980000  0.61110000  1.0
  O  O39  1  0.75100000  0.28640000  0.66930000  1.0
  O  O40  1  0.64620000  0.45150000  0.70480000  1.0
  O  O41  1  0.70550000  0.54700000  0.76360000  1.0
  O  O42  1  0.04810000  0.35070000  0.75847000  1.0
  O  O43  1  0.96700000  0.24890000  0.74016000  1.0
  O  O44  1  0.74770000  0.78090000  0.69703000  1.0
  O  O45  1  0.85970000  0.70390000  0.65730000  1.0
  O  O46  1  0.97700000  0.06870000  0.70409000  1.0
  O  O47  1  0.99460000  0.01760000  0.77630000  1.0
  O  O48  1  0.72390000  0.04830000  0.70242000  1.0
  O  O49  1  0.69660000  0.93500000  0.66211000  1.0
  O  O50  1  0.01800000  0.84860000  0.79660000  1.0
  O  O51  1  0.90370000  0.77030000  0.80030000  1.0
  O  O52  1  0.24060000  0.41150000  0.85360000  1.0
  O  O53  1  0.86040000  0.14660000  0.80570000  1.0
  O  O54  1  0.69670000  0.11760000  0.59732000  1.0
  O  O55  1  0.45630000  0.62410000  0.41238000  1.0
  O  O56  1  0.36570000  0.56210000  0.45854000  1.0
  O  O57  1  0.40850000  0.93470000  0.56281000  1.0
  O  O58  1  0.51380000  0.87440000  0.59927000  1.0
  O  O59  1  0.52660000  0.88810000  0.43412000  1.0
  O  O60  1  0.43860000  0.78990000  0.40797000  1.0
  O  O61  1  0.54360000  0.60690000  0.55418000  1.0
  O  O62  1  0.54960000  0.70150000  0.62820000  1.0
  O  O63  1  0.56670000  0.52820000  0.30113000  1.0
  O  O64  1  0.58510000  0.60370000  0.24569000  1.0
  O  O65  1  0.63040000  0.23980000  0.11110000  1.0
  O  O66  1  0.74900000  0.28640000  0.16930000  1.0
  O  O67  1  0.85380000  0.45150000  0.20480000  1.0
  O  O68  1  0.79450000  0.54700000  0.26360000  1.0
  O  O69  1  0.45190000  0.35070000  0.25847000  1.0
  O  O70  1  0.53300000  0.24890000  0.24016000  1.0
  O  O71  1  0.75230000  0.78090000  0.19703000  1.0
  O  O72  1  0.64030000  0.70390000  0.15730000  1.0
  O  O73  1  0.52300000  0.06870000  0.20409000  1.0
  O  O74  1  0.50540000  0.01760000  0.27630000  1.0
  O  O75  1  0.77610000  0.04830000  0.20242000  1.0
  O  O76  1  0.80340000  0.93500000  0.16211000  1.0
  O  O77  1  0.48200000  0.84860000  0.29660000  1.0
  O  O78  1  0.59630000  0.77030000  0.30030000  1.0
  O  O79  1  0.25940000  0.41150000  0.35360000  1.0
  O  O80  1  0.63960000  0.14660000  0.30570000  1.0
  O  O81  1  0.80330000  0.11760000  0.09732000  1.0
  O  O82  1  0.95630000  0.37590000  0.08762000  1.0
  O  O83  1  0.86570000  0.43790000  0.04146000  1.0
  O  O84  1  0.90850000  0.06530000  0.93719000  1.0
  O  O85  1  0.01380000  0.12560000  0.90073000  1.0
  O  O86  1  0.02660000  0.11190000  0.06588000  1.0
  O  O87  1  0.93860000  0.21010000  0.09203000  1.0
  O  O88  1  0.04360000  0.39310000  0.94582000  1.0
  O  O89  1  0.04960000  0.29850000  0.87180000  1.0
  O  O90  1  0.06670000  0.47180000  0.19887000  1.0
  O  O91  1  0.08510000  0.39630000  0.25431000  1.0
  O  O92  1  0.13040000  0.76020000  0.38890000  1.0
  O  O93  1  0.24900000  0.71360000  0.33070000  1.0
  O  O94  1  0.35380000  0.54850000  0.29520000  1.0
  O  O95  1  0.29450000  0.45300000  0.23640000  1.0
  O  O96  1  0.95190000  0.64930000  0.24153000  1.0
  O  O97  1  0.03300000  0.75110000  0.25984000  1.0
  O  O98  1  0.25230000  0.21910000  0.30297000  1.0
  O  O99  1  0.14030000  0.29610000  0.34270000  1.0
  O  O100  1  0.02300000  0.93130000  0.29591000  1.0
  O  O101  1  0.00540000  0.98240000  0.22370000  1.0
  O  O102  1  0.27610000  0.95170000  0.29758000  1.0
  O  O103  1  0.30340000  0.06500000  0.33789000  1.0
  O  O104  1  0.98200000  0.15140000  0.20340000  1.0
  O  O105  1  0.09630000  0.22970000  0.19970000  1.0
  O  O106  1  0.75940000  0.58850000  0.14640000  1.0
  O  O107  1  0.13960000  0.85340000  0.19430000  1.0
  O  O108  1  0.30330000  0.88240000  0.40268000  1.0
