# generated using pymatgen
data_MgH2C6SO4
_symmetry_space_group_name_H-M   'P 1'
_cell_length_a   10.04830000
_cell_length_b   13.49690000
_cell_length_c   16.73460000
_cell_angle_alpha   90.00000000
_cell_angle_beta   93.68300000
_cell_angle_gamma   90.00000000
_symmetry_Int_Tables_number   1
_chemical_formula_structural   MgH2C6SO4
_chemical_formula_sum   'Mg8 H16 C48 S8 O32'
_cell_volume   2264.87424098
_cell_formula_units_Z   8
loop_
 _symmetry_equiv_pos_site_id
 _symmetry_equiv_pos_as_xyz
  1  'x, y, z'
loop_
 _atom_site_type_symbol
 _atom_site_label
 _atom_site_symmetry_multiplicity
 _atom_site_fract_x
 _atom_site_fract_y
 _atom_site_fract_z
 _atom_site_occupancy
  Mg  Mg1  1  0.40775000  0.34378000  0.02570000  1.0
  Mg  Mg2  1  0.52930000  0.10289000  0.05125000  1.0
  Mg  Mg3  1  0.09225000  0.84378000  0.47430000  1.0
  Mg  Mg4  1  0.97070000  0.60289000  0.44875000  1.0
  Mg  Mg5  1  0.59225000  0.65622000  0.97430000  1.0
  Mg  Mg6  1  0.47070000  0.89711000  0.94875000  1.0
  Mg  Mg7  1  0.90775000  0.15622000  0.52570000  1.0
  Mg  Mg8  1  0.02930000  0.39711000  0.55125000  1.0
  H  H1  1  0.31020000  0.80920000  0.26260000  1.0
  H  H2  1  0.40610000  0.75150000  0.14070000  1.0
  H  H3  1  0.63890000  0.45200000  0.18900000  1.0
  H  H4  1  0.76720000  0.50750000  0.30960000  1.0
  H  H5  1  0.18980000  0.30920000  0.23740000  1.0
  H  H6  1  0.09390000  0.25150000  0.35930000  1.0
  H  H7  1  0.86110000  0.95200000  0.31100000  1.0
  H  H8  1  0.73280000  0.00750000  0.19040000  1.0
  H  H9  1  0.68980000  0.19080000  0.73740000  1.0
  H  H10  1  0.59390000  0.24850000  0.85930000  1.0
  H  H11  1  0.36110000  0.54800000  0.81100000  1.0
  H  H12  1  0.23280000  0.49250000  0.69040000  1.0
  H  H13  1  0.81020000  0.69080000  0.76260000  1.0
  H  H14  1  0.90610000  0.74850000  0.64070000  1.0
  H  H15  1  0.13890000  0.04800000  0.68900000  1.0
  H  H16  1  0.26720000  0.99250000  0.80960000  1.0
  C  C1  1  0.19920000  0.67740000  0.36814000  1.0
  C  C2  1  0.27190000  0.66760000  0.29343000  1.0
  C  C3  1  0.37090000  0.60942000  0.17139000  1.0
  C  C4  1  0.41820000  0.54935000  0.10365000  1.0
  C  C5  1  0.62300000  0.25110000  0.14897000  1.0
  C  C6  1  0.68420000  0.30970000  0.21697000  1.0
  C  C7  1  0.81140000  0.36394000  0.33909000  1.0
  C  C8  1  0.89140000  0.37013000  0.41520000  1.0
  C  C9  1  0.31610000  0.74270000  0.24855000  1.0
  C  C10  1  0.37200000  0.70930000  0.17833000  1.0
  C  C11  1  0.68330000  0.40930000  0.22533000  1.0
  C  C12  1  0.75680000  0.44130000  0.29501000  1.0
  C  C13  1  0.30080000  0.17740000  0.13186000  1.0
  C  C14  1  0.22810000  0.16760000  0.20657000  1.0
  C  C15  1  0.12910000  0.10942000  0.32861000  1.0
  C  C16  1  0.08180000  0.04935000  0.39635000  1.0
  C  C17  1  0.87700000  0.75110000  0.35103000  1.0
  C  C18  1  0.81580000  0.80970000  0.28303000  1.0
  C  C19  1  0.68860000  0.86394000  0.16091000  1.0
  C  C20  1  0.60860000  0.87013000  0.08480000  1.0
  C  C21  1  0.18390000  0.24270000  0.25145000  1.0
  C  C22  1  0.12800000  0.20930000  0.32167000  1.0
  C  C23  1  0.81670000  0.90930000  0.27467000  1.0
  C  C24  1  0.74320000  0.94130000  0.20499000  1.0
  C  C25  1  0.80080000  0.32260000  0.63186000  1.0
  C  C26  1  0.72810000  0.33240000  0.70657000  1.0
  C  C27  1  0.62910000  0.39058000  0.82861000  1.0
  C  C28  1  0.58180000  0.45065000  0.89635000  1.0
  C  C29  1  0.37700000  0.74890000  0.85103000  1.0
  C  C30  1  0.31580000  0.69030000  0.78303000  1.0
  C  C31  1  0.18860000  0.63606000  0.66091000  1.0
  C  C32  1  0.10860000  0.62987000  0.58480000  1.0
  C  C33  1  0.68390000  0.25730000  0.75145000  1.0
  C  C34  1  0.62800000  0.29070000  0.82167000  1.0
  C  C35  1  0.31670000  0.59070000  0.77467000  1.0
  C  C36  1  0.24320000  0.55870000  0.70499000  1.0
  C  C37  1  0.69920000  0.82260000  0.86814000  1.0
  C  C38  1  0.77190000  0.83240000  0.79343000  1.0
  C  C39  1  0.87090000  0.89058000  0.67139000  1.0
  C  C40  1  0.91820000  0.95065000  0.60365000  1.0
  C  C41  1  0.12300000  0.24890000  0.64897000  1.0
  C  C42  1  0.18420000  0.19030000  0.71697000  1.0
  C  C43  1  0.31140000  0.13606000  0.83909000  1.0
  C  C44  1  0.39140000  0.12987000  0.91520000  1.0
  C  C45  1  0.81610000  0.75730000  0.74855000  1.0
  C  C46  1  0.87200000  0.79070000  0.67833000  1.0
  C  C47  1  0.18330000  0.09070000  0.72533000  1.0
  C  C48  1  0.25680000  0.05870000  0.79501000  1.0
  S  S1  1  0.29854000  0.55461000  0.25008000  1.0
  S  S2  1  0.77207000  0.25203000  0.29480000  1.0
  S  S3  1  0.20146000  0.05461000  0.24992000  1.0
  S  S4  1  0.72793000  0.75203000  0.20520000  1.0
  S  S5  1  0.70146000  0.44539000  0.74992000  1.0
  S  S6  1  0.22793000  0.74797000  0.70520000  1.0
  S  S7  1  0.79854000  0.94539000  0.75008000  1.0
  S  S8  1  0.27207000  0.24797000  0.79480000  1.0
  O  O1  1  0.38640000  0.46066000  0.10148000  1.0
  O  O2  1  0.92062000  0.29501000  0.45628000  1.0
  O  O3  1  0.62260000  0.15887000  0.15495000  1.0
  O  O4  1  0.93307000  0.45451000  0.43882000  1.0
  O  O5  1  0.14369000  0.60059000  0.39329000  1.0
  O  O6  1  0.19900000  0.76129000  0.39861000  1.0
  O  O7  1  0.48450000  0.59248000  0.05543000  1.0
  O  O8  1  0.57700000  0.29680000  0.08853000  1.0
  O  O9  1  0.11360000  0.96066000  0.39852000  1.0
  O  O10  1  0.57938000  0.79501000  0.04372000  1.0
  O  O11  1  0.87740000  0.65887000  0.34505000  1.0
  O  O12  1  0.56693000  0.95451000  0.06118000  1.0
  O  O13  1  0.35631000  0.10059000  0.10671000  1.0
  O  O14  1  0.30100000  0.26129000  0.10139000  1.0
  O  O15  1  0.01550000  0.09248000  0.44457000  1.0
  O  O16  1  0.92300000  0.79680000  0.41147000  1.0
  O  O17  1  0.61360000  0.53934000  0.89852000  1.0
  O  O18  1  0.07938000  0.70499000  0.54372000  1.0
  O  O19  1  0.37740000  0.84113000  0.84505000  1.0
  O  O20  1  0.06693000  0.54549000  0.56118000  1.0
  O  O21  1  0.85631000  0.39941000  0.60671000  1.0
  O  O22  1  0.80100000  0.23871000  0.60139000  1.0
  O  O23  1  0.51550000  0.40752000  0.94457000  1.0
  O  O24  1  0.42300000  0.70320000  0.91147000  1.0
  O  O25  1  0.88640000  0.03934000  0.60148000  1.0
  O  O26  1  0.42062000  0.20499000  0.95628000  1.0
  O  O27  1  0.12260000  0.34113000  0.65495000  1.0
  O  O28  1  0.43307000  0.04549000  0.93882000  1.0
  O  O29  1  0.64369000  0.89941000  0.89329000  1.0
  O  O30  1  0.69900000  0.73871000  0.89861000  1.0
  O  O31  1  0.98450000  0.90752000  0.55543000  1.0
  O  O32  1  0.07700000  0.20320000  0.58853000  1.0
