# generated using pymatgen
data_CN
_symmetry_space_group_name_H-M   'P 1'
_cell_length_a   7.23277500
_cell_length_b   15.47830000
_cell_length_c   15.47830000
_cell_angle_alpha   90.00000000
_cell_angle_beta   90.00000000
_cell_angle_gamma   90.00000000
_symmetry_Int_Tables_number   1
_chemical_formula_structural   CN
_chemical_formula_sum   'C24 N24'
_cell_volume   1732.81211185
_cell_formula_units_Z   24
loop_
 _symmetry_equiv_pos_site_id
 _symmetry_equiv_pos_as_xyz
  1  'x, y, z'
loop_
 _atom_site_type_symbol
 _atom_site_label
 _atom_site_symmetry_multiplicity
 _atom_site_fract_x
 _atom_site_fract_y
 _atom_site_fract_z
 _atom_site_occupancy
  C  1  1  0.93504300  0.07592900  0.88398500  1
  C  3  1  0.01747300  0.00872300  0.75257500  1
  C  5  1  0.09983500  0.94160100  0.88404300  1
  C  7  1  0.43491700  0.94154600  0.13343500  1
  C  9  1  0.51747100  0.00869200  0.26485200  1
  C  11  1  0.59994300  0.07580400  0.13340100  1
  C  13  1  0.68444700  0.13342700  0.07570300  1
  C  15  1  0.76752300  0.26486400  0.00875500  1
  C  17  1  0.84963500  0.13345400  0.94148100  1
  C  19  1  0.18458400  0.88399800  0.94167900  1
  C  21  1  0.26750700  0.75255500  0.00867300  1
  C  23  1  0.35015100  0.88396200  0.07579200  1
  C  25  1  0.85286800  0.01699300  0.53064300  1
  C  27  1  0.18208700  0.00044100  0.53065000  1
  C  29  1  0.01747400  0.00869500  0.66252000  1
  C  31  1  0.35286900  0.00042900  0.48678200  1
  C  33  1  0.68208800  0.01698600  0.48678000  1
  C  35  1  0.51747200  0.00870100  0.35491100  1
  C  37  1  0.60292100  0.48677500  0.01698700  1
  C  39  1  0.93215500  0.48677500  0.00047700  1
  C  41  1  0.76757200  0.35491400  0.00879400  1
  C  43  1  0.10291700  0.53064900  0.00046100  1
  C  45  1  0.43214300  0.53064200  0.01698100  1
  C  47  1  0.26753900  0.66250300  0.00865600  1
  N  2  1  0.93510000  0.07540500  0.79625200  1
  N  4  1  0.09975100  0.94204700  0.79630700  1
  N  6  1  0.01740900  0.00877700  0.92369500  1
  N  8  1  0.43516700  0.94199200  0.22116900  1
  N  10  1  0.59972200  0.07539000  0.22113700  1
  N  12  1  0.51740800  0.00866900  0.09374700  1
  N  14  1  0.68505200  0.22115600  0.07538500  1
  N  16  1  0.84983400  0.22118400  0.94205300  1
  N  18  1  0.76703600  0.09375800  0.00857900  1
  N  20  1  0.18504300  0.79626500  0.94203400  1
  N  22  1  0.34988700  0.79623300  0.07535200  1
  N  24  1  0.26732000  0.92366600  0.00875600  1
  N  26  1  0.01748300  0.00871100  0.48798400  1
  N  28  1  0.17811900  0.99859100  0.61837800  1
  N  30  1  0.85684400  0.01882100  0.61837100  1
  N  32  1  0.51748200  0.00870800  0.52944100  1
  N  34  1  0.67811500  0.01881600  0.39905300  1
  N  36  1  0.35683700  0.99859100  0.39905800  1
  N  38  1  0.76753300  0.52944100  0.00871800  1
  N  40  1  0.92820000  0.39905300  0.99865500  1
  N  42  1  0.60691300  0.39905300  0.01886700  1
  N  44  1  0.26752700  0.48798200  0.00873000  1
  N  46  1  0.42817900  0.61836500  0.01879000  1
  N  48  1  0.10688500  0.61837100  0.99857800  1
