# generated using pymatgen
data_H3C5
_symmetry_space_group_name_H-M   'P 1'
_cell_length_a   15.20125000
_cell_length_b   15.20120000
_cell_length_c   52.63490000
_cell_angle_alpha   90.02890000
_cell_angle_beta   89.98210000
_cell_angle_gamma   90.00000000
_symmetry_Int_Tables_number   1
_chemical_formula_structural   H3C5
_chemical_formula_sum   'H72 C120'
_cell_volume   12162.72535785
_cell_formula_units_Z   24
loop_
 _symmetry_equiv_pos_site_id
 _symmetry_equiv_pos_as_xyz
  1  'x, y, z'
loop_
 _atom_site_type_symbol
 _atom_site_label
 _atom_site_symmetry_multiplicity
 _atom_site_fract_x
 _atom_site_fract_y
 _atom_site_fract_z
 _atom_site_occupancy
  C  1  1  0.00599900  0.50612600  0.93635700  1
  C  2  1  0.08434500  0.50612500  0.92155500  1
  C  3  1  0.08922300  0.50610100  0.89457700  1
  C  4  1  0.00603000  0.50609700  0.88232900  1
  C  5  1  0.92282000  0.50609900  0.89458100  1
  C  6  1  0.92767000  0.50610500  0.92156000  1
  C  10  1  0.50603400  0.00620000  0.43637200  1
  C  11  1  0.50603000  0.92788600  0.42156100  1
  C  12  1  0.50603400  0.92303300  0.39458400  1
  C  13  1  0.50603800  0.00623000  0.38234500  1
  C  14  1  0.50603800  0.08943600  0.39460500  1
  C  15  1  0.50604200  0.08456200  0.42158500  1
  C  19  1  0.00601300  0.50614300  0.96453000  1
  C  20  1  0.08434800  0.50614700  0.97932700  1
  C  21  1  0.08919700  0.50616700  0.00630600  1
  C  22  1  0.00598200  0.50617600  0.01855800  1
  C  23  1  0.92278800  0.50617300  0.00631000  1
  C  24  1  0.92766900  0.50616700  0.97933200  1
  C  28  1  0.50603500  0.00607100  0.46454500  1
  C  29  1  0.50603200  0.08438000  0.47935900  1
  C  30  1  0.50603600  0.08923600  0.50633500  1
  C  31  1  0.50603700  0.00604100  0.51857400  1
  C  32  1  0.50603700  0.92283600  0.50631200  1
  C  33  1  0.50604000  0.92770900  0.47933200  1
  C  37  1  0.58936000  0.50605400  0.83842100  1
  C  38  1  0.50606500  0.50606100  0.85066800  1
  C  39  1  0.42279600  0.50605400  0.83842400  1
  C  40  1  0.42757600  0.50603900  0.81145800  1
  C  41  1  0.50611100  0.50602700  0.79682500  1
  C  42  1  0.58462600  0.50603900  0.81145400  1
  C  43  1  0.34055400  0.50606500  0.85226300  1
  C  44  1  0.33525900  0.50608700  0.87926700  1
  C  45  1  0.25525000  0.50609800  0.89272500  1
  C  46  1  0.17144100  0.50609300  0.88070300  1
  C  47  1  0.17675300  0.50606900  0.85369100  1
  C  48  1  0.25677400  0.50605700  0.84022900  1
  C  49  1  0.67156900  0.50606500  0.85226400  1
  C  50  1  0.67681100  0.50609100  0.87926900  1
  C  51  1  0.75679600  0.50610200  0.89272800  1
  C  52  1  0.84063000  0.50608800  0.88070700  1
  C  53  1  0.83536500  0.50606700  0.85369400  1
  C  54  1  0.75537300  0.50605600  0.84023100  1
  C  55  1  0.50611200  0.50602500  0.76886400  1
  C  56  1  0.58513700  0.50603200  0.75414400  1
  C  57  1  0.58560800  0.50607200  0.72742600  1
  C  58  1  0.50611500  0.50611300  0.71383800  1
  C  59  1  0.42661900  0.50607200  0.72743900  1
  C  60  1  0.42709000  0.50603200  0.75415600  1
  C  76  1  0.50604000  0.42287700  0.33843300  1
  C  77  1  0.50604000  0.50618100  0.35067800  1
  C  78  1  0.50604000  0.58944200  0.33843100  1
  C  79  1  0.50604200  0.58464100  0.31146600  1
  C  80  1  0.50604000  0.50610300  0.29683400  1
  C  81  1  0.50604200  0.42759300  0.31146300  1
  C  82  1  0.50603800  0.67169800  0.35226600  1
  C  83  1  0.50603700  0.67700300  0.37927100  1
  C  84  1  0.50603600  0.75701700  0.39272800  1
  C  85  1  0.50603400  0.84081500  0.38070800  1
  C  86  1  0.50603600  0.83550300  0.35369500  1
  C  87  1  0.50603800  0.75547300  0.34023300  1
  C  88  1  0.50603900  0.34068700  0.35228500  1
  C  89  1  0.50603600  0.33545600  0.37929200  1
  C  90  1  0.50603400  0.25547200  0.39275300  1
  C  91  1  0.50603500  0.17162900  0.38073400  1
  C  92  1  0.50603700  0.17688700  0.35372000  1
  C  93  1  0.50603800  0.25687100  0.34025500  1
  C  94  1  0.50602500  0.50611800  0.26887100  1
  C  95  1  0.50601400  0.42709900  0.25414500  1
  C  96  1  0.50597800  0.42663700  0.22742500  1
  C  97  1  0.50594700  0.50613400  0.21384100  1
  C  98  1  0.50597700  0.58562300  0.22744800  1
  C  99  1  0.50601500  0.58514000  0.25416800  1
  C  115  1  0.58922000  0.50621700  0.06246800  1
  C  116  1  0.50594600  0.50621100  0.05022500  1
  C  117  1  0.42265500  0.50621700  0.06247200  1
  C  118  1  0.42739000  0.50623300  0.08944100  1
  C  119  1  0.50590700  0.50624400  0.10407000  1
  C  120  1  0.58444100  0.50623300  0.08943500  1
  C  121  1  0.34044600  0.50620600  0.04862800  1
  C  122  1  0.33520500  0.50618200  0.02162100  1
  C  123  1  0.25522100  0.50617100  0.00816200  1
  C  124  1  0.17138500  0.50617900  0.02018100  1
  C  125  1  0.17664500  0.50619900  0.04719500  1
  C  126  1  0.25663700  0.50621000  0.06065800  1
  C  127  1  0.67145900  0.50620500  0.04862600  1
  C  128  1  0.67675200  0.50618100  0.02162100  1
  C  129  1  0.75676000  0.50617000  0.00816200  1
  C  130  1  0.84056900  0.50618400  0.02018300  1
  C  131  1  0.83525800  0.50620400  0.04719500  1
  C  132  1  0.75524100  0.50621400  0.06065800  1
  C  133  1  0.50591600  0.50624200  0.13203200  1
  C  134  1  0.58494000  0.50624000  0.14673900  1
  C  135  1  0.58541800  0.50619600  0.17345700  1
  C  136  1  0.50592900  0.50615800  0.18706200  1
  C  137  1  0.42643500  0.50619600  0.17347400  1
  C  138  1  0.42689900  0.50623900  0.14675400  1
  C  154  1  0.50603400  0.58939400  0.56248000  1
  C  155  1  0.50602900  0.50609100  0.55023600  1
  C  156  1  0.50603400  0.42283000  0.56248000  1
  C  157  1  0.50603300  0.42763100  0.58944500  1
  C  158  1  0.50603500  0.50616600  0.60407800  1
  C  159  1  0.50603300  0.58467800  0.58944900  1
  C  160  1  0.50603100  0.34057100  0.54864900  1
  C  161  1  0.50603400  0.33526400  0.52164400  1
  C  162  1  0.50603600  0.25525300  0.50819000  1
  C  163  1  0.50603500  0.17145200  0.52021000  1
  C  164  1  0.50603300  0.17676800  0.54722300  1
  C  165  1  0.50603100  0.25679800  0.56068300  1
  C  166  1  0.50603100  0.67158600  0.54863000  1
  C  167  1  0.50603400  0.67681800  0.52162400  1
  C  168  1  0.50603500  0.75680000  0.50816500  1
  C  169  1  0.50603600  0.84064200  0.52018500  1
  C  170  1  0.50603600  0.83538200  0.54719800  1
  C  171  1  0.50603600  0.75539900  0.56066200  1
  C  172  1  0.50604600  0.50615400  0.63203900  1
  C  173  1  0.50605500  0.58517400  0.64676500  1
  C  174  1  0.50608400  0.58563600  0.67348300  1
  C  175  1  0.50610500  0.50613800  0.68706500  1
  C  176  1  0.50608100  0.42664600  0.67345800  1
  C  177  1  0.50605500  0.42712600  0.64674200  1
  H  7  1  0.00605000  0.50609700  0.86332500  1
  H  8  1  0.87046900  0.50607800  0.93093500  1
  H  9  1  0.14152700  0.50614300  0.93092800  1
  H  16  1  0.50603900  0.00621000  0.36334100  1
  H  17  1  0.50605100  0.14176600  0.43096700  1
  H  18  1  0.50601800  0.87070700  0.43092900  1
  H  25  1  0.00596400  0.50618200  0.03756100  1
  H  26  1  0.87048700  0.50619100  0.96995900  1
  H  27  1  0.14155100  0.50612500  0.96995200  1
  H  34  1  0.50603600  0.00605600  0.53757900  1
  H  35  1  0.50605100  0.87050700  0.46995300  1
  H  36  1  0.50601800  0.14156400  0.46999100  1
  H  61  1  0.75027400  0.50612400  0.91194700  1
  H  62  1  0.62225000  0.50610500  0.89042700  1
  H  63  1  0.88992600  0.50605400  0.84253300  1
  H  64  1  0.76182100  0.50603800  0.82100700  1
  H  65  1  0.64577500  0.50601100  0.76223600  1
  H  66  1  0.64452600  0.50608000  0.71796300  1
  H  67  1  0.36644200  0.50601100  0.76225500  1
  H  68  1  0.36770100  0.50608000  0.71798600  1
  H  69  1  0.25036100  0.50604200  0.82100500  1
  H  70  1  0.12221700  0.50605900  0.84253100  1
  H  71  1  0.26174200  0.50611100  0.91194300  1
  H  72  1  0.38979500  0.50609800  0.89042400  1
  H  73  1  0.50604600  0.50606300  0.86966900  1
  H  74  1  0.64162600  0.50603700  0.80189600  1
  H  75  1  0.37059500  0.50603700  0.80190500  1
  H  100  1  0.50603300  0.26199900  0.41197400  1
  H  101  1  0.50603700  0.39002900  0.39044800  1
  H  102  1  0.50603600  0.12232700  0.34255800  1
  H  103  1  0.50603800  0.25041400  0.32103000  1
  H  104  1  0.50603200  0.36646200  0.26223500  1
  H  105  1  0.50597300  0.36772400  0.21795600  1
  H  106  1  0.50603200  0.64578600  0.26226900  1
  H  107  1  0.50597300  0.64454300  0.21800200  1
  H  108  1  0.50603500  0.76187900  0.32101000  1
  H  109  1  0.50603100  0.89003900  0.34253900  1
  H  110  1  0.50604000  0.75052000  0.41194500  1
  H  111  1  0.50603900  0.62247300  0.39042700  1
  H  112  1  0.50603900  0.50620800  0.36967900  1
  H  113  1  0.50604000  0.37058800  0.30190400  1
  H  114  1  0.50604000  0.64161900  0.30191600  1
  H  139  1  0.75027000  0.50614700  0.98894400  1
  H  140  1  0.62221400  0.50616700  0.01046500  1
  H  141  1  0.88979900  0.50621700  0.05835500  1
  H  142  1  0.76165600  0.50622900  0.07988300  1
  H  143  1  0.64558200  0.50626000  0.13863800  1
  H  144  1  0.64434000  0.50619200  0.18290900  1
  H  145  1  0.36626000  0.50625900  0.13866300  1
  H  146  1  0.36752200  0.50619200  0.18294000  1
  H  147  1  0.25018900  0.50622800  0.07988300  1
  H  148  1  0.12208500  0.50621000  0.05835500  1
  H  149  1  0.26174800  0.50615900  0.98894300  1
  H  150  1  0.38976700  0.50617400  0.01046500  1
  H  151  1  0.50596500  0.50620900  0.03122500  1
  H  152  1  0.64142500  0.50623100  0.09898800  1
  H  153  1  0.37039100  0.50623500  0.09899900  1
  H  178  1  0.50603500  0.75028000  0.48894400  1
  H  179  1  0.50603700  0.62224800  0.51046700  1
  H  180  1  0.50603500  0.88994400  0.55836200  1
  H  181  1  0.50603100  0.76185900  0.57988500  1
  H  182  1  0.50603900  0.64581200  0.63867500  1
  H  183  1  0.50608800  0.64454900  0.68295200  1
  H  184  1  0.50603900  0.36648000  0.63863900  1
  H  185  1  0.50608800  0.36772700  0.68290600  1
  H  186  1  0.50603000  0.25039500  0.57990800  1
  H  187  1  0.50603300  0.12223300  0.55838100  1
  H  188  1  0.50604100  0.26174600  0.48897200  1
  H  189  1  0.50603900  0.38979200  0.51048800  1
  H  190  1  0.50602300  0.50606400  0.53123300  1
  H  191  1  0.50604000  0.64168300  0.59900800  1
  H  192  1  0.50604000  0.37065200  0.59899600  1
