# generated using pymatgen
data_Ni4H12C28O14F9
_symmetry_space_group_name_H-M   'P 1'
_cell_length_a   13.09193000
_cell_length_b   13.25911000
_cell_length_c   33.35391000
_cell_angle_alpha   91.13911000
_cell_angle_beta   91.04750000
_cell_angle_gamma   113.10075000
_symmetry_Int_Tables_number   1
_chemical_formula_structural   Ni4H12C28O14F9
_chemical_formula_sum   'Ni16 H48 C112 O56 F36'
_cell_volume   5322.37378385
_cell_formula_units_Z   4
loop_
 _symmetry_equiv_pos_site_id
 _symmetry_equiv_pos_as_xyz
  1  'x, y, z'
loop_
 _atom_site_type_symbol
 _atom_site_label
 _atom_site_symmetry_multiplicity
 _atom_site_fract_x
 _atom_site_fract_y
 _atom_site_fract_z
 _atom_site_occupancy
  Ni  Ni0  1  0.74525000  0.54034000  0.37367000  1
  Ni  Ni1  1  0.34582000  0.70964000  0.59331000  1
  Ni  Ni2  1  0.09938000  0.67884000  0.60886000  1
  Ni  Ni3  1  0.13472000  0.46000000  0.57827000  1
  Ni  Ni4  1  0.32102000  0.91535000  0.63644000  1
  Ni  Ni5  1  0.27287000  0.66560000  0.85675000  1
  Ni  Ni6  1  0.29426000  0.90487000  0.84012000  1
  Ni  Ni7  1  0.52266000  0.88171000  0.87290000  1
  Ni  Ni8  1  0.05235000  0.68296000  0.82124000  1
  Ni  Ni9  1  0.69177000  0.38862000  0.09380000  1
  Ni  Ni10  1  0.81096000  0.33771000  0.34193000  1
  Ni  Ni11  1  0.85147000  0.28614000  0.13200000  1
  Ni  Ni12  1  0.55612000  0.29182000  0.33856000  1
  Ni  Ni13  1  0.41304000  0.25167000  0.07313000  1
  Ni  Ni14  1  0.57844000  0.13313000  0.10396000  1
  Ni  Ni15  1  0.62175000  0.08860000  0.31966000  1
  H  H16  1  0.00680000  0.94976000  0.28932000  1
  H  H17  1  0.02028000  0.89020000  0.14480000  1
  H  H18  1  0.17462000  0.63469000  0.54478000  1
  H  H19  1  0.26312000  0.72497000  0.65899000  1
  H  H20  1  0.34257000  0.83569000  0.90440000  1
  H  H21  1  0.23875000  0.73840000  0.79185000  1
  H  H22  1  0.68533000  0.91287000  0.77554000  1
  H  H23  1  0.98854000  0.87602000  0.74914000  1
  H  H24  1  0.70911000  0.90500000  0.64514000  1
  H  H25  1  0.91416000  0.84507000  0.68220000  1
  H  H26  1  0.82651000  0.58523000  0.44446000  1
  H  H27  1  0.47748000  0.32977000  0.44992000  1
  H  H28  1  0.96524000  0.61237000  0.24922000  1
  H  H29  1  0.85871000  0.75410000  0.29249000  1
  H  H30  1  0.30498000  0.95115000  0.25654000  1
  H  H31  1  0.06914000  0.69492000  0.97410000  1
  H  H32  1  0.50109000  0.65128000  0.04334000  1
  H  H33  1  0.73378000  0.90505000  0.16446000  1
  H  H34  1  0.04121000  0.64934000  0.17422000  1
  H  H35  1  0.81565000  0.66996000  0.17653000  1
  H  H36  1  0.23682000  0.96196000  0.15152000  1
  H  H37  1  0.34671000  0.62990000  0.47395000  1
  H  H38  1  0.53911000  0.50306000  0.90899000  1
  H  H39  1  0.09803000  0.42540000  0.78961000  1
  H  H40  1  0.28387000  0.88833000  0.48322000  1
  H  H41  1  0.95807000  0.40520000  0.70423000  1
  H  H42  1  0.69271000  0.35195000  0.40006000  1
  H  H43  1  0.00306000  0.37415000  0.51942000  1
  H  H44  1  0.67438000  0.28648000  0.15703000  1
  H  H45  1  0.92260000  0.29008000  0.98469000  1
  H  H46  1  0.10942000  0.29703000  0.67099000  1
  H  H47  1  0.92887000  0.28226000  0.79957000  1
  H  H48  1  0.67039000  0.26241000  0.28198000  1
  H  H49  1  0.57762000  0.23936000  0.04275000  1
  H  H50  1  0.66309000  0.17589000  0.47032000  1
  H  H51  1  0.28704000  0.18001000  0.19905000  1
  H  H52  1  0.01816000  0.13764000  0.29019000  1
  H  H53  1  0.21933000  0.12824000  0.28040000  1
  H  H54  1  0.95646000  0.09147000  0.14594000  1
  H  H55  1  0.81190000  0.04727000  0.23247000  1
  H  H56  1  0.08100000  0.05182000  0.64445000  1
  H  H57  1  0.27829000  0.05282000  0.92138000  1
  H  H58  1  0.87260000  0.07781000  0.79684000  1
  H  H59  1  0.90368000  0.10747000  0.65167000  1
  H  H60  1  0.56571000  0.06015000  0.74565000  1
  H  H61  1  0.99555000  0.02789000  0.82221000  1
  H  H62  1  0.63074000  0.08133000  0.67960000  1
  H  H63  1  0.57233000  0.05076000  0.01682000  1
  C  C64  1  0.88695000  0.52115000  0.14880000  1
  C  C65  1  0.83858000  0.54164000  0.29488000  1
  C  C66  1  0.94713000  0.51178000  0.39668000  1
  C  C67  1  0.00909000  0.93700000  0.25634000  1
  C  C68  1  0.01733000  0.90409000  0.17769000  1
  C  C69  1  0.94063000  0.98352000  0.23036000  1
  C  C70  1  0.12534000  0.98875000  0.23898000  1
  C  C71  1  0.96630000  0.81546000  0.24257000  1
  C  C72  1  0.12996000  0.97307000  0.19829000  1
  C  C73  1  0.97139000  0.79884000  0.20180000  1
  C  C74  1  0.09125000  0.49064000  0.66170000  1
  C  C75  1  0.35886000  0.53181000  0.54138000  1
  C  C76  1  0.92894000  0.49481000  0.56769000  1
  C  C77  1  0.40156000  0.92052000  0.55167000  1
  C  C78  1  0.08578000  0.88868000  0.63266000  1
  C  C79  1  0.53390000  0.88702000  0.64019000  1
  C  C80  1  0.49046000  0.92891000  0.78931000  1
  C  C81  1  0.46000000  0.65902000  0.90528000  1
  C  C82  1  0.06868000  0.59607000  0.90335000  1
  C  C83  1  0.08153000  0.91646000  0.82182000  1
  C  C84  1  0.10578000  0.48219000  0.80243000  1
  C  C85  1  0.57570000  0.99297000  0.76097000  1
  C  C86  1  0.67518000  0.97711000  0.75824000  1
  C  C87  1  0.00637000  0.96256000  0.80526000  1
  C  C88  1  0.97119000  0.93963000  0.76504000  1
  C  C89  1  0.65156000  0.94335000  0.65205000  1
  C  C90  1  0.95758000  0.93185000  0.67662000  1
  C  C91  1  0.03943000  0.96485000  0.65018000  1
  C  C92  1  0.86831000  0.54221000  0.46095000  1
  C  C93  1  0.93854000  0.50138000  0.44078000  1
  C  C94  1  0.90945000  0.47590000  0.52392000  1
  C  C95  1  0.84903000  0.52516000  0.50197000  1
  C  C96  1  0.76406000  0.55982000  0.52180000  1
  C  C97  1  0.43973000  0.97996000  0.51396000  1
  C  C98  1  0.37828000  0.49808000  0.50062000  1
  C  C99  1  0.41483000  0.41166000  0.49401000  1
  C  C100  1  0.44901000  0.39517000  0.45544000  1
  C  C101  1  0.45167000  0.46565000  0.42426000  1
  C  C102  1  0.41621000  0.33620000  0.52755000  1
  C  C103  1  0.90416000  0.62738000  0.26722000  1
  C  C104  1  0.90089000  0.73210000  0.26817000  1
  C  C105  1  0.19658000  0.99549000  0.99496000  1
  C  C106  1  0.03455000  0.60629000  0.97607000  1
  C  C107  1  0.02117000  0.54118000  0.94106000  1
  C  C108  1  0.00997000  0.55832000  0.01386000  1
  C  C109  1  0.04530000  0.63111000  0.05142000  1
  C  C110  1  0.50802000  0.61853000  0.01395000  1
  C  C111  1  0.52816000  0.52267000  0.01099000  1
  C  C112  1  0.53047000  0.53478000  0.93837000  1
  C  C113  1  0.50446000  0.62714000  0.94114000  1
  C  C114  1  0.49697000  0.67220000  0.97927000  1
  C  C115  1  0.47033000  0.77328000  0.98297000  1
  C  C116  1  0.95317000  0.62759000  0.16805000  1
  C  C117  1  0.90458000  0.69351000  0.18102000  1
  C  C118  1  0.37438000  0.56383000  0.46858000  1
  C  C119  1  0.40840000  0.54709000  0.43016000  1
  C  C120  1  0.40231000  0.61934000  0.39617000  1
  C  C121  1  0.55257000  0.47615000  0.04764000  1
  C  C122  1  0.99112000  0.44293000  0.46250000  1
  C  C123  1  0.96836000  0.42378000  0.50317000  1
  C  C124  1  0.97995000  0.42520000  0.94393000  1
  C  C125  1  0.95530000  0.44305000  0.01591000  1
  C  C126  1  0.53506000  0.47761000  0.97280000  1
  C  C127  1  0.50225000  0.45413000  0.38612000  1
  C  C128  1  0.88768000  0.39192000  0.05089000  1
  C  C129  1  0.94955000  0.37774000  0.98172000  1
  C  C130  1  0.36812000  0.94782000  0.48007000  1
  C  C131  1  0.02619000  0.39897000  0.68766000  1
  C  C132  1  0.97725000  0.35270000  0.90779000  1
  C  C133  1  0.08477000  0.36746000  0.77555000  1
  C  C134  1  0.33377000  0.93537000  0.40495000  1
  C  C135  1  0.07003000  0.39919000  0.44278000  1
  C  C136  1  0.54257000  0.36678000  0.96865000  1
  C  C137  1  0.94285000  0.96420000  0.18985000  1
  C  C138  1  0.40561000  0.98768000  0.44204000  1
  C  C139  1  0.04399000  0.30535000  0.68856000  1
  C  C140  1  0.98481000  0.28515000  0.77546000  1
  C  C141  1  0.78985000  0.97955000  0.15083000  1
  C  C142  1  0.96598000  0.20656000  0.70890000  1
  C  C143  1  0.95798000  0.19786000  0.75003000  1
  C  C144  1  0.39992000  0.16432000  0.15315000  1
  C  C145  1  0.86380000  0.16046000  0.30349000  1
  C  C146  1  0.65752000  0.13769000  0.94632000  1
  C  C147  1  0.89915000  0.01810000  0.15977000  1
  C  C148  1  0.30760000  0.02760000  0.26993000  1
  C  C149  1  0.31520000  0.02366000  0.98213000  1
  C  C150  1  0.63122000  0.09441000  0.54585000  1
  C  C151  1  0.54931000  0.06072000  0.51036000  1
  C  C152  1  0.34226000  0.05161000  0.94220000  1
  C  C153  1  0.58240000  0.10957000  0.47299000  1
  C  C154  1  0.74275000  0.04449000  0.12725000  1
  C  C155  1  0.38378000  0.02504000  0.05360000  1
  C  C156  1  0.55075000  0.12518000  0.40010000  1
  C  C157  1  0.40404000  0.09468000  0.29522000  1
  C  C158  1  0.46750000  0.07424000  0.88473000  1
  C  C159  1  0.88239000  0.08352000  0.76387000  1
  C  C160  1  0.89774000  0.10018000  0.68479000  1
  C  C161  1  0.92969000  0.00642000  0.74342000  1
  C  C162  1  0.77073000  0.05589000  0.74167000  1
  C  C163  1  0.93569000  0.01372000  0.70249000  1
  C  C164  1  0.77984000  0.06820000  0.70086000  1
  C  C165  1  0.68720000  0.04036000  0.67515000  1
  C  C166  1  0.51242000  0.07272000  0.43883000  1
  C  C167  1  0.88752000  0.04818000  0.24677000  1
  C  C168  1  0.93225000  0.11638000  0.28065000  1
  C  C169  1  0.22178000  0.05705000  0.26442000  1
  C  C170  1  0.50795000  0.05128000  0.99603000  1
  C  C171  1  0.40042000  0.02796000  0.00980000  1
  C  C172  1  0.45020000  0.07488000  0.92859000  1
  C  C173  1  0.53596000  0.08558000  0.95681000  1
  C  C174  1  0.30604000  0.12175000  0.18048000  1
  C  C175  1  0.22922000  0.01215000  0.17653000  1
  O  O176  1  0.82967000  0.51920000  0.11535000  1
  O  O177  1  0.65573000  0.49251000  0.05692000  1
  O  O178  1  0.90191000  0.43357000  0.16156000  1
  O  O179  1  0.91097000  0.57968000  0.37935000  1
  O  O180  1  0.58587000  0.53736000  0.37233000  1
  O  O181  1  0.75411000  0.54979000  0.31320000  1
  O  O182  1  0.18578000  0.61863000  0.57301000  1
  O  O183  1  0.41225000  0.63459000  0.55336000  1
  O  O184  1  0.34471000  0.81429000  0.54935000  1
  O  O185  1  0.45860000  0.90602000  0.66142000  1
  O  O186  1  0.16648000  0.48002000  0.63842000  1
  O  O187  1  0.94651000  0.59273000  0.58298000  1
  O  O188  1  0.25696000  0.75485000  0.63251000  1
  O  O189  1  0.50573000  0.81081000  0.61103000  1
  O  O190  1  0.03912000  0.78198000  0.63836000  1
  O  O191  1  0.17916000  0.92951000  0.61336000  1
  O  O192  1  0.40693000  0.97643000  0.58524000  1
  O  O193  1  0.05677000  0.57119000  0.65623000  1
  O  O194  1  0.36103000  0.82506000  0.87641000  1
  O  O195  1  0.35619000  0.60238000  0.89430000  1
  O  O196  1  0.52773000  0.72888000  0.88072000  1
  O  O197  1  0.17358000  0.66048000  0.90356000  1
  O  O198  1  0.04497000  0.54476000  0.79215000  1
  O  O199  1  0.50906000  0.85837000  0.81223000  1
  O  O200  1  0.21544000  0.74683000  0.81935000  1
  O  O201  1  0.17230000  0.50891000  0.83785000  1
  O  O202  1  0.18577000  0.95657000  0.81144000  1
  O  O203  1  0.04214000  0.82684000  0.84286000  1
  O  O204  1  0.00193000  0.60033000  0.87402000  1
  O  O205  1  0.39594000  0.94234000  0.79107000  1
  O  O206  1  0.94917000  0.42927000  0.37512000  1
  O  O207  1  0.29025000  0.46018000  0.56556000  1
  O  O208  1  0.97285000  0.43489000  0.58671000  1
  O  O209  1  0.85852000  0.45168000  0.29710000  1
  O  O210  1  0.47204000  0.42147000  0.07161000  1
  O  O211  1  0.69823000  0.37871000  0.37235000  1
  O  O212  1  0.93286000  0.35966000  0.08091000  1
  O  O213  1  0.78023000  0.36155000  0.04817000  1
  O  O214  1  0.45858000  0.36255000  0.36478000  1
  O  O215  1  0.69664000  0.27278000  0.12992000  1
  O  O216  1  0.90275000  0.26615000  0.31211000  1
  O  O217  1  0.56261000  0.25216000  0.07088000  1
  O  O218  1  0.41603000  0.25425000  0.13391000  1
  O  O219  1  0.66714000  0.24620000  0.31089000  1
  O  O220  1  0.42287000  0.19838000  0.30326000  1
  O  O221  1  0.49604000  0.17762000  0.38266000  1
  O  O222  1  0.80882000  0.12943000  0.10761000  1
  O  O223  1  0.63804000  0.02911000  0.13133000  1
  O  O224  1  0.47216000  0.11745000  0.15101000  1
  O  O225  1  0.33400000  0.08530000  0.06916000  1
  O  O226  1  0.45439000  0.00279000  0.07656000  1
  O  O227  1  0.78152000  0.09256000  0.32375000  1
  O  O228  1  0.62729000  0.10481000  0.38090000  1
  O  O229  1  0.45414000  0.04438000  0.31673000  1
  O  O230  1  0.38236000  0.06044000  0.86094000  1
  O  O231  1  0.54416000  0.04213000  0.87116000  1
  F  F232  1  0.71457000  0.49206000  0.55301000  1
  F  F233  1  0.68095000  0.55407000  0.49449000  1
  F  F234  1  0.81534000  0.66679000  0.53635000  1
  F  F235  1  0.47376000  0.39693000  0.56093000  1
  F  F236  1  0.16758000  0.91966000  0.02491000  1
  F  F237  1  0.12235000  0.95065000  0.96299000  1
  F  F238  1  0.14359000  0.71979000  0.04531000  1
  F  F239  1  0.06412000  0.57596000  0.08360000  1
  F  F240  1  0.96403000  0.66916000  0.06070000  1
  F  F241  1  0.49595000  0.82067000  0.02115000  1
  F  F242  1  0.35831000  0.74467000  0.97492000  1
  F  F243  1  0.53136000  0.85052000  0.95612000  1
  F  F244  1  0.33206000  0.67170000  0.40492000  1
  F  F245  1  0.50696000  0.69845000  0.38998000  1
  F  F246  1  0.39417000  0.90233000  0.37794000  1
  F  F247  1  0.92514000  0.37742000  0.87528000  1
  F  F248  1  0.24084000  0.84372000  0.41409000  1
  F  F249  1  0.13973000  0.47506000  0.41726000  1
  F  F250  1  0.08468000  0.36868000  0.89831000  1
  F  F251  1  0.36218000  0.55728000  0.36118000  1
  F  F252  1  0.64660000  0.37556000  0.98163000  1
  F  F253  1  0.13631000  0.37700000  0.47113000  1
  F  F254  1  0.00963000  0.30266000  0.42159000  1
  F  F255  1  0.52564000  0.32788000  0.92924000  1
  F  F256  1  0.46216000  0.29133000  0.99128000  1
  F  F257  1  0.30839000  0.27254000  0.53763000  1
  F  F258  1  0.46721000  0.26666000  0.51624000  1
  F  F259  1  0.92005000  0.24267000  0.91531000  1
  F  F260  1  0.67607000  0.21892000  0.91861000  1
  F  F261  1  0.72171000  0.18558000  0.98026000  1
  F  F262  1  0.73670000  0.16281000  0.53468000  1
  F  F263  1  0.59669000  0.14983000  0.57459000  1
  F  F264  1  0.63877000  0.00260000  0.56224000  1
  F  F265  1  0.29795000  0.00959000  0.38728000  1
  F  F266  1  0.69146000  0.05849000  0.93111000  1
  F  F267  1  0.18572000  0.08987000  0.00858000  1
