# generated using pymatgen
data_LaH6(CO)6
_symmetry_space_group_name_H-M   'P 1'
_cell_length_a   7.97600000
_cell_length_b   12.00600000
_cell_length_c   12.28400000
_cell_angle_alpha   112.01000000
_cell_angle_beta   90.05000000
_cell_angle_gamma   100.58000000
_symmetry_Int_Tables_number   1
_chemical_formula_structural   LaH6(CO)6
_chemical_formula_sum   'La4 H24 C24 O24'
_cell_volume   1068.90372035
_cell_formula_units_Z   4
loop_
 _symmetry_equiv_pos_site_id
 _symmetry_equiv_pos_as_xyz
  1  'x, y, z'
loop_
 _atom_site_type_symbol
 _atom_site_label
 _atom_site_symmetry_multiplicity
 _atom_site_fract_x
 _atom_site_fract_y
 _atom_site_fract_z
 _atom_site_occupancy
  La  La1  1  0.99112000  0.14308000  0.85318000  1.0
  La  La2  1  0.49133000  0.14293000  0.75029000  1.0
  La  La3  1  0.00888000  0.85692000  0.14682000  1.0
  La  La4  1  0.50867000  0.85707000  0.24971000  1.0
  H  H1  1  0.53450000  0.10750000  0.16240000  1.0
  H  H2  1  0.56720000  0.24650000  0.18170000  1.0
  H  H3  1  0.86990000  0.25640000  0.21170000  1.0
  H  H4  1  0.76520000  0.22910000  0.30980000  1.0
  H  H5  1  0.73260000  0.76830000  0.63890000  1.0
  H  H6  1  0.62900000  0.74210000  0.52050000  1.0
  H  H7  1  0.88290000  0.55410000  0.16310000  1.0
  H  H8  1  0.72030000  0.47450000  0.18970000  1.0
  H  H9  1  0.95700000  0.89050000  0.58490000  1.0
  H  H10  1  0.92630000  0.75140000  0.50330000  1.0
  H  H11  1  0.73210000  0.51330000  0.97620000  1.0
  H  H12  1  0.59550000  0.41700000  0.00260000  1.0
  H  H13  1  0.46550000  0.89250000  0.83760000  1.0
  H  H14  1  0.43280000  0.75350000  0.81830000  1.0
  H  H15  1  0.13010000  0.74360000  0.78830000  1.0
  H  H16  1  0.23480000  0.77090000  0.69020000  1.0
  H  H17  1  0.26740000  0.23170000  0.36110000  1.0
  H  H18  1  0.37100000  0.25790000  0.47950000  1.0
  H  H19  1  0.11710000  0.44590000  0.83690000  1.0
  H  H20  1  0.27970000  0.52550000  0.81030000  1.0
  H  H21  1  0.04300000  0.10950000  0.41510000  1.0
  H  H22  1  0.07370000  0.24860000  0.49670000  1.0
  H  H23  1  0.26790000  0.48670000  0.02380000  1.0
  H  H24  1  0.40450000  0.58300000  0.99740000  1.0
  C  C1  1  0.63520000  0.13980000  0.02230000  1.0
  C  C2  1  0.61530000  0.17310000  0.15200000  1.0
  C  C3  1  0.78540000  0.19590000  0.22700000  1.0
  C  C4  1  0.85560000  0.08180000  0.20100000  1.0
  C  C5  1  0.64430000  0.91780000  0.63880000  1.0
  C  C6  1  0.71340000  0.80210000  0.58070000  1.0
  C  C7  1  0.76010000  0.52620000  0.14660000  1.0
  C  C8  1  0.67290000  0.63290000  0.18170000  1.0
  C  C9  1  0.86190000  0.85690000  0.41870000  1.0
  C  C10  1  0.87740000  0.82440000  0.52580000  1.0
  C  C11  1  0.71580000  0.45550000  0.01500000  1.0
  C  C12  1  0.81970000  0.35690000  0.95600000  1.0
  C  C13  1  0.36480000  0.86020000  0.97770000  1.0
  C  C14  1  0.38470000  0.82690000  0.84800000  1.0
  C  C15  1  0.21460000  0.80410000  0.77300000  1.0
  C  C16  1  0.14440000  0.91820000  0.79900000  1.0
  C  C17  1  0.35570000  0.08220000  0.36120000  1.0
  C  C18  1  0.28660000  0.19790000  0.41930000  1.0
  C  C19  1  0.23990000  0.47380000  0.85340000  1.0
  C  C20  1  0.32710000  0.36710000  0.81830000  1.0
  C  C21  1  0.13810000  0.14310000  0.58130000  1.0
  C  C22  1  0.12260000  0.17560000  0.47420000  1.0
  C  C23  1  0.28420000  0.54450000  0.98500000  1.0
  C  C24  1  0.18030000  0.64310000  0.04400000  1.0
  O  O1  1  0.77140000  0.27790000  0.85040000  1.0
  O  O2  1  0.94900000  0.35510000  0.01060000  1.0
  O  O3  1  0.76650000  0.98720000  0.20870000  1.0
  O  O4  1  0.00990000  0.07910000  0.17550000  1.0
  O  O5  1  0.54770000  0.63950000  0.24390000  1.0
  O  O6  1  0.72720000  0.72170000  0.14450000  1.0
  O  O7  1  0.51580000  0.14980000  0.96180000  1.0
  O  O8  1  0.76770000  0.10140000  0.97980000  1.0
  O  O9  1  0.98280000  0.84730000  0.35020000  1.0
  O  O10  1  0.73100000  0.89630000  0.40510000  1.0
  O  O11  1  0.73520000  0.01380000  0.71620000  1.0
  O  O12  1  0.48880000  0.91960000  0.61620000  1.0
  O  O13  1  0.22860000  0.72210000  0.14960000  1.0
  O  O14  1  0.05100000  0.64490000  0.98940000  1.0
  O  O15  1  0.23350000  0.01280000  0.79130000  1.0
  O  O16  1  0.99010000  0.92090000  0.82450000  1.0
  O  O17  1  0.45230000  0.36050000  0.75610000  1.0
  O  O18  1  0.27280000  0.27830000  0.85550000  1.0
  O  O19  1  0.48420000  0.85020000  0.03820000  1.0
  O  O20  1  0.23230000  0.89860000  0.02020000  1.0
  O  O21  1  0.01720000  0.15270000  0.64980000  1.0
  O  O22  1  0.26900000  0.10370000  0.59490000  1.0
  O  O23  1  0.26480000  0.98620000  0.28380000  1.0
  O  O24  1  0.51120000  0.08040000  0.38380000  1.0
