# generated using pymatgen
data_MnH8C14SO6
_symmetry_space_group_name_H-M   'P 1'
_cell_length_a   16.70940000
_cell_length_b   17.19360000
_cell_length_c   20.28570000
_cell_angle_alpha   90.00000000
_cell_angle_beta   90.00000000
_cell_angle_gamma   99.17800000
_symmetry_Int_Tables_number   1
_chemical_formula_structural   MnH8C14SO6
_chemical_formula_sum   'Mn12 H96 C168 S12 O72'
_cell_volume   5753.36273474
_cell_formula_units_Z   12
loop_
 _symmetry_equiv_pos_site_id
 _symmetry_equiv_pos_as_xyz
  1  'x, y, z'
loop_
 _atom_site_type_symbol
 _atom_site_label
 _atom_site_symmetry_multiplicity
 _atom_site_fract_x
 _atom_site_fract_y
 _atom_site_fract_z
 _atom_site_occupancy
  Mn  Mn1  1  0.03088000  0.75248000  0.16646000  1.0
  Mn  Mn2  1  0.13584000  0.94711000  0.12497000  1.0
  Mn  Mn3  1  0.91234000  0.55697000  0.14779000  1.0
  Mn  Mn4  1  0.46912000  0.74752000  0.66646000  1.0
  Mn  Mn5  1  0.36416000  0.55289000  0.62497000  1.0
  Mn  Mn6  1  0.58766000  0.94303000  0.64779000  1.0
  Mn  Mn7  1  0.96912000  0.24752000  0.83354000  1.0
  Mn  Mn8  1  0.86416000  0.05289000  0.87503000  1.0
  Mn  Mn9  1  0.08766000  0.44303000  0.85221000  1.0
  Mn  Mn10  1  0.53088000  0.25248000  0.33354000  1.0
  Mn  Mn11  1  0.63584000  0.44711000  0.37503000  1.0
  Mn  Mn12  1  0.41234000  0.05697000  0.35221000  1.0
  H  H1  1  0.27490000  0.68410000  0.21670000  1.0
  H  H2  1  0.40540000  0.66750000  0.24430000  1.0
  H  H3  1  0.47050000  0.90250000  0.25000000  1.0
  H  H4  1  0.34180000  0.91830000  0.21890000  1.0
  H  H5  1  0.54090000  0.62040000  0.33100000  1.0
  H  H6  1  0.50900000  0.56940000  0.43470000  1.0
  H  H7  1  0.48920000  0.78470000  0.50170000  1.0
  H  H8  1  0.52420000  0.83770000  0.39900000  1.0
  H  H9  1  0.02300000  0.06600000  0.27840000  1.0
  H  H10  1  0.97390000  0.11450000  0.37470000  1.0
  H  H11  1  0.89080000  0.89290000  0.43110000  1.0
  H  H12  1  0.93870000  0.84570000  0.33490000  1.0
  H  H13  1  0.82110000  0.16510000  0.43250000  1.0
  H  H14  1  0.69070000  0.17870000  0.40170000  1.0
  H  H15  1  0.61190000  0.96020000  0.46730000  1.0
  H  H16  1  0.74160000  0.94760000  0.49900000  1.0
  H  H17  1  0.00220000  0.73930000  0.34890000  1.0
  H  H18  1  0.00300000  0.75500000  0.46130000  1.0
  H  H19  1  0.90990000  0.52840000  0.48280000  1.0
  H  H20  1  0.90550000  0.51370000  0.36950000  1.0
  H  H21  1  0.91610000  0.80800000  0.56070000  1.0
  H  H22  1  0.79890000  0.86040000  0.58130000  1.0
  H  H23  1  0.68310000  0.64600000  0.62860000  1.0
  H  H24  1  0.80070000  0.59370000  0.61070000  1.0
  H  H25  1  0.22510000  0.81590000  0.71670000  1.0
  H  H26  1  0.09460000  0.83250000  0.74430000  1.0
  H  H27  1  0.02950000  0.59750000  0.75000000  1.0
  H  H28  1  0.15820000  0.58170000  0.71890000  1.0
  H  H29  1  0.95910000  0.87960000  0.83100000  1.0
  H  H30  1  0.99100000  0.93060000  0.93470000  1.0
  H  H31  1  0.01080000  0.71530000  0.00170000  1.0
  H  H32  1  0.97580000  0.66230000  0.89900000  1.0
  H  H33  1  0.47700000  0.43400000  0.77840000  1.0
  H  H34  1  0.52610000  0.38550000  0.87470000  1.0
  H  H35  1  0.60920000  0.60710000  0.93110000  1.0
  H  H36  1  0.56130000  0.65430000  0.83490000  1.0
  H  H37  1  0.67890000  0.33490000  0.93250000  1.0
  H  H38  1  0.80930000  0.32130000  0.90170000  1.0
  H  H39  1  0.88810000  0.53980000  0.96730000  1.0
  H  H40  1  0.75840000  0.55240000  0.99900000  1.0
  H  H41  1  0.49780000  0.76070000  0.84890000  1.0
  H  H42  1  0.49700000  0.74500000  0.96130000  1.0
  H  H43  1  0.59010000  0.97160000  0.98280000  1.0
  H  H44  1  0.59450000  0.98630000  0.86950000  1.0
  H  H45  1  0.58390000  0.69200000  0.06070000  1.0
  H  H46  1  0.70110000  0.63960000  0.08130000  1.0
  H  H47  1  0.81690000  0.85400000  0.12860000  1.0
  H  H48  1  0.69930000  0.90630000  0.11070000  1.0
  H  H49  1  0.72510000  0.31590000  0.78330000  1.0
  H  H50  1  0.59460000  0.33250000  0.75570000  1.0
  H  H51  1  0.52950000  0.09750000  0.75000000  1.0
  H  H52  1  0.65820000  0.08170000  0.78110000  1.0
  H  H53  1  0.45910000  0.37960000  0.66900000  1.0
  H  H54  1  0.49100000  0.43060000  0.56530000  1.0
  H  H55  1  0.51080000  0.21530000  0.49830000  1.0
  H  H56  1  0.47580000  0.16230000  0.60100000  1.0
  H  H57  1  0.97700000  0.93400000  0.72160000  1.0
  H  H58  1  0.02610000  0.88550000  0.62530000  1.0
  H  H59  1  0.10920000  0.10710000  0.56890000  1.0
  H  H60  1  0.06130000  0.15430000  0.66510000  1.0
  H  H61  1  0.17890000  0.83490000  0.56750000  1.0
  H  H62  1  0.30930000  0.82130000  0.59830000  1.0
  H  H63  1  0.38810000  0.03980000  0.53270000  1.0
  H  H64  1  0.25840000  0.05240000  0.50100000  1.0
  H  H65  1  0.99780000  0.26070000  0.65110000  1.0
  H  H66  1  0.99700000  0.24500000  0.53870000  1.0
  H  H67  1  0.09010000  0.47160000  0.51720000  1.0
  H  H68  1  0.09450000  0.48630000  0.63050000  1.0
  H  H69  1  0.08390000  0.19200000  0.43930000  1.0
  H  H70  1  0.20110000  0.13960000  0.41870000  1.0
  H  H71  1  0.31690000  0.35400000  0.37140000  1.0
  H  H72  1  0.19930000  0.40630000  0.38930000  1.0
  H  H73  1  0.77490000  0.18410000  0.28330000  1.0
  H  H74  1  0.90540000  0.16750000  0.25570000  1.0
  H  H75  1  0.97050000  0.40250000  0.25000000  1.0
  H  H76  1  0.84180000  0.41830000  0.28110000  1.0
  H  H77  1  0.04090000  0.12040000  0.16900000  1.0
  H  H78  1  0.00900000  0.06940000  0.06530000  1.0
  H  H79  1  0.98920000  0.28470000  0.99830000  1.0
  H  H80  1  0.02420000  0.33770000  0.10100000  1.0
  H  H81  1  0.52300000  0.56600000  0.22160000  1.0
  H  H82  1  0.47390000  0.61450000  0.12530000  1.0
  H  H83  1  0.39080000  0.39290000  0.06890000  1.0
  H  H84  1  0.43870000  0.34570000  0.16510000  1.0
  H  H85  1  0.32110000  0.66510000  0.06750000  1.0
  H  H86  1  0.19070000  0.67870000  0.09830000  1.0
  H  H87  1  0.11190000  0.46020000  0.03270000  1.0
  H  H88  1  0.24160000  0.44760000  0.00100000  1.0
  H  H89  1  0.50220000  0.23930000  0.15110000  1.0
  H  H90  1  0.50300000  0.25500000  0.03870000  1.0
  H  H91  1  0.40990000  0.02840000  0.01720000  1.0
  H  H92  1  0.40550000  0.01370000  0.13050000  1.0
  H  H93  1  0.41610000  0.30800000  0.93930000  1.0
  H  H94  1  0.29890000  0.36040000  0.91870000  1.0
  H  H95  1  0.18310000  0.14600000  0.87140000  1.0
  H  H96  1  0.30070000  0.09370000  0.88930000  1.0
  C  C1  1  0.21120000  0.81580000  0.19670000  1.0
  C  C2  1  0.29450000  0.80310000  0.21590000  1.0
  C  C3  1  0.31450000  0.72800000  0.22320000  1.0
  C  C4  1  0.39200000  0.71780000  0.24010000  1.0
  C  C5  1  0.44940000  0.78360000  0.25060000  1.0
  C  C6  1  0.43100000  0.85870000  0.24300000  1.0
  C  C7  1  0.35410000  0.86790000  0.22510000  1.0
  C  C8  1  0.53280000  0.73350000  0.35520000  1.0
  C  C9  1  0.52980000  0.65300000  0.36530000  1.0
  C  C10  1  0.51020000  0.62290000  0.42680000  1.0
  C  C11  1  0.49220000  0.67140000  0.47710000  1.0
  C  C12  1  0.49870000  0.75210000  0.46710000  1.0
  C  C13  1  0.51940000  0.78370000  0.40600000  1.0
  C  C14  1  0.45790000  0.63450000  0.53890000  1.0
  C  C15  1  0.01930000  0.92010000  0.23630000  1.0
  C  C16  1  0.98540000  0.95160000  0.29790000  1.0
  C  C17  1  0.99610000  0.03140000  0.30930000  1.0
  C  C18  1  0.96710000  0.06060000  0.36670000  1.0
  C  C19  1  0.92780000  0.00750000  0.41170000  1.0
  C  C20  1  0.91740000  0.92780000  0.40010000  1.0
  C  C21  1  0.94600000  0.89960000  0.34300000  1.0
  C  C22  1  0.79310000  0.05480000  0.46730000  1.0
  C  C23  1  0.77860000  0.12390000  0.43910000  1.0
  C  C24  1  0.70100000  0.13190000  0.42040000  1.0
  C  C25  1  0.63930000  0.07010000  0.42990000  1.0
  C  C26  1  0.65440000  0.00130000  0.45990000  1.0
  C  C27  1  0.73130000  0.99350000  0.47880000  1.0
  C  C28  1  0.55630000  0.07550000  0.40510000  1.0
  C  C29  1  0.95290000  0.61750000  0.27480000  1.0
  C  C30  1  0.95310000  0.62460000  0.34780000  1.0
  C  C31  1  0.98270000  0.69680000  0.37580000  1.0
  C  C32  1  0.98350000  0.70620000  0.44260000  1.0
  C  C33  1  0.95530000  0.64270000  0.48180000  1.0
  C  C34  1  0.92750000  0.57120000  0.45550000  1.0
  C  C35  1  0.92560000  0.56240000  0.38790000  1.0
  C  C36  1  0.86870000  0.69600000  0.58360000  1.0
  C  C37  1  0.86920000  0.77560000  0.57450000  1.0
  C  C38  1  0.79900000  0.80660000  0.58630000  1.0
  C  C39  1  0.72920000  0.75800000  0.60520000  1.0
  C  C40  1  0.73000000  0.67850000  0.61480000  1.0
  C  C41  1  0.80010000  0.64710000  0.60410000  1.0
  C  C42  1  0.65280000  0.79240000  0.61770000  1.0
  C  C43  1  0.28880000  0.68420000  0.69670000  1.0
  C  C44  1  0.20550000  0.69690000  0.71590000  1.0
  C  C45  1  0.18550000  0.77200000  0.72320000  1.0
  C  C46  1  0.10800000  0.78220000  0.74010000  1.0
  C  C47  1  0.05060000  0.71640000  0.75060000  1.0
  C  C48  1  0.06900000  0.64130000  0.74300000  1.0
  C  C49  1  0.14590000  0.63210000  0.72510000  1.0
  C  C50  1  0.96720000  0.76650000  0.85520000  1.0
  C  C51  1  0.97020000  0.84700000  0.86530000  1.0
  C  C52  1  0.98980000  0.87710000  0.92680000  1.0
  C  C53  1  0.00780000  0.82860000  0.97710000  1.0
  C  C54  1  0.00130000  0.74790000  0.96710000  1.0
  C  C55  1  0.98060000  0.71630000  0.90600000  1.0
  C  C56  1  0.04210000  0.86550000  0.03890000  1.0
  C  C57  1  0.48070000  0.57990000  0.73630000  1.0
  C  C58  1  0.51460000  0.54840000  0.79790000  1.0
  C  C59  1  0.50390000  0.46860000  0.80930000  1.0
  C  C60  1  0.53290000  0.43940000  0.86670000  1.0
  C  C61  1  0.57220000  0.49250000  0.91170000  1.0
  C  C62  1  0.58260000  0.57220000  0.90010000  1.0
  C  C63  1  0.55400000  0.60040000  0.84300000  1.0
  C  C64  1  0.70690000  0.44520000  0.96730000  1.0
  C  C65  1  0.72140000  0.37610000  0.93910000  1.0
  C  C66  1  0.79900000  0.36810000  0.92040000  1.0
  C  C67  1  0.86070000  0.42990000  0.92990000  1.0
  C  C68  1  0.84560000  0.49870000  0.95990000  1.0
  C  C69  1  0.76870000  0.50650000  0.97880000  1.0
  C  C70  1  0.94370000  0.42450000  0.90510000  1.0
  C  C71  1  0.54710000  0.88250000  0.77480000  1.0
  C  C72  1  0.54690000  0.87540000  0.84780000  1.0
  C  C73  1  0.51730000  0.80320000  0.87580000  1.0
  C  C74  1  0.51650000  0.79380000  0.94260000  1.0
  C  C75  1  0.54470000  0.85730000  0.98180000  1.0
  C  C76  1  0.57250000  0.92880000  0.95550000  1.0
  C  C77  1  0.57440000  0.93760000  0.88790000  1.0
  C  C78  1  0.63130000  0.80400000  0.08360000  1.0
  C  C79  1  0.63080000  0.72440000  0.07450000  1.0
  C  C80  1  0.70100000  0.69340000  0.08630000  1.0
  C  C81  1  0.77080000  0.74200000  0.10520000  1.0
  C  C82  1  0.77000000  0.82150000  0.11480000  1.0
  C  C83  1  0.69990000  0.85290000  0.10410000  1.0
  C  C84  1  0.84720000  0.70760000  0.11770000  1.0
  C  C85  1  0.78880000  0.18420000  0.80330000  1.0
  C  C86  1  0.70550000  0.19690000  0.78410000  1.0
  C  C87  1  0.68550000  0.27200000  0.77680000  1.0
  C  C88  1  0.60800000  0.28220000  0.75990000  1.0
  C  C89  1  0.55060000  0.21640000  0.74940000  1.0
  C  C90  1  0.56900000  0.14130000  0.75700000  1.0
  C  C91  1  0.64590000  0.13210000  0.77490000  1.0
  C  C92  1  0.46720000  0.26650000  0.64480000  1.0
  C  C93  1  0.47020000  0.34700000  0.63470000  1.0
  C  C94  1  0.48980000  0.37710000  0.57320000  1.0
  C  C95  1  0.50780000  0.32860000  0.52290000  1.0
  C  C96  1  0.50130000  0.24790000  0.53290000  1.0
  C  C97  1  0.48060000  0.21630000  0.59400000  1.0
  C  C98  1  0.54210000  0.36550000  0.46110000  1.0
  C  C99  1  0.98070000  0.07990000  0.76370000  1.0
  C  C100  1  0.01460000  0.04840000  0.70210000  1.0
  C  C101  1  0.00390000  0.96860000  0.69070000  1.0
  C  C102  1  0.03290000  0.93940000  0.63330000  1.0
  C  C103  1  0.07220000  0.99250000  0.58830000  1.0
  C  C104  1  0.08260000  0.07220000  0.59990000  1.0
  C  C105  1  0.05400000  0.10040000  0.65700000  1.0
  C  C106  1  0.20690000  0.94520000  0.53270000  1.0
  C  C107  1  0.22140000  0.87610000  0.56090000  1.0
  C  C108  1  0.29900000  0.86810000  0.57960000  1.0
  C  C109  1  0.36070000  0.92990000  0.57010000  1.0
  C  C110  1  0.34560000  0.99870000  0.54010000  1.0
  C  C111  1  0.26870000  0.00650000  0.52120000  1.0
  C  C112  1  0.44370000  0.92450000  0.59490000  1.0
  C  C113  1  0.04710000  0.38250000  0.72520000  1.0
  C  C114  1  0.04690000  0.37540000  0.65220000  1.0
  C  C115  1  0.01730000  0.30320000  0.62420000  1.0
  C  C116  1  0.01650000  0.29380000  0.55740000  1.0
  C  C117  1  0.04470000  0.35730000  0.51820000  1.0
  C  C118  1  0.07250000  0.42880000  0.54450000  1.0
  C  C119  1  0.07440000  0.43760000  0.61210000  1.0
  C  C120  1  0.13130000  0.30400000  0.41640000  1.0
  C  C121  1  0.13080000  0.22440000  0.42550000  1.0
  C  C122  1  0.20100000  0.19340000  0.41370000  1.0
  C  C123  1  0.27080000  0.24200000  0.39480000  1.0
  C  C124  1  0.27000000  0.32150000  0.38520000  1.0
  C  C125  1  0.19990000  0.35290000  0.39590000  1.0
  C  C126  1  0.34720000  0.20760000  0.38230000  1.0
  C  C127  1  0.71120000  0.31580000  0.30330000  1.0
  C  C128  1  0.79450000  0.30310000  0.28410000  1.0
  C  C129  1  0.81450000  0.22800000  0.27680000  1.0
  C  C130  1  0.89200000  0.21780000  0.25990000  1.0
  C  C131  1  0.94940000  0.28360000  0.24940000  1.0
  C  C132  1  0.93100000  0.35870000  0.25700000  1.0
  C  C133  1  0.85410000  0.36790000  0.27490000  1.0
  C  C134  1  0.03280000  0.23350000  0.14480000  1.0
  C  C135  1  0.02980000  0.15300000  0.13470000  1.0
  C  C136  1  0.01020000  0.12290000  0.07320000  1.0
  C  C137  1  0.99220000  0.17140000  0.02290000  1.0
  C  C138  1  0.99870000  0.25210000  0.03290000  1.0
  C  C139  1  0.01940000  0.28370000  0.09400000  1.0
  C  C140  1  0.95790000  0.13450000  0.96110000  1.0
  C  C141  1  0.51930000  0.42010000  0.26370000  1.0
  C  C142  1  0.48540000  0.45160000  0.20210000  1.0
  C  C143  1  0.49610000  0.53140000  0.19070000  1.0
  C  C144  1  0.46710000  0.56060000  0.13330000  1.0
  C  C145  1  0.42780000  0.50750000  0.08830000  1.0
  C  C146  1  0.41740000  0.42780000  0.09990000  1.0
  C  C147  1  0.44600000  0.39960000  0.15700000  1.0
  C  C148  1  0.29310000  0.55480000  0.03270000  1.0
  C  C149  1  0.27860000  0.62390000  0.06090000  1.0
  C  C150  1  0.20100000  0.63190000  0.07960000  1.0
  C  C151  1  0.13930000  0.57010000  0.07010000  1.0
  C  C152  1  0.15440000  0.50130000  0.04010000  1.0
  C  C153  1  0.23130000  0.49350000  0.02120000  1.0
  C  C154  1  0.05630000  0.57550000  0.09490000  1.0
  C  C155  1  0.45290000  0.11750000  0.22520000  1.0
  C  C156  1  0.45310000  0.12460000  0.15220000  1.0
  C  C157  1  0.48270000  0.19680000  0.12420000  1.0
  C  C158  1  0.48350000  0.20620000  0.05740000  1.0
  C  C159  1  0.45530000  0.14270000  0.01820000  1.0
  C  C160  1  0.42750000  0.07120000  0.04450000  1.0
  C  C161  1  0.42560000  0.06240000  0.11210000  1.0
  C  C162  1  0.36870000  0.19600000  0.91640000  1.0
  C  C163  1  0.36920000  0.27560000  0.92550000  1.0
  C  C164  1  0.29900000  0.30660000  0.91370000  1.0
  C  C165  1  0.22920000  0.25800000  0.89480000  1.0
  C  C166  1  0.23000000  0.17850000  0.88520000  1.0
  C  C167  1  0.30010000  0.14710000  0.89590000  1.0
  C  C168  1  0.15280000  0.29240000  0.88230000  1.0
  S  S1  1  0.54795000  0.77098000  0.27490000  1.0
  S  S2  1  0.89307000  0.04221000  0.48591000  1.0
  S  S3  1  0.95730000  0.65567000  0.56805000  1.0
  S  S4  1  0.95205000  0.72902000  0.77490000  1.0
  S  S5  1  0.60693000  0.45779000  0.98591000  1.0
  S  S6  1  0.54270000  0.84433000  0.06805000  1.0
  S  S7  1  0.45205000  0.22902000  0.72510000  1.0
  S  S8  1  0.10693000  0.95779000  0.51409000  1.0
  S  S9  1  0.04270000  0.34433000  0.43195000  1.0
  S  S10  1  0.04795000  0.27098000  0.22510000  1.0
  S  S11  1  0.39307000  0.54221000  0.01409000  1.0
  S  S12  1  0.45730000  0.15567000  0.93195000  1.0
  O  O1  1  0.98510000  0.67470000  0.24320000  1.0
  O  O2  1  0.43160000  0.67600000  0.58230000  1.0
  O  O3  1  0.01320000  0.84660000  0.23139000  1.0
  O  O4  1  0.59050000  0.74570000  0.63150000  1.0
  O  O5  1  0.15710000  0.75659000  0.19288000  1.0
  O  O6  1  0.53740000  0.14030000  0.38923000  1.0
  O  O7  1  0.20110000  0.88550000  0.18710000  1.0
  O  O8  1  0.05240000  0.96980000  0.19577000  1.0
  O  O9  1  0.44890000  0.56080000  0.54400000  1.0
  O  O10  1  0.65860000  0.86590000  0.61380000  1.0
  O  O11  1  0.91880000  0.55430000  0.24890000  1.0
  O  O12  1  0.50710000  0.01270000  0.40000000  1.0
  O  O13  1  0.57360000  0.71050000  0.23500000  1.0
  O  O14  1  0.59670000  0.84680000  0.27816000  1.0
  O  O15  1  0.93810000  0.11770000  0.49969000  1.0
  O  O16  1  0.88990000  0.98020000  0.53296000  1.0
  O  O17  1  0.94970000  0.58020000  0.59834000  1.0
  O  O18  1  0.02410000  0.71520000  0.58402000  1.0
  O  O19  1  0.51490000  0.82530000  0.74320000  1.0
  O  O20  1  0.06840000  0.82400000  0.08230000  1.0
  O  O21  1  0.48680000  0.65340000  0.73139000  1.0
  O  O22  1  0.90950000  0.75430000  0.13150000  1.0
  O  O23  1  0.34290000  0.74341000  0.69288000  1.0
  O  O24  1  0.96260000  0.35970000  0.88923000  1.0
  O  O25  1  0.29890000  0.61450000  0.68710000  1.0
  O  O26  1  0.44760000  0.53020000  0.69577000  1.0
  O  O27  1  0.05110000  0.93920000  0.04400000  1.0
  O  O28  1  0.84140000  0.63410000  0.11380000  1.0
  O  O29  1  0.58120000  0.94570000  0.74890000  1.0
  O  O30  1  0.99290000  0.48730000  0.90000000  1.0
  O  O31  1  0.92640000  0.78950000  0.73500000  1.0
  O  O32  1  0.90330000  0.65320000  0.77816000  1.0
  O  O33  1  0.56190000  0.38230000  0.99969000  1.0
  O  O34  1  0.61010000  0.51980000  0.03296000  1.0
  O  O35  1  0.55030000  0.91980000  0.09834000  1.0
  O  O36  1  0.47590000  0.78480000  0.08402000  1.0
  O  O37  1  0.01490000  0.32530000  0.75680000  1.0
  O  O38  1  0.56840000  0.32400000  0.41770000  1.0
  O  O39  1  0.98680000  0.15340000  0.76861000  1.0
  O  O40  1  0.40950000  0.25430000  0.36850000  1.0
  O  O41  1  0.84290000  0.24341000  0.80712000  1.0
  O  O42  1  0.46260000  0.85970000  0.61077000  1.0
  O  O43  1  0.79890000  0.11450000  0.81290000  1.0
  O  O44  1  0.94760000  0.03020000  0.80423000  1.0
  O  O45  1  0.55110000  0.43920000  0.45600000  1.0
  O  O46  1  0.34140000  0.13410000  0.38620000  1.0
  O  O47  1  0.08120000  0.44570000  0.75110000  1.0
  O  O48  1  0.49290000  0.98730000  0.60000000  1.0
  O  O49  1  0.42640000  0.28950000  0.76500000  1.0
  O  O50  1  0.40330000  0.15320000  0.72184000  1.0
  O  O51  1  0.06190000  0.88230000  0.50031000  1.0
  O  O52  1  0.11010000  0.01980000  0.46704000  1.0
  O  O53  1  0.05030000  0.41980000  0.40166000  1.0
  O  O54  1  0.97590000  0.28480000  0.41598000  1.0
  O  O55  1  0.48510000  0.17470000  0.25680000  1.0
  O  O56  1  0.93160000  0.17600000  0.91770000  1.0
  O  O57  1  0.51320000  0.34660000  0.26861000  1.0
  O  O58  1  0.09050000  0.24570000  0.86850000  1.0
  O  O59  1  0.65710000  0.25659000  0.30712000  1.0
  O  O60  1  0.03740000  0.64030000  0.11077000  1.0
  O  O61  1  0.70110000  0.38550000  0.31290000  1.0
  O  O62  1  0.55240000  0.46980000  0.30423000  1.0
  O  O63  1  0.94890000  0.06080000  0.95600000  1.0
  O  O64  1  0.15860000  0.36590000  0.88620000  1.0
  O  O65  1  0.41880000  0.05430000  0.25110000  1.0
  O  O66  1  0.00710000  0.51270000  0.10000000  1.0
  O  O67  1  0.07360000  0.21050000  0.26500000  1.0
  O  O68  1  0.09670000  0.34680000  0.22184000  1.0
  O  O69  1  0.43810000  0.61770000  0.00031000  1.0
  O  O70  1  0.38990000  0.48020000  0.96704000  1.0
  O  O71  1  0.44970000  0.08020000  0.90166000  1.0
  O  O72  1  0.52410000  0.21520000  0.91598000  1.0
