# generated using pymatgen
data_H20C37(NO2)4
_symmetry_space_group_name_H-M   'P 1'
_cell_length_a   31.72780000
_cell_length_b   31.72780000
_cell_length_c   37.24350000
_cell_angle_alpha   90.00000000
_cell_angle_beta   90.00000000
_cell_angle_gamma   90.00000000
_symmetry_Int_Tables_number   1
_chemical_formula_structural   H20C37(NO2)4
_chemical_formula_sum   'H160 C296 N32 O64'
_cell_volume   37491.29191189
_cell_formula_units_Z   8
loop_
 _symmetry_equiv_pos_site_id
 _symmetry_equiv_pos_as_xyz
  1  'x, y, z'
loop_
 _atom_site_type_symbol
 _atom_site_label
 _atom_site_symmetry_multiplicity
 _atom_site_fract_x
 _atom_site_fract_y
 _atom_site_fract_z
 _atom_site_occupancy
  H  4  1  0.15207800  0.01035500  0.20095600  1
  H  5  1  0.10512000  0.01082300  0.05521800  1
  H  7  1  0.64706300  0.02023400  0.71184000  1
  H  8  1  0.59568200  0.00347500  0.56584900  1
  H  20  1  0.68359300  0.02354800  0.77055100  1
  H  22  1  0.78348000  0.02611900  0.69644200  1
  H  33  1  0.01027800  0.15195700  0.20120000  1
  H  34  1  0.01268500  0.10618500  0.05235000  1
  H  36  1  0.00845900  0.60280900  0.55804100  1
  H  37  1  0.01728000  0.64781000  0.70902900  1
  H  38  1  0.00307000  0.41051700  0.44069500  1
  H  40  1  0.03194500  0.98227700  0.94525300  1
  H  43  1  0.02978800  0.48770100  0.44340900  1
  H  46  1  0.03350600  0.78162700  0.80731700  1
  H  72  1  0.05148800  0.11117800  0.16095200  1
  H  73  1  0.10439000  0.24582700  0.20203500  1
  H  74  1  0.14539100  0.20521100  0.16160300  1
  H  75  1  0.20231200  0.14782900  0.16450900  1
  H  76  1  0.24246500  0.10754000  0.20595800  1
  H  77  1  0.11104500  0.05136700  0.16067900  1
  H  78  1  0.14623700  0.05234500  0.09506500  1
  H  79  1  0.05277700  0.14676900  0.09357900  1
  H  80  1  0.10988800  0.20339800  0.09301000  1
  H  81  1  0.20659000  0.11239300  0.09765200  1
  H  82  1  0.24794600  0.15354600  0.05774900  1
  H  83  1  0.15085700  0.24410300  0.05252600  1
  H  108  1  0.75222000  0.09825600  0.69230100  1
  H  109  1  0.71175100  0.13898300  0.65204200  1
  H  110  1  0.60637300  0.06141000  0.67157800  1
  H  111  1  0.54391100  0.11841600  0.65134600  1
  H  112  1  0.50336900  0.15973400  0.69122200  1
  H  113  1  0.60923200  0.23637700  0.71185600  1
  H  114  1  0.64985300  0.19503100  0.67161000  1
  H  115  1  0.61781400  0.21213400  0.60489500  1
  H  116  1  0.65925800  0.25254600  0.56464400  1
  H  117  1  0.73611100  0.14676300  0.54463200  1
  H  118  1  0.69502700  0.10627600  0.58557400  1
  H  119  1  0.63752000  0.04397200  0.60563100  1
  H  120  1  0.56187300  0.15053200  0.58477600  1
  H  121  1  0.52103200  0.11022900  0.54365200  1
  H  146  1  0.25129700  0.65534000  0.56192400  1
  H  147  1  0.21034400  0.61500600  0.60238200  1
  H  148  1  0.14923800  0.73877800  0.54731500  1
  H  149  1  0.10823700  0.69823600  0.58771600  1
  H  150  1  0.04842800  0.64320900  0.59936100  1
  H  151  1  0.10767800  0.51488000  0.55062800  1
  H  152  1  0.14865800  0.55659400  0.59043900  1
  H  153  1  0.11526800  0.54717900  0.65590300  1
  H  154  1  0.15665200  0.50681100  0.69619400  1
  H  155  1  0.23835400  0.61019300  0.71063700  1
  H  156  1  0.19777300  0.65021500  0.66909400  1
  H  157  1  0.14040400  0.71080900  0.65430800  1
  H  158  1  0.05827900  0.60752100  0.66803700  1
  H  159  1  0.09835200  0.75154900  0.69383400  1
  H  185  1  0.51677400  0.60841600  0.04802500  1
  H  186  1  0.55748600  0.64888800  0.08910800  1
  H  187  1  0.59969800  0.50585900  0.06172900  1
  H  188  1  0.64133600  0.54676000  0.10149700  1
  H  189  1  0.69882500  0.60690000  0.08883700  1
  H  190  1  0.73969800  0.64681700  0.04743500  1
  H  191  1  0.65616300  0.74918200  0.05927800  1
  H  192  1  0.61460900  0.70894000  0.09958700  1
  H  193  1  0.64781300  0.70122700  0.16532200  1
  H  194  1  0.60650300  0.74296000  0.20484800  1
  H  195  1  0.50852900  0.65349000  0.19895100  1
  H  196  1  0.54876100  0.61309600  0.15779500  1
  H  197  1  0.60801200  0.55788000  0.16805800  1
  H  198  1  0.70937800  0.64249300  0.15555900  1
  H  199  1  0.75009900  0.60202700  0.19612600  1
  H  200  1  0.64877500  0.51720900  0.20853000  1
  H  226  1  0.90975400  0.25383100  0.31496800  1
  H  227  1  0.86822300  0.29430100  0.35501300  1
  H  228  1  0.98533100  0.36015100  0.29355700  1
  H  229  1  0.94456900  0.40051900  0.33473500  1
  H  230  1  0.88845400  0.46240800  0.35534800  1
  H  231  1  0.84709600  0.50317100  0.31532800  1
  H  232  1  0.77044100  0.39749700  0.29435500  1
  H  233  1  0.81129500  0.35670900  0.33522400  1
  H  234  1  0.79448000  0.38869700  0.40193100  1
  H  235  1  0.75425900  0.34785600  0.44226800  1
  H  236  1  0.85956800  0.26982900  0.46124900  1
  H  237  1  0.90006800  0.31126600  0.42107800  1
  H  238  1  0.96267900  0.36904500  0.40075500  1
  H  239  1  0.85601900  0.44429500  0.42210600  1
  H  240  1  0.89638700  0.48545100  0.46272000  1
  H  266  1  0.85046200  0.00115000  0.81212400  1
  H  267  1  0.89170700  0.96009500  0.85218400  1
  H  268  1  0.76821600  0.89837000  0.79688100  1
  H  269  1  0.80892400  0.85747500  0.83765600  1
  H  270  1  0.86423900  0.79751800  0.84984800  1
  H  271  1  0.90486900  0.75713400  0.80892000  1
  H  272  1  0.99094800  0.85767700  0.79877600  1
  H  273  1  0.94977900  0.89847700  0.83925600  1
  H  274  1  0.96051400  0.86532000  0.90488900  1
  H  275  1  0.00102100  0.90666500  0.94492300  1
  H  276  1  0.89763200  0.98836600  0.95966300  1
  H  277  1  0.85721600  0.94718200  0.91907900  1
  H  278  1  0.79669500  0.89039900  0.90450200  1
  H  279  1  0.89965200  0.80786200  0.91782500  1
  H  280  1  0.85907000  0.76624900  0.95792100  1
  H  281  1  0.75617900  0.84889900  0.94437800  1
  H  307  1  0.40135800  0.49518400  0.95317400  1
  H  308  1  0.36052000  0.45472400  0.91248500  1
  H  309  1  0.49636600  0.40225900  0.95103900  1
  H  310  1  0.45516500  0.36144900  0.91075000  1
  H  311  1  0.39524600  0.30123400  0.91044400  1
  H  312  1  0.35418800  0.25988900  0.95041400  1
  H  313  1  0.26400700  0.35721000  0.95621100  1
  H  314  1  0.30396300  0.39764200  0.91476200  1
  H  315  1  0.29992200  0.36259000  0.84749300  1
  H  316  1  0.25881700  0.40382200  0.80751100  1
  H  317  1  0.35551800  0.49490700  0.80356400  1
  H  318  1  0.39637800  0.45390800  0.84385000  1
  H  319  1  0.45358300  0.39684400  0.84382600  1
  H  320  1  0.35973200  0.30279600  0.84480800  1
  H  321  1  0.40060400  0.26145000  0.80463500  1
  H  322  1  0.49359200  0.35630300  0.80247400  1
  H  348  1  0.35004000  0.75463100  0.44321100  1
  H  349  1  0.39099800  0.79588200  0.40313600  1
  H  350  1  0.26957500  0.85821600  0.46117100  1
  H  351  1  0.30995200  0.89933400  0.42030500  1
  H  352  1  0.36502000  0.95997500  0.40578100  1
  H  353  1  0.40592500  0.00031500  0.44647800  1
  H  354  1  0.49019500  0.89852100  0.45842700  1
  H  355  1  0.44883300  0.85782500  0.41802500  1
  H  356  1  0.46099600  0.89035800  0.35257500  1
  H  357  1  0.50121000  0.84882000  0.31246500  1
  H  358  1  0.39633400  0.76964700  0.29554200  1
  H  359  1  0.35625800  0.81080900  0.33645400  1
  H  360  1  0.29552500  0.86725200  0.35365900  1
  H  361  1  0.39950800  0.94784400  0.33768600  1
  H  362  1  0.35876400  0.98931200  0.29755600  1
  H  363  1  0.25482200  0.90871400  0.31391500  1
  H  366  1  0.93384300  0.98172500  0.02097700  1
  H  376  1  0.82367800  0.27207100  0.51980400  1
  H  378  1  0.72265300  0.27649900  0.44684900  1
  H  390  1  0.32486600  0.48820300  0.73922200  1
  H  392  1  0.22222000  0.47818600  0.80997800  1
  H  404  1  0.43429100  0.77858200  0.23409700  1
  H  406  1  0.52950700  0.77101400  0.31214300  1
  H  418  1  0.18343900  0.73432100  0.48703600  1
  H  420  1  0.28500800  0.72763300  0.55926000  1
  H  432  1  0.68195100  0.52094700  0.26923100  1
  H  434  1  0.78458900  0.53013100  0.19829500  1
  H  446  1  0.57115200  0.23054800  0.77112600  1
  H  448  1  0.47431600  0.23449600  0.69426700  1
  H  459  1  0.93594900  0.47686200  0.52239800  1
  H  471  1  0.82433000  0.77071800  0.01881300  1
  H  473  1  0.72366800  0.77544900  0.94559900  1
  H  482  1  0.32246800  0.98309000  0.23695400  1
  H  484  1  0.22390300  0.98342400  0.31227200  1
  H  494  1  0.18289600  0.23451600  0.98754500  1
  H  496  1  0.28314500  0.23033100  0.06109500  1
  H  512  1  0.42896100  0.99248600  0.51613600  1
  H  514  1  0.53465700  0.97224200  0.45042800  1
  H  521  1  0.92934900  0.76718500  0.73880600  1
  H  531  1  0.07582700  0.23992400  0.26684900  1
  H  533  1  0.97129600  0.22472100  0.19879000  1
  H  544  1  0.43094100  0.48706800  0.01847600  1
  H  546  1  0.53388800  0.47712700  0.94804500  1
  C  1  1  0.02909600  0.02866500  0.02673100  1
  C  2  1  0.09360300  0.03945700  0.06322000  1
  C  3  1  0.16317900  0.03928400  0.19329500  1
  C  6  1  0.58800800  0.03446700  0.56984200  1
  C  9  1  0.98772000  0.01595500  0.03679100  1
  C  10  1  0.04516500  0.01584600  0.99278300  1
  C  13  1  0.26855100  0.01701400  0.22085500  1
  C  14  1  0.22704400  0.02947400  0.23069400  1
  C  15  1  0.21079400  0.01666800  0.26456900  1
  C  18  1  0.72940100  0.02904300  0.72957200  1
  C  19  1  0.71336200  0.01496000  0.76288500  1
  C  21  1  0.77113700  0.01734700  0.72071400  1
  C  25  1  0.48481400  0.02151700  0.53454500  1
  C  26  1  0.52837600  0.02804600  0.52738600  1
  C  27  1  0.54655200  0.00966000  0.49618600  1
  C  32  1  0.03833100  0.16408900  0.19238800  1
  C  35  1  0.03758100  0.59200100  0.56547600  1
  C  39  1  0.02007200  0.99059200  0.96982100  1
  C  41  1  0.02860000  0.52893700  0.52693800  1
  C  42  1  0.01877000  0.49382900  0.46872100  1
  C  44  1  0.02787600  0.72861600  0.72886300  1
  C  45  1  0.02043700  0.77017900  0.78413500  1
  C  47  1  0.02754400  0.22832000  0.22903800  1
  C  48  1  0.02050800  0.27028800  0.28463800  1
  C  50  1  0.20409700  0.20357800  0.05185700  1
  C  51  1  0.21920100  0.16492700  0.06562500  1
  C  52  1  0.19464700  0.14070200  0.08942200  1
  C  53  1  0.15494900  0.15490100  0.10234700  1
  C  54  1  0.13922800  0.19252600  0.08649200  1
  C  55  1  0.16323600  0.21652500  0.06214400  1
  C  56  1  0.12823200  0.12869200  0.12835200  1
  C  57  1  0.10237800  0.10254200  0.10162700  1
  C  58  1  0.06418800  0.11783800  0.08645200  1
  C  59  1  0.04035500  0.09394600  0.06190400  1
  C  60  1  0.05415100  0.05377800  0.05054800  1
  C  61  1  0.11758700  0.06389300  0.08728600  1
  C  62  1  0.15393600  0.10259900  0.15523000  1
  C  63  1  0.10159000  0.15510400  0.15425200  1
  C  64  1  0.06280700  0.14003900  0.16841200  1
  C  65  1  0.05255600  0.20362500  0.20500000  1
  C  66  1  0.09259700  0.21757400  0.19335800  1
  C  67  1  0.11657600  0.19366600  0.16892500  1
  C  68  1  0.19138400  0.11857500  0.17122900  1
  C  69  1  0.21524500  0.09486900  0.19588500  1
  C  70  1  0.20201900  0.05431300  0.20669400  1
  C  71  1  0.13928500  0.06342400  0.16895400  1
  C  84  1  0.55356800  0.05254900  0.55144200  1
  C  85  1  0.54501400  0.09567600  0.55723900  1
  C  86  1  0.56933300  0.11940300  0.58154600  1
  C  87  1  0.60244000  0.10117200  0.60214000  1
  C  88  1  0.61222000  0.05846300  0.59405000  1
  C  89  1  0.62803900  0.12828900  0.62841600  1
  C  90  1  0.65371000  0.15537600  0.60218300  1
  C  91  1  0.68726800  0.13728600  0.58203000  1
  C  92  1  0.71165000  0.16105500  0.55779200  1
  C  93  1  0.70236200  0.20389300  0.55143600  1
  C  94  1  0.66742100  0.22178700  0.56922200  1
  C  95  1  0.64342300  0.19784600  0.59361800  1
  C  96  1  0.60082000  0.15394700  0.65456300  1
  C  97  1  0.65522300  0.10279200  0.65471100  1
  C  98  1  0.69764300  0.11321000  0.66322000  1
  C  99  1  0.72178300  0.08919100  0.68745200  1
  C  100  1  0.70440100  0.05407400  0.70556300  1
  C  101  1  0.66132800  0.04514900  0.69931700  1
  C  102  1  0.63734300  0.06936100  0.67508700  1
  C  103  1  0.55817900  0.14400700  0.66267500  1
  C  104  1  0.53400800  0.16833100  0.68667300  1
  C  105  1  0.55166700  0.20313100  0.70500400  1
  C  106  1  0.59487600  0.21164000  0.69914500  1
  C  107  1  0.61880700  0.18729900  0.67498000  1
  C  122  1  0.05303900  0.70408300  0.70475700  1
  C  123  1  0.04264300  0.66179800  0.69691400  1
  C  124  1  0.06703200  0.63805900  0.67265700  1
  C  125  1  0.10225100  0.65551000  0.65427800  1
  C  126  1  0.11376700  0.69716100  0.66439800  1
  C  127  1  0.08935800  0.72122200  0.68840800  1
  C  128  1  0.12847900  0.62854600  0.62843200  1
  C  129  1  0.15394700  0.60211800  0.65525800  1
  C  130  1  0.18883200  0.61978400  0.67396200  1
  C  131  1  0.21292600  0.59624700  0.69858700  1
  C  132  1  0.20227100  0.55410400  0.70670600  1
  C  133  1  0.16587600  0.53699900  0.69048300  1
  C  134  1  0.14189000  0.56082700  0.66601200  1
  C  135  1  0.10185700  0.60264200  0.60208900  1
  C  136  1  0.15565700  0.65396600  0.60214800  1
  C  137  1  0.19711600  0.64175900  0.59209800  1
  C  138  1  0.22149200  0.66554900  0.56785000  1
  C  139  1  0.20505900  0.70203700  0.55111400  1
  C  140  1  0.16275700  0.71279100  0.55882300  1
  C  141  1  0.13862500  0.68893500  0.58317300  1
  C  142  1  0.06133000  0.61574100  0.59019500  1
  C  143  1  0.05343000  0.55402500  0.55098500  1
  C  144  1  0.09471500  0.54190900  0.56077500  1
  C  145  1  0.11870500  0.56643400  0.58474900  1
  C  160  1  0.70422400  0.55463600  0.20583100  1
  C  161  1  0.72051300  0.59158200  0.18972700  1
  C  162  1  0.69628200  0.61546300  0.16543900  1
  C  163  1  0.65517600  0.60288700  0.15469900  1
  C  164  1  0.63820000  0.56747100  0.17309000  1
  C  165  1  0.66218600  0.54352600  0.19748400  1
  C  166  1  0.62832600  0.62834500  0.12821400  1
  C  167  1  0.60158900  0.65436000  0.15439100  1
  C  168  1  0.56134000  0.64086000  0.16663900  1
  C  169  1  0.53742800  0.66461900  0.19123500  1
  C  170  1  0.55282100  0.70303900  0.20523500  1
  C  171  1  0.59385100  0.71559600  0.19506500  1
  C  172  1  0.61803500  0.69105900  0.17124300  1
  C  173  1  0.65406700  0.65460600  0.10146300  1
  C  174  1  0.60226000  0.60139700  0.10225100  1
  C  175  1  0.56666400  0.61853900  0.08419600  1
  C  176  1  0.54248000  0.59471800  0.05985000  1
  C  177  1  0.55351800  0.55271400  0.05156500  1
  C  178  1  0.59025200  0.53595900  0.06751100  1
  C  179  1  0.61442600  0.56010200  0.09162800  1
  C  180  1  0.68955600  0.63711600  0.08348000  1
  C  181  1  0.71382800  0.66058800  0.05893700  1
  C  182  1  0.70269900  0.70240300  0.05010700  1
  C  183  1  0.66573100  0.71925900  0.06555700  1
  C  184  1  0.64161400  0.69551600  0.09000100  1
  C  201  1  0.95424200  0.45297500  0.45516400  1
  C  202  1  0.91091100  0.46106600  0.44965700  1
  C  203  1  0.88715200  0.43681900  0.42531200  1
  C  204  1  0.90538600  0.40388200  0.40454600  1
  C  205  1  0.94819300  0.39433200  0.41236200  1
  C  206  1  0.97225700  0.41868600  0.43641700  1
  C  207  1  0.87822600  0.37833700  0.37827000  1
  C  208  1  0.85109600  0.35265000  0.40446300  1
  C  209  1  0.86909900  0.31916800  0.42470000  1
  C  210  1  0.84522100  0.29480400  0.44888900  1
  C  211  1  0.80216400  0.30365400  0.45530400  1
  C  212  1  0.78467400  0.33881300  0.43730900  1
  C  213  1  0.80866900  0.36292500  0.41303300  1
  C  214  1  0.85259600  0.40565400  0.35219100  1
  C  215  1  0.90372800  0.35128200  0.35187400  1
  C  216  1  0.89363900  0.30870200  0.34353400  1
  C  217  1  0.91766800  0.28472100  0.31919200  1
  C  218  1  0.95228800  0.30270300  0.30098200  1
  C  219  1  0.96117900  0.34570900  0.30701000  1
  C  220  1  0.93693500  0.36945500  0.33136300  1
  C  221  1  0.86289300  0.44820300  0.34392100  1
  C  222  1  0.83894900  0.47235500  0.31964300  1
  C  223  1  0.80410200  0.45461100  0.30159900  1
  C  224  1  0.79482300  0.41170500  0.30768300  1
  C  225  1  0.81908000  0.38774500  0.33187800  1
  C  241  1  0.80292300  0.80251400  0.95455100  1
  C  242  1  0.84531800  0.79228300  0.94669700  1
  C  243  1  0.86918400  0.81677200  0.92258900  1
  C  244  1  0.85179200  0.85200000  0.90420900  1
  C  245  1  0.81020400  0.86358300  0.91439100  1
  C  246  1  0.78609300  0.83911900  0.93832000  1
  C  247  1  0.87866400  0.87807500  0.87818100  1
  C  248  1  0.90533500  0.90362400  0.90478400  1
  C  249  1  0.88772000  0.93832800  0.92373800  1
  C  250  1  0.91148100  0.96258500  0.94810200  1
  C  251  1  0.95400200  0.95257800  0.95561400  1
  C  252  1  0.97099700  0.91627200  0.93905900  1
  C  253  1  0.94690400  0.89196200  0.91499800  1
  C  254  1  0.90437100  0.85134500  0.85176800  1
  C  255  1  0.85305300  0.90514300  0.85193700  1
  C  256  1  0.86506800  0.94668100  0.84186600  1
  C  257  1  0.84113900  0.97094000  0.81763300  1
  C  258  1  0.80465100  0.95416300  0.80133000  1
  C  259  1  0.79378000  0.91198900  0.80899800  1
  C  260  1  0.81797300  0.88794700  0.83316600  1
  C  261  1  0.89141700  0.81060400  0.84026000  1
  C  262  1  0.91500800  0.78678900  0.81547400  1
  C  263  1  0.95266600  0.80288600  0.80063700  1
  C  264  1  0.96467700  0.84431000  0.80997300  1
  C  265  1  0.94023200  0.86832700  0.83398500  1
  C  282  1  0.45180600  0.30417400  0.80032800  1
  C  283  1  0.41227200  0.28993900  0.81285900  1
  C  284  1  0.38844200  0.31426700  0.83710800  1
  C  285  1  0.40383200  0.35273500  0.85167100  1
  C  286  1  0.44206000  0.36800800  0.83655200  1
  C  287  1  0.46582800  0.34416200  0.81192500  1
  C  288  1  0.37807500  0.37877800  0.87854100  1
  C  289  1  0.35140500  0.40519700  0.85267000  1
  C  290  1  0.36710400  0.44301200  0.83714000  1
  C  291  1  0.34316900  0.46716400  0.81285400  1
  C  292  1  0.30244400  0.45416300  0.80219400  1
  C  293  1  0.28743700  0.41528900  0.81561900  1
  C  294  1  0.31184700  0.39098800  0.83946300  1
  C  295  1  0.35236000  0.35250500  0.90527000  1
  C  296  1  0.40469200  0.40505500  0.90456400  1
  C  297  1  0.38945000  0.44331500  0.91963000  1
  C  298  1  0.41334700  0.46715500  0.94416300  1
  C  299  1  0.45358300  0.45342600  0.95545900  1
  C  300  1  0.46811900  0.41418200  0.94246900  1
  C  301  1  0.44366800  0.39014700  0.91845900  1
  C  302  1  0.36701200  0.31323500  0.91879200  1
  C  303  1  0.34310600  0.28890600  0.94298400  1
  C  304  1  0.30432600  0.30387000  0.95658100  1
  C  305  1  0.29115500  0.34454000  0.94600200  1
  C  306  1  0.31491200  0.36835500  0.92134800  1
  C  323  1  0.30213200  0.95404300  0.30233200  1
  C  324  1  0.34483300  0.96375400  0.30940500  1
  C  325  1  0.36879600  0.93936200  0.33351300  1
  C  326  1  0.35127500  0.90470200  0.35258300  1
  C  327  1  0.30924700  0.89368600  0.34326800  1
  C  328  1  0.28501800  0.91810000  0.31938800  1
  C  329  1  0.37845000  0.87865800  0.37842900  1
  C  330  1  0.40501700  0.85321700  0.35165900  1
  C  331  1  0.38697900  0.81914900  0.33214400  1
  C  332  1  0.41053300  0.79490200  0.30763500  1
  C  333  1  0.45332500  0.80420900  0.30068100  1
  C  334  1  0.47088700  0.83980000  0.31789500  1
  C  335  1  0.44697700  0.86416900  0.34203800  1
  C  336  1  0.40426000  0.90544900  0.40473700  1
  C  337  1  0.35314100  0.85137300  0.40472900  1
  C  338  1  0.36476800  0.80947000  0.41401900  1
  C  339  1  0.34103500  0.78507800  0.43828900  1
  C  340  1  0.30514700  0.80203100  0.45540300  1
  C  341  1  0.29470400  0.84449300  0.44848900  1
  C  342  1  0.31869800  0.86867000  0.42427600  1
  C  343  1  0.39191500  0.94660200  0.41564900  1
  C  344  1  0.41565700  0.97040400  0.44033800  1
  C  345  1  0.45288000  0.95393000  0.45568500  1
  C  346  1  0.46427100  0.91215900  0.44689200  1
  C  347  1  0.43968400  0.88818300  0.42295700  1
  C  364  1  0.97890500  0.97785500  0.97935800  1
  C  365  1  0.96327200  0.99111200  0.01300400  1
  C  371  1  0.77730500  0.27852100  0.47936700  1
  C  372  1  0.79372000  0.26387400  0.51238500  1
  C  373  1  0.76948600  0.23909000  0.53636500  1
  C  374  1  0.72732400  0.22837400  0.52732700  1
  C  375  1  0.71018500  0.24265500  0.49426900  1
  C  377  1  0.73532000  0.26730500  0.47088300  1
  C  385  1  0.27749800  0.47914700  0.77834000  1
  C  386  1  0.29443800  0.49532300  0.74610400  1
  C  387  1  0.27000300  0.51997600  0.72217500  1
  C  388  1  0.22737800  0.52952900  0.73078000  1
  C  389  1  0.20996400  0.51379800  0.76331200  1
  C  391  1  0.23507800  0.48874500  0.78641400  1
  C  399  1  0.47799100  0.77890000  0.27685100  1
  C  400  1  0.46302300  0.76765800  0.24248000  1
  C  401  1  0.48737400  0.74293200  0.21853100  1
  C  402  1  0.52784000  0.72809300  0.22921700  1
  C  403  1  0.54310100  0.73879700  0.26398500  1
  C  405  1  0.51823300  0.76415000  0.28704600  1
  C  413  1  0.23014200  0.72680400  0.52702700  1
  C  414  1  0.21360300  0.74201800  0.49426400  1
  C  415  1  0.23793400  0.76679400  0.47035900  1
  C  416  1  0.28026300  0.77707900  0.47928700  1
  C  417  1  0.29747800  0.76215200  0.51213300  1
  C  419  1  0.27232200  0.73730600  0.53536600  1
  C  427  1  0.72920300  0.52973100  0.22989300  1
  C  428  1  0.71231800  0.51373500  0.26225900  1
  C  429  1  0.73658400  0.48888000  0.28615500  1
  C  430  1  0.77917400  0.47932700  0.27760300  1
  C  431  1  0.79673600  0.49499200  0.24514700  1
  C  433  1  0.77162900  0.51986900  0.22190400  1
  C  441  1  0.52678100  0.22836700  0.72885300  1
  C  442  1  0.54207000  0.24066600  0.76289600  1
  C  443  1  0.51773500  0.26551800  0.78675300  1
  C  444  1  0.47674900  0.27911000  0.77642900  1
  C  445  1  0.46093600  0.26720100  0.74216800  1
  C  447  1  0.48598100  0.24206100  0.71907600  1
  C  455  1  0.97893000  0.47817400  0.47910900  1
  C  456  1  0.96433700  0.48845800  0.51382700  1
  C  457  1  0.98856800  0.51320000  0.53784500  1
  C  458  1  0.04356100  0.51911900  0.49189300  1
  C  466  1  0.77804900  0.77723900  0.97837300  1
  C  467  1  0.79437600  0.76250800  0.01135800  1
  C  468  1  0.76997800  0.73776300  0.03525100  1
  C  469  1  0.72786900  0.72687000  0.02601900  1
  C  470  1  0.71099100  0.74116100  0.99282400  1
  C  472  1  0.73615500  0.76608200  0.96966000  1
  C  480  1  0.27722400  0.97916900  0.27844900  1
  C  481  1  0.29296900  0.99237500  0.24481100  1
  C  483  1  0.23591400  0.99171700  0.28775000  1
  C  489  1  0.22911100  0.22843100  0.02801300  1
  C  490  1  0.21283300  0.24286900  0.99496900  1
  C  491  1  0.23734800  0.26744100  0.97103500  1
  C  492  1  0.27930000  0.27885800  0.98049100  1
  C  493  1  0.29595100  0.26484700  0.01390300  1
  C  495  1  0.27086900  0.23965800  0.03693400  1
  C  503  1  0.73774700  0.99025700  0.78681700  1
  C  504  1  0.77966000  0.97893900  0.77740100  1
  C  505  1  0.79637100  0.99264700  0.74399300  1
  C  510  1  0.47793400  0.97846000  0.47964400  1
  C  511  1  0.46018300  0.99726700  0.51046300  1
  C  513  1  0.52126200  0.98487100  0.47301700  1
  C  517  1  0.97760300  0.77829800  0.77667300  1
  C  518  1  0.96020500  0.76113000  0.74503800  1
  C  519  1  0.98478900  0.73690200  0.72090500  1
  C  520  1  0.04561000  0.74529600  0.76094900  1
  C  528  1  0.04496300  0.24583400  0.26058200  1
  C  529  1  0.97733800  0.27817100  0.27688600  1
  C  530  1  0.95937300  0.26103900  0.24511000  1
  C  532  1  0.98456200  0.23627700  0.22184300  1
  C  539  1  0.47850100  0.47809500  0.97953000  1
  C  540  1  0.46144100  0.49410600  0.01176700  1
  C  541  1  0.48584200  0.51853600  0.03588400  1
  C  542  1  0.52852700  0.52806000  0.02744600  1
  C  543  1  0.54603500  0.51248400  0.99488600  1
  C  545  1  0.52098100  0.48756600  0.97162800  1
  N  11  1  0.97158300  0.02718300  0.07098200  1
  N  12  1  0.08570000  0.02940600  0.98168900  1
  N  16  1  0.28482800  0.02831200  0.18672900  1
  N  17  1  0.17003300  0.02991400  0.27532600  1
  N  28  1  0.46663200  0.03828600  0.56624400  1
  N  29  1  0.58950200  0.01729900  0.48797000  1
  N  49  1  0.03842500  0.28599900  0.31683900  1
  N  379  1  0.78651800  0.22569900  0.56965200  1
  N  380  1  0.66844800  0.23132000  0.48473200  1
  N  393  1  0.28738800  0.53415900  0.68925400  1
  N  394  1  0.16799000  0.52425900  0.77283300  1
  N  407  1  0.47205000  0.73399000  0.18358600  1
  N  408  1  0.58254600  0.72306000  0.27583100  1
  N  421  1  0.22076400  0.78058300  0.43723600  1
  N  422  1  0.33926700  0.77320800  0.52174800  1
  N  435  1  0.71910400  0.47430600  0.31891200  1
  N  436  1  0.83884800  0.48468800  0.23595700  1
  N  449  1  0.53357000  0.27593600  0.82123100  1
  N  450  1  0.42071000  0.28151300  0.73095200  1
  N  460  1  0.97356200  0.52130600  0.57304000  1
  N  461  1  0.08262000  0.53566300  0.47991800  1
  N  474  1  0.78682700  0.72479300  0.06873000  1
  N  475  1  0.66950400  0.72948900  0.98279000  1
  N  497  1  0.22065900  0.27966400  0.93728600  1
  N  498  1  0.33705800  0.27722600  0.02445300  1
  N  506  1  0.72108000  0.97757500  0.82044200  1
  N  507  1  0.83773800  0.98060000  0.73393000  1
  N  522  1  0.96704800  0.72193800  0.68837800  1
  N  523  1  0.08795600  0.73585900  0.77005400  1
  N  534  1  0.91674800  0.26982800  0.23651800  1
  N  547  1  0.46833700  0.53254900  0.06881200  1
  N  548  1  0.58801700  0.52301400  0.98544500  1
  O  23  1  0.71176000  0.00875000  0.83968000  1
  O  24  1  0.86098000  0.01215900  0.72902700  1
  O  30  1  0.59345700  0.03665200  0.45872200  1
  O  31  1  0.45302800  0.00962400  0.58645200  1
  O  367  1  0.93855800  0.04885500  0.06833700  1
  O  368  1  0.08381900  0.05182500  0.95392000  1
  O  369  1  0.96386100  0.99523700  0.08981600  1
  O  370  1  0.10980800  0.99874200  0.97577100  1
  O  381  1  0.81836400  0.20271600  0.56524000  1
  O  382  1  0.66764500  0.20969100  0.45647700  1
  O  383  1  0.79654100  0.25647400  0.58910200  1
  O  384  1  0.64556900  0.26326800  0.48046800  1
  O  395  1  0.31878000  0.55759600  0.69425600  1
  O  396  1  0.16666800  0.54513400  0.80148500  1
  O  397  1  0.29820700  0.50385500  0.66957200  1
  O  398  1  0.14549800  0.49190900  0.77635900  1
  O  409  1  0.43809200  0.71361100  0.18463000  1
  O  410  1  0.57858700  0.69958800  0.30279900  1
  O  411  1  0.46634200  0.76707200  0.16567500  1
  O  412  1  0.60766600  0.75238400  0.28341300  1
  O  423  1  0.18908800  0.80373000  0.44190800  1
  O  424  1  0.34017500  0.79450800  0.55018200  1
  O  425  1  0.21044100  0.75003900  0.41763300  1
  O  426  1  0.36203300  0.74112900  0.52572700  1
  O  437  1  0.68783200  0.45080300  0.31359300  1
  O  438  1  0.84056500  0.46385500  0.20729800  1
  O  439  1  0.70804800  0.50437800  0.33875500  1
  O  440  1  0.86121600  0.51714600  0.23263700  1
  O  451  1  0.56695700  0.29713200  0.81915800  1
  O  452  1  0.42318100  0.30438900  0.70349000  1
  O  453  1  0.54054500  0.24357100  0.83975500  1
  O  454  1  0.39626800  0.25127600  0.72446000  1
  O  462  1  0.93926100  0.54113700  0.57255900  1
  O  463  1  0.07799200  0.55953400  0.45328700  1
  O  464  1  0.96863300  0.48784600  0.59060600  1
  O  465  1  0.10807800  0.50684900  0.47175500  1
  O  476  1  0.81888700  0.70200600  0.06469900  1
  O  477  1  0.66933100  0.70782100  0.95454800  1
  O  478  1  0.79642100  0.75579800  0.08807500  1
  O  479  1  0.64640500  0.76122800  0.97823600  1
  O  485  1  0.31767700  0.05022000  0.18951600  1
  O  486  1  0.17144500  0.05242000  0.30306300  1
  O  487  1  0.29290500  0.99639100  0.16797200  1
  O  488  1  0.14614200  0.99905400  0.28112800  1
  O  499  1  0.18825200  0.30208900  0.94076900  1
  O  500  1  0.33636700  0.29911500  0.05256800  1
  O  501  1  0.21170100  0.24823700  0.91821500  1
  O  502  1  0.36058300  0.24590300  0.02950000  1
  O  508  1  0.68888500  0.95492300  0.81666400  1
  O  509  1  0.83765600  0.95860100  0.70587400  1
  O  515  1  0.43697600  0.06323500  0.55925800  1
  O  516  1  0.61027800  0.98362300  0.48640500  1
  O  524  1  0.93633900  0.69780700  0.69402800  1
  O  525  1  0.09019800  0.71538200  0.79887600  1
  O  526  1  0.95509000  0.75177000  0.66864900  1
  O  527  1  0.10983700  0.76870100  0.77300300  1
  O  535  1  0.06881100  0.31034200  0.31061800  1
  O  536  1  0.91370000  0.28989300  0.20754300  1
  O  537  1  0.05092200  0.25664200  0.33683800  1
  O  538  1  0.89527800  0.23665200  0.23417200  1
  O  549  1  0.43700500  0.55607400  0.06382500  1
  O  550  1  0.58937900  0.54407800  0.95689300  1
  O  551  1  0.45738400  0.50214300  0.08832200  1
  O  552  1  0.61053100  0.49070200  0.98179600  1
