# generated using pymatgen
data_V2H11C26O10F3
_symmetry_space_group_name_H-M   'P 1'
_cell_length_a   6.97205000
_cell_length_b   13.55414000
_cell_length_c   20.26542000
_cell_angle_alpha   103.06842000
_cell_angle_beta   89.55186000
_cell_angle_gamma   89.84500000
_symmetry_Int_Tables_number   1
_chemical_formula_structural   V2H11C26O10F3
_chemical_formula_sum   'V4 H22 C52 O20 F6'
_cell_volume   1865.40904811
_cell_formula_units_Z   2
loop_
 _symmetry_equiv_pos_site_id
 _symmetry_equiv_pos_as_xyz
  1  'x, y, z'
loop_
 _atom_site_type_symbol
 _atom_site_label
 _atom_site_symmetry_multiplicity
 _atom_site_fract_x
 _atom_site_fract_y
 _atom_site_fract_z
 _atom_site_occupancy
  V  V0  1  0.06466000  0.48811000  0.49769000  1
  V  V1  1  0.56403000  0.51189000  0.50231000  1
  V  V2  1  0.64818000  0.01189000  0.00231000  1
  V  V3  1  0.14880000  0.98805000  0.99770000  1
  H  H4  1  0.98179000  0.96136000  0.41215000  1
  H  H5  1  0.77487000  0.61318000  0.30661000  1
  H  H6  1  0.80717000  0.66600000  0.01422000  1
  H  H7  1  0.93911000  0.96647000  0.18300000  1
  H  H8  1  0.14186000  0.85566000  0.78395000  1
  H  H9  1  0.12990000  0.74341000  0.67055000  1
  H  H10  1  0.40685000  0.63555000  0.72484000  1
  H  H11  1  0.46605000  0.74427000  0.68507000  1
  H  H12  1  0.41793000  0.74926000  0.83546000  1
  H  H13  1  0.07465000  0.35906000  0.28766000  1
  H  H14  1  0.07691000  0.24479000  0.17461000  1
  H  H15  1  0.73724000  0.24415000  0.17716000  1
  H  H16  1  0.80643000  0.13694000  0.21681000  1
  H  H17  1  0.28785000  0.16134000  0.51878000  1
  H  H18  1  0.25128000  0.98929000  0.69616000  1
  H  H19  1  0.25796000  0.03428000  0.58700000  1
  H  H20  1  0.39945000  0.39223000  0.69522000  1
  H  H21  1  0.42151000  0.33550000  0.98457000  1
  H  H22  1  0.41404000  0.43232000  0.80004000  1
  H  H23  1  0.97861000  0.00798000  0.30389000  1
  H  H24  1  0.80471000  0.25193000  0.32671000  1
  H  H25  1  0.27665000  0.03367000  0.81780000  1
  C  C26  1  0.34837000  0.38353000  0.38454000  1
  C  C27  1  0.34537000  0.36171000  0.56434000  1
  C  C28  1  0.84016000  0.61713000  0.61520000  1
  C  C29  1  0.84394000  0.63837000  0.43580000  1
  C  C30  1  0.94133000  0.88485000  0.38742000  1
  C  C31  1  0.85726000  0.71578000  0.39615000  1
  C  C32  1  0.82395000  0.68398000  0.06876000  1
  C  C33  1  0.81722000  0.60658000  0.10329000  1
  C  C34  1  0.83823000  0.62727000  0.17352000  1
  C  C35  1  0.86018000  0.72876000  0.21163000  1
  C  C36  1  0.87917000  0.80666000  0.17485000  1
  C  C37  1  0.86981000  0.75614000  0.28421000  1
  C  C38  1  0.91844000  0.85729000  0.31688000  1
  C  C39  1  0.94335000  0.93064000  0.27921000  1
  C  C40  1  0.92044000  0.90634000  0.20961000  1
  C  C41  1  0.82968000  0.68802000  0.32610000  1
  C  C42  1  0.91541000  0.81386000  0.42666000  1
  C  C43  1  0.85843000  0.78332000  0.10355000  1
  C  C44  1  0.71195000  0.74708000  0.79711000  1
  C  C45  1  0.86768000  0.81162000  0.81728000  1
  C  C46  1  0.02107000  0.80594000  0.77102000  1
  C  C47  1  0.01314000  0.74204000  0.70576000  1
  C  C48  1  0.85018000  0.68245000  0.68450000  1
  C  C49  1  0.70346000  0.68377000  0.73234000  1
  C  C50  1  0.49516000  0.70412000  0.72612000  1
  C  C51  1  0.50518000  0.77388000  0.79600000  1
  C  C52  1  0.50676000  0.24878000  0.29438000  1
  C  C53  1  0.35221000  0.31382000  0.31665000  1
  C  C54  1  0.19443000  0.30826000  0.27295000  1
  C  C55  1  0.19588000  0.24290000  0.20813000  1
  C  C56  1  0.35635000  0.18168000  0.18482000  1
  C  C57  1  0.50895000  0.18420000  0.22995000  1
  C  C58  1  0.71522000  0.20496000  0.21926000  1
  C  C59  1  0.71177000  0.27588000  0.28879000  1
  C  C60  1  0.28984000  0.11190000  0.61207000  1
  C  C61  1  0.34913000  0.28421000  0.60404000  1
  C  C62  1  0.40142000  0.31669000  0.93019000  1
  C  C63  1  0.41673000  0.39256000  0.89442000  1
  C  C64  1  0.39842000  0.36968000  0.82417000  1
  C  C65  1  0.36200000  0.26936000  0.78770000  1
  C  C66  1  0.33976000  0.19266000  0.82513000  1
  C  C67  1  0.34794000  0.24242000  0.71548000  1
  C  C68  1  0.30781000  0.14022000  0.68277000  1
  C  C69  1  0.28318000  0.06713000  0.72074000  1
  C  C70  1  0.29862000  0.09286000  0.79071000  1
  C  C71  1  0.37071000  0.31331000  0.67434000  1
  C  C72  1  0.30815000  0.18375000  0.57307000  1
  C  C73  1  0.36264000  0.21705000  0.89638000  1
  C  C74  1  0.36743000  0.13842000  0.93568000  1
  C  C75  1  0.36421000  0.11688000  0.11531000  1
  C  C76  1  0.86899000  0.86169000  0.06426000  1
  C  C77  1  0.87297000  0.88271000  0.88479000  1
  O  O78  1  0.50677000  0.40030000  0.55045000  1
  O  O79  1  0.17998000  0.40426000  0.41204000  1
  O  O80  1  0.00458000  0.59970000  0.44955000  1
  O  O81  1  0.17738000  0.38830000  0.54762000  1
  O  O82  1  0.00197000  0.58363000  0.58610000  1
  O  O83  1  0.50939000  0.41637000  0.41390000  1
  O  O84  1  0.33753000  0.56411000  0.51247000  1
  O  O85  1  0.67195000  0.59574000  0.58796000  1
  O  O86  1  0.67454000  0.61170000  0.45238000  1
  O  O87  1  0.84103000  0.43589000  0.48753000  1
  O  O88  1  0.20345000  0.08368000  0.08609000  1
  O  O89  1  0.53552000  0.11170000  0.95238000  1
  O  O90  1  0.71086000  0.91635000  0.91390000  1
  O  O91  1  0.53286000  0.09575000  0.08796000  1
  O  O92  1  0.70819000  0.90029000  0.05045000  1
  O  O93  1  0.20612000  0.09974000  0.94954000  1
  O  O94  1  0.37528000  0.93592000  0.98753000  1
  O  O95  1  0.03822000  0.88826000  0.04763000  1
  O  O96  1  0.04088000  0.90421000  0.91206000  1
  O  O97  1  0.87182000  0.06408000  0.01247000  1
  F  F98  1  0.94520000  0.84097000  0.49447000  1
  F  F99  1  0.48213000  0.87458000  0.79411000  1
  F  F100  1  0.73137000  0.37644000  0.28561000  1
  F  F101  1  0.45342000  0.48903000  0.92798000  1
  F  F102  1  0.85084000  0.54571000  0.20145000  1
  F  F103  1  0.79387000  0.50968000  0.06805000  1
