# generated using pymatgen
data_UH2(C5O4)2
_symmetry_space_group_name_H-M   'P 1'
_cell_length_a   9.36524000
_cell_length_b   9.43722000
_cell_length_c   12.51164000
_cell_angle_alpha   95.54227000
_cell_angle_beta   95.33700000
_cell_angle_gamma   113.52134000
_symmetry_Int_Tables_number   1
_chemical_formula_structural   UH2(C5O4)2
_chemical_formula_sum   'U2 H4 C20 O16'
_cell_volume   998.64185574
_cell_formula_units_Z   2
loop_
 _symmetry_equiv_pos_site_id
 _symmetry_equiv_pos_as_xyz
  1  'x, y, z'
loop_
 _atom_site_type_symbol
 _atom_site_label
 _atom_site_symmetry_multiplicity
 _atom_site_fract_x
 _atom_site_fract_y
 _atom_site_fract_z
 _atom_site_occupancy
  U  U1  1  0.52254000  0.47828000  0.25194000  1.0
  U  U2  1  0.47745000  0.52171000  0.74805000  1.0
  H  H1  1  0.99825000  0.45824000  0.19257000  1.0
  H  H2  1  0.54145000  0.99638000  0.30718000  1.0
  H  H3  1  0.00174000  0.54176000  0.80743000  1.0
  H  H4  1  0.45854000  0.00363000  0.69282000  1.0
  C  C1  1  0.26249000  0.47221000  0.12219000  1.0
  C  C2  1  0.86769000  0.48865000  0.05077000  1.0
  C  C3  1  0.12831000  0.48699000  0.05841000  1.0
  C  C4  1  0.99684000  0.47608000  0.10798000  1.0
  C  C5  1  0.73604000  0.48447000  0.11263000  1.0
  C  C6  1  0.52959000  0.73879000  0.37914000  1.0
  C  C7  1  0.51042000  0.12968000  0.44755000  1.0
  C  C8  1  0.51312000  0.87144000  0.44293000  1.0
  C  C9  1  0.52382000  0.00060000  0.39189000  1.0
  C  C10  1  0.51572000  0.25968000  0.38486000  1.0
  C  C11  1  0.73751000  0.52780000  0.87781000  1.0
  C  C12  1  0.13230000  0.51135000  0.94924000  1.0
  C  C13  1  0.87169000  0.51301000  0.94159000  1.0
  C  C14  1  0.00316000  0.52392000  0.89202000  1.0
  C  C15  1  0.26395000  0.51553000  0.88737000  1.0
  C  C16  1  0.47041000  0.26121000  0.62086000  1.0
  C  C17  1  0.48958000  0.87033000  0.55245000  1.0
  C  C18  1  0.48688000  0.12856000  0.55707000  1.0
  C  C19  1  0.47617000  0.99940000  0.60811000  1.0
  C  C20  1  0.48427000  0.74033000  0.61515000  1.0
  O  O1  1  0.25725000  0.44981000  0.22232000  1.0
  O  O2  1  0.62107000  0.35533000  0.12037000  1.0
  O  O3  1  0.38454000  0.48326000  0.07923000  1.0
  O  O4  1  0.75060000  0.61240000  0.16821000  1.0
  O  O5  1  0.55376000  0.74495000  0.27995000  1.0
  O  O6  1  0.64614000  0.37606000  0.38147000  1.0
  O  O7  1  0.51962000  0.61819000  0.42274000  1.0
  O  O8  1  0.38904000  0.24548000  0.32661000  1.0
  O  O9  1  0.74276000  0.55021000  0.77769000  1.0
  O  O10  1  0.37893000  0.64467000  0.87962000  1.0
  O  O11  1  0.61546000  0.51676000  0.92077000  1.0
  O  O12  1  0.24939000  0.38760000  0.83179000  1.0
  O  O13  1  0.44623000  0.25505000  0.72005000  1.0
  O  O14  1  0.35386000  0.62395000  0.61853000  1.0
  O  O15  1  0.48037000  0.38180000  0.57725000  1.0
  O  O16  1  0.61096000  0.75454000  0.67340000  1.0
