# generated using pymatgen
data_H3C7N2
_symmetry_space_group_name_H-M   'P 1'
_cell_length_a   9.83873333
_cell_length_b   30.26235000
_cell_length_c   30.26240000
_cell_angle_alpha   120.00016396
_cell_angle_beta   90.00000000
_cell_angle_gamma   90.00000000
_symmetry_Int_Tables_number   1
_chemical_formula_structural   H3C7N2
_chemical_formula_sum   'H54 C126 N36'
_cell_volume   7803.24281277
_cell_formula_units_Z   18
loop_
 _symmetry_equiv_pos_site_id
 _symmetry_equiv_pos_as_xyz
  1  'x, y, z'
loop_
 _atom_site_type_symbol
 _atom_site_label
 _atom_site_symmetry_multiplicity
 _atom_site_fract_x
 _atom_site_fract_y
 _atom_site_fract_z
 _atom_site_occupancy
  C  1  1  0.91933600  0.87752300  0.43937500  1
  C  2  1  0.91576400  0.93229400  0.46709300  1
  C  3  1  0.03046200  0.96047700  0.49597800  1
  C  4  1  0.80457600  0.96061000  0.46446000  1
  C  5  1  0.26203000  0.96077400  0.52118000  1
  C  8  1  0.49913300  0.96096600  0.54462400  1
  C  9  1  0.38063400  0.93391600  0.51953200  1
  C  34  1  0.98704600  0.80297700  0.44208800  1
  C  37  1  0.98400700  0.80228900  0.36225600  1
  C  40  1  0.54148900  0.80191200  0.52444000  1
  C  62  1  0.89099400  0.75433500  0.27368100  1
  C  63  1  0.00011133  0.76841200  0.30901400  1
  C  65  1  0.65887100  0.76680500  0.25840300  1
  C  67  1  0.53844800  0.79580800  0.27470800  1
  C  68  1  0.42015600  0.77793100  0.24460200  1
  C  69  1  0.00218400  0.76997600  0.46246400  1
  C  70  1  0.89196000  0.75725800  0.48442200  1
  C  71  1  0.65992300  0.77188300  0.51214200  1
  C  74  1  0.42123800  0.78537900  0.53695500  1
  C  103  1  0.98752400  0.61856800  0.18071700  1
  C  105  1  0.91928200  0.54135900  0.10617200  1
  C  107  1  0.98417000  0.53941000  0.18137500  1
  C  109  1  0.98609900  0.54168600  0.36511100  1
  C  111  1  0.91887400  0.54425900  0.44237100  1
  C  113  1  0.98317300  0.62143600  0.44428500  1
  C  115  1  0.98338600  0.17320500  0.54767800  1
  C  117  1  0.91904700  0.09786800  0.54947100  1
  C  119  1  0.98620700  0.17253200  0.62679800  1
  C  121  1  0.98371200  0.35396700  0.81052300  1
  C  123  1  0.91899500  0.43110000  0.88580500  1
  C  125  1  0.98704700  0.43380500  0.81123500  1
  C  127  1  0.98437300  0.43593900  0.62965000  1
  C  129  1  0.91939300  0.43406200  0.55253900  1
  C  131  1  0.98780700  0.35682500  0.54978800  1
  C  133  1  0.03037500  0.01498200  0.52322400  1
  C  134  1  0.91559200  0.04311100  0.52249600  1
  C  135  1  0.80451000  0.01474100  0.49151200  1
  C  137  1  0.26194000  0.01479600  0.54818700  1
  C  139  1  0.38047100  0.04171200  0.57340900  1
  C  140  1  0.49904300  0.01471800  0.57149500  1
  C  143  1  0.91566200  0.51429600  0.05140300  1
  C  144  1  0.03034500  0.51500100  0.02321600  1
  C  145  1  0.03028300  0.48773800  0.96871000  1
  C  146  1  0.91551100  0.45887300  0.94057000  1
  C  147  1  0.80441700  0.45626500  0.96894100  1
  C  148  1  0.80448000  0.48334100  0.02307700  1
  C  150  1  0.26182800  0.51290200  0.96890000  1
  C  151  1  0.26190800  0.53992300  0.02292500  1
  C  155  1  0.38034800  0.51123400  0.94198800  1
  C  156  1  0.49890100  0.53632900  0.96898300  1
  C  157  1  0.49898100  0.56320900  0.02274100  1
  C  158  1  0.38049600  0.56514500  0.04978700  1
  C  163  1  0.91544800  0.51642100  0.46930200  1
  C  164  1  0.03021200  0.48753800  0.46854100  1
  C  165  1  0.03032500  0.46028800  0.49579800  1
  C  166  1  0.91567200  0.46099900  0.52470900  1
  C  167  1  0.80453500  0.49198900  0.52738500  1
  C  168  1  0.80440700  0.51904600  0.50030800  1
  C  170  1  0.26188900  0.43538400  0.47058100  1
  C  171  1  0.26177500  0.46239600  0.44357000  1
  C  175  1  0.38052200  0.41019500  0.47224400  1
  C  176  1  0.49899200  0.41214100  0.44713300  1
  C  177  1  0.49888000  0.43901500  0.42025400  1
  C  178  1  0.38027900  0.46407700  0.41832800  1
  C  183  1  0.00264900  0.67194200  0.21382300  1
  C  184  1  0.89250800  0.70661600  0.22641900  1
  C  185  1  0.11371900  0.73515600  0.29354300  1
  C  186  1  0.11465400  0.68842100  0.24769000  1
  C  187  1  0.66060900  0.71981100  0.21175300  1
  C  190  1  0.42201100  0.73122200  0.19822900  1
  C  191  1  0.54219000  0.70213000  0.18170900  1
  C  194  1  0.00215100  0.52134000  0.31177100  1
  C  195  1  0.89218300  0.49925600  0.27697300  1
  C  196  1  0.89099500  0.49878000  0.22923300  1
  C  197  1  0.00030100  0.52018200  0.21536300  1
  C  198  1  0.11380000  0.53780400  0.24861400  1
  C  199  1  0.11433000  0.53867500  0.29533800  1
  C  201  1  0.65889200  0.47096400  0.21658400  1
  C  202  1  0.66033500  0.47130700  0.26357700  1
  C  206  1  0.53861300  0.45826000  0.18750000  1
  C  207  1  0.42020000  0.44599700  0.20528100  1
  C  208  1  0.42176800  0.44632100  0.25198400  1
  C  209  1  0.54179300  0.45890800  0.28116100  1
  C  214  1  0.89037600  0.71000500  0.48489100  1
  C  215  1  0.99958800  0.67467000  0.46372400  1
  C  216  1  0.11314100  0.69019200  0.44599600  1
  C  217  1  0.11407300  0.73603800  0.44510100  1
  C  219  1  0.65812900  0.72524000  0.51249300  1
  C  221  1  0.53763100  0.70891900  0.52513200  1
  C  222  1  0.41932700  0.73901100  0.53729800  1
  C  225  1  0.99992733  0.30075100  0.77657600  1
  C  226  1  0.89064800  0.26543700  0.76260600  1
  C  227  1  0.89191900  0.21817200  0.71487600  1
  C  228  1  0.00202300  0.20549700  0.68015800  1
  C  229  1  0.11427300  0.23922800  0.69661500  1
  C  230  1  0.11329100  0.28516000  0.74326100  1
  C  232  1  0.66002900  0.20359000  0.72817400  1
  C  233  1  0.65848400  0.25023900  0.77516700  1
  C  237  1  0.54149900  0.17360600  0.71054200  1
  C  238  1  0.42142200  0.19017300  0.73968900  1
  C  239  1  0.41975500  0.23655400  0.78639400  1
  C  240  1  0.53815500  0.26659800  0.80422400  1
  C  245  1  0.00024800  0.45519000  0.68289100  1
  C  246  1  0.89099500  0.47658500  0.71815500  1
  C  247  1  0.89231500  0.47612200  0.76541600  1
  C  248  1  0.00237300  0.45417300  0.77822400  1
  C  249  1  0.11451300  0.43676500  0.74439400  1
  C  250  1  0.11369800  0.43745800  0.69844400  1
  C  252  1  0.66044500  0.50399100  0.78001500  1
  C  253  1  0.65884000  0.50431200  0.73335300  1
  C  257  1  0.54195700  0.51637400  0.81002700  1
  C  258  1  0.42184900  0.52893600  0.79346100  1
  C  259  1  0.42011100  0.52923200  0.74706900  1
  C  260  1  0.53847000  0.51699200  0.71699700  1
  C  265  1  0.00030000  0.20706800  0.52834200  1
  C  266  1  0.89125800  0.22106700  0.50694700  1
  C  267  1  0.89294600  0.26880200  0.50742400  1
  C  268  1  0.00317700  0.30347400  0.52952300  1
  C  269  1  0.11520300  0.28689000  0.54678000  1
  C  270  1  0.11394100  0.24024000  0.54605200  1
  C  272  1  0.66109800  0.25567000  0.47948100  1
  C  273  1  0.65915700  0.20868000  0.47913800  1
  C  277  1  0.54278400  0.27340000  0.46711200  1
  C  278  1  0.42252900  0.24434900  0.45451400  1
  C  279  1  0.42047500  0.19764300  0.45418300  1
  C  280  1  0.53866200  0.17971800  0.46641800  1
  H  7  1  0.72127700  0.94180700  0.44305900  1
  H  10  1  0.58559900  0.94154300  0.54315000  1
  H  11  1  0.38159100  0.89491000  0.49971800  1
  H  38  1  0.53588600  0.82942100  0.30864500  1
  H  39  1  0.33240600  0.79872700  0.25662200  1
  H  41  1  0.33486500  0.80690100  0.54544700  1
  H  42  1  0.54185300  0.83527800  0.52363700  1
  H  66  1  0.19335400  0.74249300  0.31809200  1
  H  73  1  0.19426900  0.74238500  0.42737900  1
  H  138  1  0.72114600  0.03350300  0.48888700  1
  H  141  1  0.38128300  0.08071600  0.59262100  1
  H  142  1  0.58544700  0.03418000  0.58946500  1
  H  153  1  0.72115600  0.48075600  0.04187900  1
  H  154  1  0.72103500  0.43489400  0.95017600  1
  H  159  1  0.38117400  0.49142800  0.90298200  1
  H  160  1  0.58530600  0.53483300  0.94952300  1
  H  161  1  0.58543700  0.58116500  0.04216600  1
  H  162  1  0.38143600  0.58435400  0.08879200  1
  H  173  1  0.72109400  0.54047100  0.50297900  1
  H  174  1  0.72129700  0.49462300  0.54882600  1
  H  179  1  0.38147700  0.39097900  0.49203300  1
  H  180  1  0.58546800  0.39419400  0.44860400  1
  H  181  1  0.58527400  0.44051500  0.40228300  1
  H  182  1  0.38109100  0.48389100  0.39913500  1
  H  189  1  0.19477800  0.66431800  0.24132900  1
  H  192  1  0.33564800  0.71822700  0.17669800  1
  H  193  1  0.54250500  0.66796100  0.14834100  1
  H  204  1  0.19444000  0.55630600  0.31949000  1
  H  205  1  0.19362700  0.55496600  0.24131400  1
  H  210  1  0.53628200  0.45857000  0.15387700  1
  H  211  1  0.33257900  0.43718300  0.18440600  1
  H  212  1  0.33532100  0.43775300  0.26490600  1
  H  213  1  0.54188600  0.45972200  0.31533900  1
  H  220  1  0.19278600  0.66564800  0.42879300  1
  H  223  1  0.53503500  0.67498700  0.52481600  1
  H  224  1  0.33153200  0.72698500  0.54604100  1
  H  235  1  0.19318900  0.30961800  0.75066300  1
  H  236  1  0.19436800  0.23279800  0.67248500  1
  H  241  1  0.54169100  0.14022900  0.67638200  1
  H  242  1  0.33499700  0.16867500  0.72674200  1
  H  243  1  0.33208900  0.24860200  0.80723700  1
  H  244  1  0.53573100  0.30054800  0.83783100  1
  H  255  1  0.19347500  0.42026300  0.67396200  1
  H  256  1  0.19454300  0.41903000  0.75081500  1
  H  261  1  0.54217800  0.51559300  0.84340600  1
  H  262  1  0.33543000  0.53747500  0.81496300  1
  H  263  1  0.33241400  0.53800200  0.73501300  1
  H  264  1  0.53600900  0.51664700  0.68305000  1
  H  275  1  0.19363700  0.23277400  0.56314000  1
  H  276  1  0.19540200  0.31096200  0.56449500  1
  H  281  1  0.54325600  0.30756100  0.46789800  1
  H  282  1  0.33625700  0.25736600  0.44595000  1
  H  283  1  0.33268100  0.17687000  0.44537600  1
  H  284  1  0.53595000  0.14611500  0.46675900  1
  N  6  1  0.14687300  0.93624700  0.49642400  1
  N  35  1  0.94123500  0.85209400  0.46568200  1
  N  36  1  0.93755700  0.85151300  0.38739200  1
  N  61  1  0.00814800  0.78059400  0.39124400  1
  N  64  1  0.77316400  0.78161100  0.28741900  1
  N  72  1  0.77568500  0.78539600  0.49757600  1
  N  104  1  0.94138700  0.59308800  0.13164200  1
  N  106  1  0.93745900  0.51537700  0.13218500  1
  N  108  1  0.00860200  0.59006300  0.20305200  1
  N  110  1  0.94079800  0.51800000  0.39061600  1
  N  112  1  0.93696600  0.59624600  0.46834700  1
  N  114  1  0.00733400  0.59251100  0.39361000  1
  N  116  1  0.93728100  0.12393800  0.52355300  1
  N  118  1  0.94082900  0.12335400  0.60123500  1
  N  120  1  0.00756700  0.19489000  0.59834000  1
  N  122  1  0.93713000  0.37910800  0.85972500  1
  N  124  1  0.94112800  0.45737300  0.86033800  1
  N  126  1  0.00805500  0.38296000  0.78885900  1
  N  128  1  0.93753600  0.45998700  0.60452600  1
  N  130  1  0.94165000  0.38233500  0.52622700  1
  N  132  1  0.00887800  0.38529000  0.60062900  1
  N  136  1  0.14671000  0.03926600  0.54792400  1
  N  149  1  0.14660900  0.48816200  0.94442800  1
  N  152  1  0.14675100  0.53968600  0.04744700  1
  N  169  1  0.14675300  0.43561800  0.49534800  1
  N  172  1  0.14652800  0.48712700  0.44383600  1
  N  188  1  0.77627500  0.69167800  0.19825700  1
  N  200  1  0.77327700  0.48522400  0.20188700  1
  N  203  1  0.77582900  0.48598700  0.29180300  1
  N  218  1  0.77245400  0.69625100  0.49836200  1
  N  231  1  0.77559500  0.19005300  0.69998900  1
  N  234  1  0.77285800  0.27920700  0.78991000  1
  N  251  1  0.77605100  0.48936800  0.79356000  1
  N  254  1  0.77318600  0.49009000  0.70437200  1
  N  271  1  0.77681800  0.28376700  0.49416300  1
  N  274  1  0.77332600  0.19385300  0.49339000  1
