# generated using pymatgen
data_H11C15N4O
_symmetry_space_group_name_H-M   'P 1'
_cell_length_a   9.81583333
_cell_length_b   33.05910000
_cell_length_c   41.43020000
_cell_angle_alpha   89.67670000
_cell_angle_beta   89.10260000
_cell_angle_gamma   89.29650000
_symmetry_Int_Tables_number   1
_chemical_formula_structural   H11C15N4O
_chemical_formula_sum   'H110 C150 N40 O10'
_cell_volume   13441.34625351
_cell_formula_units_Z   10
loop_
 _symmetry_equiv_pos_site_id
 _symmetry_equiv_pos_as_xyz
  1  'x, y, z'
loop_
 _atom_site_type_symbol
 _atom_site_label
 _atom_site_symmetry_multiplicity
 _atom_site_fract_x
 _atom_site_fract_y
 _atom_site_fract_z
 _atom_site_occupancy
  C  1  1  0.00596700  0.95220867  0.96535567  1
  C  2  1  0.97977600  0.92575933  0.99197733  1
  C  3  1  0.93682300  0.88529233  0.98820467  1
  C  4  1  0.92441300  0.86983567  0.95647167  1
  C  5  1  0.97246400  0.89250733  0.92946233  1
  C  6  1  0.01400600  0.93286867  0.93481233  1
  C  9  1  0.00605300  0.99566733  0.96859400  1
  C  10  1  0.01373400  0.01494167  0.99908700  1
  C  11  1  0.97240900  0.05562767  0.00470967  1
  C  12  1  0.92472900  0.07863567  0.97802033  1
  C  13  1  0.93732400  0.06307367  0.94620600  1
  C  14  1  0.98047600  0.02230567  0.94212200  1
  C  21  1  0.98119600  0.87729633  0.89753833  1
  C  22  1  0.89474300  0.86305300  0.01581767  1
  C  23  1  0.98086600  0.07079633  0.03656667  1
  C  24  1  0.89512700  0.08557100  0.91889367  1
  C  29  1  0.91820600  0.20522967  0.66036567  1
  C  30  1  0.93913800  0.20503800  0.69433600  1
  C  31  1  0.92089800  0.17049567  0.71432567  1
  C  32  1  0.88725400  0.13341933  0.69941300  1
  C  33  1  0.88045600  0.13024633  0.66519333  1
  C  34  1  0.89300000  0.16648367  0.64678000  1
  C  37  1  0.92827800  0.24192867  0.64138567  1
  C  38  1  0.90914000  0.28116367  0.65522900  1
  C  39  1  0.93166000  0.31788733  0.63811533  1
  C  40  1  0.96593200  0.31528867  0.60479100  1
  C  41  1  0.96940100  0.27739967  0.58861767  1
  C  42  1  0.95399600  0.24171767  0.60739233  1
  C  49  1  0.86867600  0.09251267  0.64902900  1
  C  50  1  0.95132000  0.17220933  0.74765800  1
  C  51  1  0.90417500  0.35615500  0.65245300  1
  C  52  1  0.97858700  0.27659567  0.55440033  1
  C  57  1  0.91837600  0.74327033  0.27423433  1
  C  58  1  0.93932800  0.74333867  0.24010967  1
  C  59  1  0.92103700  0.77802633  0.22027167  1
  C  60  1  0.88727200  0.81533000  0.23544433  1
  C  61  1  0.88044700  0.81852333  0.26971767  1
  C  62  1  0.89311400  0.78218633  0.28802267  1
  C  65  1  0.92849700  0.70649967  0.29313900  1
  C  66  1  0.90941300  0.66740533  0.27943300  1
  C  67  1  0.93189400  0.63052367  0.29638600  1
  C  68  1  0.96610300  0.63287333  0.32945967  1
  C  69  1  0.96959000  0.67073600  0.34561333  1
  C  70  1  0.95413200  0.70652533  0.32694867  1
  C  77  1  0.86850300  0.85631633  0.28600100  1
  C  78  1  0.95143800  0.77614633  0.18670900  1
  C  79  1  0.90455900  0.59244933  0.28224733  1
  C  80  1  0.97872000  0.67148333  0.37976733  1
  C  85  1  0.94793700  0.74174500  0.65777967  1
  C  86  1  0.97601000  0.74248867  0.69157333  1
  C  87  1  0.99406700  0.77856067  0.70912533  1
  C  88  1  0.97994700  0.81609633  0.69293467  1
  C  89  1  0.93674300  0.81821800  0.66045167  1
  C  90  1  0.92523400  0.78098400  0.64369167  1
  C  93  1  0.94004700  0.70437567  0.63959367  1
  C  94  1  0.95356600  0.66494667  0.65383800  1
  C  95  1  0.93004800  0.62811167  0.63739733  1
  C  96  1  0.89649500  0.63054733  0.60429000  1
  C  97  1  0.90253900  0.66806900  0.58734867  1
  C  98  1  0.92281000  0.70377100  0.60538700  1
  C  105  1  0.90954400  0.85597200  0.64491533  1
  C  106  1  0.04465500  0.77793133  0.74085833  1
  C  107  1  0.95578300  0.59009067  0.65255367  1
  C  108  1  0.89590300  0.66826967  0.55313733  1
  C  113  1  0.94781300  0.20646600  0.27673200  1
  C  114  1  0.97557500  0.20541367  0.24271767  1
  C  115  1  0.99454900  0.16914700  0.22516300  1
  C  116  1  0.98145500  0.13176633  0.24158767  1
  C  117  1  0.93777000  0.13004700  0.27435500  1
  C  118  1  0.92564600  0.16742133  0.29109400  1
  C  121  1  0.93971400  0.24394300  0.29490533  1
  C  122  1  0.95339000  0.28324167  0.28051400  1
  C  123  1  0.93005500  0.32028333  0.29709267  1
  C  124  1  0.89645500  0.31816067  0.33044767  1
  C  125  1  0.90230600  0.28062567  0.34739067  1
  C  126  1  0.92246200  0.24474567  0.32923733  1
  C  133  1  0.91063700  0.09252200  0.29014600  1
  C  134  1  0.04447000  0.16916600  0.19303467  1
  C  135  1  0.95592600  0.35810067  0.28173600  1
  C  136  1  0.89573500  0.28050567  0.38165033  1
  C  141  1  0.05065900  0.13144033  0.81412433  1
  C  142  1  0.91871900  0.13650900  0.80091767  1
  C  143  1  0.80797200  0.12441867  0.82075500  1
  C  145  1  0.95471800  0.10483833  0.86324567  1
  C  148  1  0.17828000  0.14063200  0.79622300  1
  C  149  1  0.30146500  0.11137667  0.79769067  1
  C  150  1  0.21523600  0.11339767  0.76725300  1
  C  158  1  0.05044200  0.81627233  0.11950600  1
  C  159  1  0.91855100  0.81213033  0.13370600  1
  C  160  1  0.80769500  0.82485233  0.11465433  1
  C  162  1  0.95430100  0.84343267  0.07106467  1
  C  165  1  0.17813900  0.80626933  0.13647267  1
  C  166  1  0.30108300  0.83472400  0.13408267  1
  C  167  1  0.21484900  0.83329500  0.16515467  1
  C  175  1  0.84388600  0.78098933  0.81804800  1
  C  176  1  0.94735700  0.79161400  0.79531633  1
  C  177  1  0.03836200  0.82181533  0.80543867  1
  C  179  1  0.92927700  0.82714267  0.85691000  1
  C  182  1  0.73832700  0.75086633  0.81103633  1
  C  183  1  0.58818300  0.76007567  0.81990400  1
  C  184  1  0.63583200  0.76225933  0.78458533  1
  C  192  1  0.84595800  0.16860567  0.11689867  1
  C  193  1  0.94837100  0.15678267  0.13900033  1
  C  194  1  0.03820800  0.12557600  0.12828567  1
  C  196  1  0.92999100  0.12151367  0.07748933  1
  C  199  1  0.74155600  0.19987233  0.12459133  1
  C  200  1  0.59123100  0.19233500  0.11663800  1
  C  201  1  0.63800800  0.18956833  0.15166433  1
  C  209  1  0.95802600  0.21073100  0.45128500  1
  C  210  1  0.93211200  0.24762933  0.43456700  1
  C  211  1  0.92200800  0.28252200  0.45417067  1
  C  213  1  0.96251700  0.24465533  0.50224800  1
  C  216  1  0.98139400  0.17209733  0.43411867  1
  C  217  1  0.90923300  0.13364700  0.44611200  1
  C  218  1  0.86152100  0.15483333  0.41525033  1
  C  226  1  0.95825900  0.73755333  0.48301900  1
  C  227  1  0.93232100  0.70085633  0.49994367  1
  C  228  1  0.92212100  0.66603033  0.48042333  1
  C  230  1  0.96267700  0.70357033  0.43203000  1
  C  233  1  0.98168500  0.77602433  0.49999833  1
  C  234  1  0.90953400  0.81499467  0.48852867  1
  C  235  1  0.86186300  0.79417700  0.51975667  1
  C  243  1  0.86494900  0.95343967  0.68924100  1
  C  244  1  0.88017300  0.93164100  0.66002333  1
  C  245  1  0.88290000  0.95481400  0.63121300  1
  C  247  1  0.86658400  0.01638067  0.66073533  1
  C  250  1  0.85693000  0.93422367  0.72155967  1
  C  251  1  0.73838200  0.94695200  0.74426800  1
  C  252  1  0.73953400  0.90491600  0.72897500  1
  C  260  1  0.86540300  0.99549233  0.24603300  1
  C  261  1  0.88072500  0.01708100  0.27518200  1
  C  262  1  0.88330300  0.99380433  0.30392867  1
  C  264  1  0.86672900  0.93245900  0.27440667  1
  C  267  1  0.85750900  0.01486567  0.21380767  1
  C  268  1  0.73867000  0.00316467  0.19200067  1
  C  269  1  0.74051200  0.04517733  0.20730400  1
  C  277  1  0.05303900  0.49621733  0.64895600  1
  C  278  1  0.92147200  0.51463700  0.64811200  1
  C  279  1  0.81033700  0.48780533  0.64767767  1
  C  281  1  0.95602200  0.42983367  0.64903033  1
  C  284  1  0.18119700  0.51933267  0.64774800  1
  C  285  1  0.30215600  0.50506700  0.62636467  1
  C  286  1  0.21566300  0.54153700  0.61591967  1
  C  294  1  0.05326800  0.45128867  0.28469167  1
  C  295  1  0.92168700  0.43383033  0.28649600  1
  C  296  1  0.81053800  0.46146367  0.28765067  1
  C  298  1  0.95625700  0.51837767  0.28530700  1
  C  301  1  0.18140300  0.42723733  0.28499867  1
  C  302  1  0.30229900  0.44064067  0.30550467  1
  C  303  1  0.21571200  0.40482033  0.31659933  1
  H  7  1  0.97168400  0.93722967  0.01473867  1
  H  16  1  0.97200500  0.01085733  0.91944633  1
  H  17  1  0.96266300  0.81353433  0.95456867  1
  H  18  1  0.96286300  0.13466967  0.97960133  1
  H  19  1  0.04703700  0.94912233  0.91524267  1
  H  20  1  0.04646800  0.99843767  0.01843500  1
  H  25  1  0.82592500  0.10874533  0.92166633  1
  H  26  1  0.03215600  0.89426567  0.88056033  1
  H  27  1  0.82572300  0.84033367  0.01354067  1
  H  28  1  0.03131900  0.05338867  0.05321067  1
  H  35  1  0.96956900  0.23096700  0.70527200  1
  H  44  1  0.96621700  0.21489600  0.59562133  1
  H  45  1  0.96620500  0.08830433  0.72098733  1
  H  46  1  0.88821500  0.35895933  0.58095867  1
  H  47  1  0.87881700  0.16424500  0.62252333  1
  H  48  1  0.87833300  0.28353567  0.67881833  1
  H  53  1  0.98194100  0.30393900  0.54277533  1
  H  54  1  0.87097000  0.09152933  0.62434533  1
  H  55  1  0.01252100  0.19470867  0.75574300  1
  H  56  1  0.83714900  0.35806400  0.67156700  1
  H  63  1  0.96977800  0.71719867  0.22893533  1
  H  72  1  0.96644500  0.73325667  0.33862367  1
  H  73  1  0.96597500  0.85991967  0.21330133  1
  H  74  1  0.88838000  0.58976267  0.35386100  1
  H  75  1  0.87878100  0.78450533  0.31238167  1
  H  76  1  0.87866800  0.66525467  0.25606633  1
  H  81  1  0.98204800  0.64411767  0.39136933  1
  H  82  1  0.87106800  0.85725200  0.31066600  1
  H  83  1  0.01268900  0.75323400  0.17814167  1
  H  84  1  0.83744800  0.59097933  0.26364633  1
  H  91  1  0.99434100  0.71639967  0.70397600  1
  H  100  1  0.92687400  0.72998867  0.59245667  1
  H  101  1  0.09889500  0.85829767  0.70416800  1
  H  102  1  0.96639800  0.58664567  0.57931333  1
  H  103  1  0.89431300  0.78330300  0.62041600  1
  H  104  1  0.97499100  0.66204133  0.67767367  1
  H  109  1  0.87754400  0.64132267  0.54239500  1
  H  110  1  0.89242200  0.85706600  0.62064033  1
  H  111  1  0.12098100  0.79784067  0.74480533  1
  H  112  1  0.01868800  0.58913133  0.67199967  1
  H  119  1  0.99270300  0.23135633  0.23005733  1
  H  128  1  0.92653500  0.21853033  0.34217567  1
  H  129  1  0.10152700  0.08885200  0.22975367  1
  H  130  1  0.96661700  0.36153833  0.35488533  1
  H  131  1  0.89445900  0.16537833  0.31457967  1
  H  132  1  0.97527000  0.28593233  0.25653567  1
  H  137  1  0.87757000  0.30760633  0.39251333  1
  H  138  1  0.89297700  0.09161433  0.31453000  1
  H  139  1  0.12011200  0.14859300  0.18811733  1
  H  140  1  0.01901900  0.35859700  0.26185900  1
  H  147  1  0.71025100  0.12721667  0.81276967  1
  H  151  1  0.20412600  0.17238500  0.79261933  1
  H  152  1  0.26381500  0.12817367  0.74653467  1
  H  153  1  0.15326300  0.08668800  0.76340300  1
  H  154  1  0.29021800  0.08371133  0.81193767  1
  H  155  1  0.40176700  0.12511300  0.79536933  1
  H  164  1  0.70999500  0.82268067  0.12335633  1
  H  168  1  0.20425600  0.77435133  0.13990500  1
  H  169  1  0.26355800  0.81822000  0.18552533  1
  H  170  1  0.15266200  0.86040867  0.16944500  1
  H  171  1  0.28960300  0.86245400  0.11990000  1
  H  172  1  0.40149800  0.82034233  0.13567267  1
  H  181  1  0.11307800  0.83267167  0.79054500  1
  H  185  1  0.76812200  0.71893400  0.81088167  1
  H  186  1  0.60115100  0.73758533  0.76949533  1
  H  187  1  0.63962600  0.79284867  0.77451067  1
  H  188  1  0.56460300  0.78926633  0.83100600  1
  H  189  1  0.52587100  0.73398333  0.82619333  1
  H  198  1  0.11202200  0.11380667  0.14270000  1
  H  202  1  0.77271500  0.23146833  0.12459500  1
  H  203  1  0.60406600  0.21459367  0.16699300  1
  H  204  1  0.64026200  0.15892833  0.16168500  1
  H  205  1  0.56663500  0.16342967  0.10565433  1
  H  206  1  0.53018400  0.21911867  0.11075900  1
  H  215  1  0.90528800  0.31064733  0.44481700  1
  H  219  1  0.08034100  0.16724033  0.42225067  1
  H  220  1  0.88782800  0.13910067  0.39286500  1
  H  221  1  0.76297500  0.17035167  0.41745933  1
  H  222  1  0.84004700  0.13665467  0.46687767  1
  H  223  1  0.96507100  0.10524000  0.44245100  1
  H  232  1  0.90554200  0.63802433  0.48991067  1
  H  236  1  0.08065000  0.78016167  0.51112933  1
  H  237  1  0.88819100  0.80972100  0.54193333  1
  H  238  1  0.76326000  0.77937467  0.51828433  1
  H  239  1  0.84035400  0.81248600  0.46828600  1
  H  240  1  0.96542300  0.84300267  0.49176800  1
  H  249  1  0.89467700  0.94089400  0.60938833  1
  H  253  1  0.95208600  0.92746867  0.73389833  1
  H  254  1  0.76232600  0.87997067  0.74547533  1
  H  255  1  0.66402700  0.90071100  0.71023533  1
  H  256  1  0.66146300  0.96781100  0.73480433  1
  H  257  1  0.76040100  0.94730767  0.77001300  1
  H  266  1  0.89516700  0.00757033  0.32569267  1
  H  270  1  0.95268600  0.02078067  0.20073033  1
  H  271  1  0.76363900  0.06994367  0.19064967  1
  H  272  1  0.66518900  0.05001400  0.22662867  1
  H  273  1  0.66147400  0.98296300  0.20204367  1
  H  274  1  0.76053200  0.00264600  0.16608767  1
  H  283  1  0.71272600  0.49887867  0.64690333  1
  H  287  1  0.20949100  0.53580533  0.66935467  1
  H  288  1  0.26520600  0.57075833  0.61806867  1
  H  289  1  0.15163600  0.53591600  0.59513933  1
  H  290  1  0.28900400  0.47789933  0.61193433  1
  H  291  1  0.40350700  0.51232600  0.63495600  1
  H  300  1  0.71291800  0.45109633  0.28908733  1
  H  304  1  0.20976700  0.41052900  0.26320333  1
  H  305  1  0.26521500  0.37523500  0.31412200  1
  H  306  1  0.15162600  0.41094733  0.33783767  1
  H  307  1  0.28913900  0.46791967  0.32000633  1
  H  308  1  0.40368700  0.43261733  0.29619633  1
  N  144  1  0.82781400  0.11036267  0.85124233  1
  N  146  1  0.06293200  0.11487367  0.84417200  1
  N  156  1  0.89013500  0.14846700  0.77027200  1
  N  157  1  0.97785000  0.08763600  0.89243833  1
  N  161  1  0.82743200  0.83873400  0.08400433  1
  N  163  1  0.06258700  0.83271833  0.08935333  1
  N  173  1  0.89008100  0.80031233  0.16455600  1
  N  174  1  0.97733400  0.86046133  0.04169167  1
  N  178  1  0.02570500  0.83878767  0.83505067  1
  N  180  1  0.84103600  0.79811467  0.84795367  1
  N  190  1  0.95104500  0.77482267  0.76521100  1
  N  191  1  0.91778400  0.84385900  0.88669267  1
  N  195  1  0.02541000  0.10877967  0.09874700  1
  N  197  1  0.84291600  0.15152467  0.08700367  1
  N  207  1  0.95196600  0.17341033  0.16913767  1
  N  208  1  0.91841300  0.10489433  0.04778900  1
  N  212  1  0.93777900  0.28000933  0.48645600  1
  N  214  1  0.97206600  0.21056867  0.48409000  1
  N  224  1  0.92227600  0.24869400  0.40164600  1
  N  225  1  0.97441000  0.24357867  0.53497033  1
  N  229  1  0.93792600  0.66840633  0.44802067  1
  N  231  1  0.97227400  0.73759533  0.45010800  1
  N  241  1  0.92254200  0.69987900  0.53294100  1
  N  242  1  0.97457000  0.70453867  0.39921900  1
  N  246  1  0.87734400  0.99614400  0.63224633  1
  N  248  1  0.86084900  0.99444900  0.68838267  1
  N  258  1  0.89706200  0.89088200  0.66179600  1
  N  259  1  0.86579200  0.05683733  0.66516167  1
  N  263  1  0.87756100  0.95252233  0.30285600  1
  N  265  1  0.86110100  0.95451300  0.24684267  1
  N  275  1  0.89793000  0.05770667  0.27336567  1
  N  276  1  0.86576700  0.89202533  0.26990900  1
  N  280  1  0.82944300  0.44693167  0.64896467  1
  N  282  1  0.06431000  0.45503033  0.64826733  1
  N  292  1  0.89414500  0.55498000  0.64452800  1
  N  293  1  0.97856000  0.38952667  0.64525767  1
  N  297  1  0.82966500  0.50219867  0.28623400  1
  N  299  1  0.06453700  0.49239367  0.28530667  1
  N  309  1  0.89434700  0.39367567  0.29020233  1
  N  310  1  0.97880100  0.55851967  0.28892067  1
  O  8  1  0.88156200  0.83109567  0.95249133  1
  O  15  1  0.88177700  0.11768667  0.98227200  1
  O  36  1  0.87392000  0.09967000  0.71831167  1
  O  43  1  0.98038800  0.35026067  0.58727033  1
  O  64  1  0.87374600  0.84919033  0.21667100  1
  O  71  1  0.98055800  0.59780667  0.34688867  1
  O  92  1  0.00533400  0.85036100  0.70996867  1
  O  99  1  0.87655200  0.59553433  0.58763467  1
  O  120  1  0.00786400  0.09724100  0.22453300  1
  O  127  1  0.87671500  0.35333367  0.34724300  1
