# generated using pymatgen
data_H30C46N3
_symmetry_space_group_name_H-M   'P 1'
_cell_length_a   34.34560000
_cell_length_b   34.34560000
_cell_length_c   68.69080000
_cell_angle_alpha   90.04690000
_cell_angle_beta   89.95310000
_cell_angle_gamma   90.00000000
_symmetry_Int_Tables_number   1
_chemical_formula_structural   H30C46N3
_chemical_formula_sum   'H120 C184 N12'
_cell_volume   81029.00364515
_cell_formula_units_Z   4
loop_
 _symmetry_equiv_pos_site_id
 _symmetry_equiv_pos_as_xyz
  1  'x, y, z'
loop_
 _atom_site_type_symbol
 _atom_site_label
 _atom_site_symmetry_multiplicity
 _atom_site_fract_x
 _atom_site_fract_y
 _atom_site_fract_z
 _atom_site_occupancy
  H  73  1  0.34574100  0.96795000  0.96953400  1
  H  74  1  0.27633900  0.96824300  0.96915000  1
  H  75  1  0.34465400  0.02304700  0.02447500  1
  H  76  1  0.27526500  0.02263900  0.02426100  1
  H  77  1  0.21958400  0.05461100  0.00494800  1
  H  78  1  0.14993900  0.05463700  0.00471800  1
  H  79  1  0.21967500  0.93642000  0.98796900  1
  H  80  1  0.15000900  0.93651600  0.98786700  1
  H  81  1  0.12897400  0.99630500  0.95709900  1
  H  82  1  0.07693100  0.99550700  0.93111300  1
  H  83  1  0.02304100  0.99544700  0.98409800  1
  H  84  1  0.97468300  0.99531500  0.00820800  1
  H  85  1  0.13003700  0.99343400  0.03569900  1
  H  86  1  0.07762700  0.99378700  0.06178300  1
  H  87  1  0.99456300  0.05640900  0.07159400  1
  H  88  1  0.99450800  0.05623300  0.10638600  1
  H  89  1  0.00309800  0.93392000  0.07129400  1
  H  90  1  0.00216700  0.93346700  0.10607300  1
  H  91  1  0.92085200  0.99566500  0.06122400  1
  H  92  1  0.86868700  0.99585500  0.03518200  1
  H  93  1  0.91979200  0.99723400  0.93059200  1
  H  94  1  0.86754400  0.99676100  0.95675400  1
  H  95  1  0.84796100  0.93459000  0.99908900  1
  H  96  1  0.77838100  0.93458100  0.99915300  1
  H  97  1  0.84812800  0.05680300  0.99328200  1
  H  98  1  0.77857600  0.05709200  0.99376500  1
  H  99  1  0.72153600  0.03760700  0.97406000  1
  H  100  1  0.65237500  0.03824800  0.97445700  1
  H  101  1  0.65251200  0.95492200  0.01956200  1
  H  102  1  0.72171700  0.95436800  0.01921800  1
  H  103  1  0.01443400  0.05482000  0.92060800  1
  H  104  1  0.01390300  0.05475800  0.88576600  1
  H  105  1  0.94189100  0.96801300  0.85840600  1
  H  106  1  0.94038200  0.96799600  0.82381600  1
  H  107  1  0.05084100  0.02190200  0.82262200  1
  H  108  1  0.05177700  0.02282300  0.85723800  1
  H  109  1  0.98181400  0.93606700  0.88597700  1
  H  110  1  0.98261800  0.93619500  0.92079900  1
  H  111  1  0.04226900  0.95186700  0.13454100  1
  H  112  1  0.04184200  0.95130100  0.16912800  1
  H  113  1  0.95393900  0.03730500  0.13469400  1
  H  114  1  0.95369200  0.03688700  0.16930500  1
  H  187  1  0.96808300  0.64648700  0.46955400  1
  H  188  1  0.96828800  0.71589000  0.46918400  1
  H  189  1  0.02307200  0.64759900  0.52447600  1
  H  190  1  0.02258000  0.71698600  0.52427500  1
  H  191  1  0.05451100  0.77274400  0.50495800  1
  H  192  1  0.05441500  0.84239000  0.50475300  1
  H  193  1  0.93633700  0.77247500  0.48804600  1
  H  194  1  0.93631200  0.84214100  0.48796900  1
  H  195  1  0.99611100  0.86319100  0.45717800  1
  H  196  1  0.99534600  0.91516800  0.43116800  1
  H  197  1  0.99510900  0.96918500  0.48412100  1
  H  198  1  0.99497600  0.01757900  0.50819500  1
  H  199  1  0.99317500  0.86228000  0.53577600  1
  H  200  1  0.99350300  0.91474500  0.56183200  1
  H  201  1  0.05620400  0.99782200  0.57148100  1
  H  202  1  0.05618200  0.99788800  0.60627000  1
  H  203  1  0.93371600  0.98926000  0.57141500  1
  H  204  1  0.93341500  0.99020500  0.60619700  1
  H  205  1  0.99540500  0.07152100  0.56118400  1
  H  206  1  0.99560000  0.12363000  0.53511500  1
  H  207  1  0.99697800  0.07230600  0.43054200  1
  H  208  1  0.99646600  0.12462000  0.45668200  1
  H  209  1  0.93434400  0.14433400  0.49906600  1
  H  210  1  0.93441100  0.21391500  0.49916700  1
  H  211  1  0.05656300  0.14404500  0.49319500  1
  H  212  1  0.05692600  0.21359800  0.49371500  1
  H  213  1  0.03752900  0.27069100  0.47404100  1
  H  214  1  0.03818600  0.33984700  0.47444100  1
  H  215  1  0.95480500  0.33972600  0.51958900  1
  H  216  1  0.95423500  0.27052000  0.51924200  1
  H  217  1  0.05500100  0.97757600  0.42085600  1
  H  218  1  0.05535500  0.97708800  0.38602500  1
  H  219  1  0.96869800  0.04756600  0.35760500  1
  H  220  1  0.96990500  0.04760800  0.32299100  1
  H  221  1  0.02414900  0.93729400  0.32343000  1
  H  222  1  0.02383900  0.93782500  0.35803100  1
  H  223  1  0.93660900  0.00896700  0.38572300  1
  H  224  1  0.93632500  0.00919500  0.42056100  1
  H  225  1  0.95193700  0.95018000  0.63465900  1
  H  226  1  0.95164200  0.95059400  0.66925200  1
  H  227  1  0.03740300  0.03848100  0.63458700  1
  H  228  1  0.03726500  0.03870700  0.66919500  1
  H  235  1  0.94405600  0.01794900  0.25947800  1
  H  236  1  0.94212100  0.01740300  0.29403700  1
  H  243  1  0.00063400  0.93167500  0.23198500  1
  H  244  1  0.99940600  0.93214400  0.19723500  1
  H  245  1  0.99559500  0.05503500  0.19780400  1
  H  246  1  0.05420400  0.96818300  0.29558200  1
  H  247  1  0.99639600  0.05439300  0.23255600  1
  H  249  1  0.08740100  0.95507300  0.26632300  1
  H  250  1  0.06934700  0.96571600  0.24467100  1
  H  257  1  0.01968200  0.04812800  0.75937500  1
  H  258  1  0.01993700  0.04993400  0.79393700  1
  H  265  1  0.93282200  0.99176600  0.73224200  1
  H  266  1  0.93284300  0.99302400  0.69748600  1
  H  267  1  0.05574200  0.99660200  0.69756000  1
  H  268  1  0.97042600  0.93799100  0.79569700  1
  H  269  1  0.05555400  0.99574600  0.73231000  1
  H  271  1  0.95645200  0.90498000  0.76650000  1
  H  272  1  0.96664900  0.92306500  0.74479400  1
  H  279  1  0.52546200  0.93757500  0.99986800  1
  H  280  1  0.59472700  0.93625300  0.99938000  1
  H  287  1  0.47123500  0.01833000  0.96872000  1
  H  288  1  0.40165400  0.01719100  0.96838700  1
  H  289  1  0.40127000  0.97449600  0.02601500  1
  H  290  1  0.59746300  0.05845200  0.99579100  1
  H  291  1  0.47087100  0.97619200  0.02638400  1
  H  293  1  0.53861400  0.09393500  0.99570300  1
  H  294  1  0.49538400  0.07298800  0.99737100  1
  H  301  1  0.93757000  0.46681600  0.49990800  1
  H  302  1  0.93619600  0.39754900  0.49942600  1
  H  309  1  0.01845200  0.52099000  0.46872600  1
  H  310  1  0.01735200  0.59057400  0.46839200  1
  H  311  1  0.97452100  0.59097700  0.52602900  1
  H  312  1  0.05839300  0.39471900  0.49578000  1
  H  313  1  0.97617800  0.52137900  0.52639700  1
  H  315  1  0.09392300  0.45353200  0.49567300  1
  H  316  1  0.07301800  0.49678400  0.49735100  1
  C  1  1  0.09976300  0.99602400  0.95992400  1
  C  2  1  0.07132300  0.99564100  0.94572500  1
  C  3  1  0.03491900  0.99570700  0.95483400  1
  C  5  1  0.08159700  0.99566500  0.97813700  1
  C  6  1  0.10148600  0.99555900  0.99636600  1
  C  7  1  0.08252200  0.99536700  0.01480100  1
  C  9  1  0.03613200  0.99521100  0.03790500  1
  C  10  1  0.07232500  0.99445700  0.04714800  1
  C  11  1  0.10081800  0.99433700  0.03295500  1
  C  12  1  0.99923800  0.99537400  0.04732700  1
  C  13  1  0.96275000  0.99556700  0.03746400  1
  C  15  1  0.91614300  0.99551100  0.01419900  1
  C  16  1  0.89792400  0.99569200  0.03239900  1
  C  17  1  0.92637300  0.99564400  0.04660000  1
  C  18  1  0.89634800  0.99560200  0.99597100  1
  C  19  1  0.91524300  0.99574700  0.97753900  1
  C  21  1  0.96153800  0.99568400  0.95438200  1
  C  22  1  0.92524500  0.99646300  0.94520800  1
  C  23  1  0.89680800  0.99626800  0.95942900  1
  C  24  1  0.99843000  0.99564500  0.94492100  1
  C  25  1  0.99868200  0.99549500  0.92404600  1
  C  26  1  0.98929200  0.96135500  0.91354600  1
  C  27  1  0.98858100  0.96142800  0.89303500  1
  C  28  1  0.99779900  0.99540500  0.88229100  1
  C  29  1  0.00765200  0.02938300  0.89291200  1
  C  30  1  0.00774600  0.02955900  0.91343400  1
  C  31  1  0.99699700  0.99540300  0.86142900  1
  C  32  1  0.02787200  0.01146300  0.85039300  1
  C  33  1  0.02721900  0.01098600  0.82987100  1
  C  34  1  0.99550400  0.99484500  0.81940600  1
  C  35  1  0.96446400  0.97919400  0.83055100  1
  C  36  1  0.96527100  0.97924700  0.85106400  1
  C  37  1  0.85465500  0.99568200  0.99615200  1
  C  38  1  0.83354500  0.96057700  0.99796200  1
  C  39  1  0.79249900  0.96073100  0.99815600  1
  C  40  1  0.77102400  0.99584600  0.99647600  1
  C  41  1  0.79260200  0.03087700  0.99465800  1
  C  42  1  0.83364300  0.03087100  0.99452700  1
  C  43  1  0.72913300  0.99596700  0.99662000  1
  C  44  1  0.70761900  0.97189000  0.00946300  1
  C  45  1  0.66656200  0.97221300  0.00967200  1
  C  46  1  0.64499900  0.99668400  0.99706700  1
  C  47  1  0.66649200  0.02064600  0.98417000  1
  C  48  1  0.70753200  0.02028800  0.98395100  1
  C  49  1  0.99888400  0.99519400  0.06815800  1
  C  50  1  0.99617200  0.03033600  0.07876000  1
  C  51  1  0.99581000  0.03007800  0.09927800  1
  C  52  1  0.99830000  0.99481900  0.10994200  1
  C  53  1  0.00104600  0.95975400  0.09910200  1
  C  54  1  0.00126300  0.95986200  0.07858700  1
  C  55  1  0.99810900  0.99460600  0.13087700  1
  C  56  1  0.02296500  0.96965600  0.14159900  1
  C  57  1  0.02272700  0.96932100  0.16211500  1
  C  58  1  0.99766700  0.99398100  0.17291700  1
  C  59  1  0.97289600  0.01903000  0.16221900  1
  C  60  1  0.97308800  0.01930800  0.14169500  1
  C  61  1  0.14325800  0.99560500  0.99623200  1
  C  62  1  0.16437200  0.02953600  0.00116800  1
  C  63  1  0.16441600  0.96163700  0.99139700  1
  C  64  1  0.20546100  0.96172600  0.99135400  1
  C  65  1  0.22682100  0.99551100  0.99647300  1
  C  66  1  0.20540700  0.02936500  0.00142800  1
  C  67  1  0.26857300  0.99543100  0.99667500  1
  C  68  1  0.28967600  0.01125000  0.01251900  1
  C  69  1  0.33071800  0.01097400  0.01277200  1
  C  70  1  0.35245800  0.99545500  0.99704800  1
  C  71  1  0.33133900  0.97988200  0.98114300  1
  C  72  1  0.29029200  0.97956500  0.98103500  1
  C  115  1  0.99578400  0.89241000  0.45998800  1
  C  116  1  0.99542900  0.92081600  0.44577500  1
  C  117  1  0.99545900  0.95724300  0.45486400  1
  C  119  1  0.99537300  0.91061500  0.47819100  1
  C  120  1  0.99528100  0.89075600  0.49642800  1
  C  121  1  0.99510400  0.90975400  0.51485100  1
  C  123  1  0.99493500  0.95619300  0.53793000  1
  C  124  1  0.99422900  0.92001700  0.54719300  1
  C  125  1  0.99407600  0.89149600  0.53301500  1
  C  126  1  0.99508100  0.99310600  0.54733000  1
  C  127  1  0.99526100  0.02957300  0.53744500  1
  C  129  1  0.99521200  0.07612900  0.51415600  1
  C  130  1  0.99541400  0.09438500  0.53234600  1
  C  131  1  0.99536200  0.06596800  0.54656300  1
  C  132  1  0.99530600  0.09588900  0.49591700  1
  C  133  1  0.99544700  0.07696500  0.47749100  1
  C  135  1  0.99543400  0.03062500  0.45435700  1
  C  136  1  0.99620400  0.06689400  0.44516200  1
  C  137  1  0.99598300  0.09536000  0.45937100  1
  C  138  1  0.99545000  0.99370800  0.44492500  1
  C  139  1  0.99561700  0.99335600  0.42405000  1
  C  140  1  0.96160300  0.00244600  0.41340800  1
  C  141  1  0.96191300  0.00253800  0.39289000  1
  C  142  1  0.99600500  0.99296100  0.38229300  1
  C  143  1  0.02990200  0.98360800  0.39306300  1
  C  144  1  0.02983900  0.98411300  0.41358000  1
  C  145  1  0.99621600  0.99273500  0.36142600  1
  C  146  1  0.01256600  0.96136000  0.35084800  1
  C  147  1  0.01280600  0.96114300  0.33033200  1
  C  148  1  0.99713600  0.99244000  0.31939800  1
  C  149  1  0.98080100  0.02380000  0.33007500  1
  C  150  1  0.98017000  0.02388000  0.35059900  1
  C  151  1  0.99543000  0.13758000  0.49608300  1
  C  152  1  0.96034600  0.15872400  0.49792200  1
  C  153  1  0.96054500  0.19976900  0.49813300  1
  C  154  1  0.99568600  0.22121000  0.49645300  1
  C  155  1  0.03069400  0.19959700  0.49459500  1
  C  156  1  0.03064400  0.15855800  0.49445000  1
  C  157  1  0.99584300  0.26309900  0.49661500  1
  C  158  1  0.97174700  0.28461900  0.50946800  1
  C  159  1  0.97210400  0.32567300  0.50968900  1
  C  160  1  0.99659200  0.34723300  0.49707200  1
  C  161  1  0.02055500  0.32573300  0.48415900  1
  C  162  1  0.02017700  0.28469700  0.48393200  1
  C  163  1  0.99497500  0.99350200  0.56816100  1
  C  164  1  0.03016000  0.99622600  0.57869700  1
  C  165  1  0.02999300  0.99659000  0.59921400  1
  C  166  1  0.99478200  0.99410400  0.60994700  1
  C  167  1  0.95966900  0.99135200  0.59917400  1
  C  168  1  0.95968900  0.99111300  0.57865800  1
  C  169  1  0.99467700  0.99431500  0.63088200  1
  C  170  1  0.96979100  0.96947100  0.64167100  1
  C  171  1  0.96962200  0.96969600  0.66219000  1
  C  172  1  0.99439300  0.99472600  0.67292400  1
  C  173  1  0.01936100  0.01949900  0.66215700  1
  C  174  1  0.01945000  0.01933700  0.64163400  1
  C  175  1  0.99537900  0.84898200  0.49630900  1
  C  176  1  0.02934100  0.82791800  0.50121300  1
  C  177  1  0.96145200  0.82777300  0.49148600  1
  C  178  1  0.96160700  0.78672900  0.49143300  1
  C  179  1  0.99543000  0.76541700  0.49651300  1
  C  180  1  0.02924400  0.78688300  0.50145200  1
  C  181  1  0.99542300  0.72366600  0.49669900  1
  C  182  1  0.01124100  0.70257000  0.51253100  1
  C  183  1  0.01102200  0.66152600  0.51277500  1
  C  184  1  0.99554800  0.63978300  0.49705600  1
  C  185  1  0.97998000  0.66089500  0.48116100  1
  C  186  1  0.97962900  0.70194200  0.48105600  1
  C  229  1  0.99805000  0.99246600  0.29842200  1
  C  230  1  0.03055200  0.97796000  0.28795800  1
  C  231  1  0.03240500  0.97784600  0.26730400  1
  C  232  1  0.00021200  0.99268900  0.25650200  1
  C  233  1  0.96776200  0.00744700  0.26683500  1
  C  234  1  0.96669800  0.00725900  0.28731000  1
  C  237  1  0.99898500  0.99299100  0.23568800  1
  C  238  1  0.99964400  0.95789600  0.22492400  1
  C  239  1  0.99915000  0.95826400  0.20440900  1
  C  240  1  0.99756000  0.99365500  0.19383400  1
  C  241  1  0.99613500  0.02868700  0.20473800  1
  C  242  1  0.99677500  0.02839500  0.22526100  1
  C  251  1  0.99495400  0.99405700  0.79843100  1
  C  252  1  0.98008400  0.96164800  0.78803200  1
  C  253  1  0.97949300  0.95987100  0.76737900  1
  C  254  1  0.99419600  0.99205600  0.75651100  1
  C  255  1  0.00926700  0.02443100  0.76677800  1
  C  256  1  0.00956900  0.02541300  0.78725400  1
  C  259  1  0.99418700  0.99329900  0.73569600  1
  C  260  1  0.95895000  0.99271700  0.72507500  1
  C  261  1  0.95905300  0.99322300  0.70455500  1
  C  262  1  0.99431000  0.99477800  0.69383900  1
  C  263  1  0.02948200  0.99611900  0.70460200  1
  C  264  1  0.02945400  0.99545100  0.72512300  1
  C  273  1  0.60313000  0.99738300  0.99740000  1
  C  274  1  0.58220300  0.03286200  0.99632700  1
  C  275  1  0.54089300  0.03446100  0.99666200  1
  C  276  1  0.51941800  0.99900300  0.99790100  1
  C  277  1  0.54013500  0.96349800  0.99913200  1
  C  278  1  0.58109900  0.96272700  0.99891400  1
  C  281  1  0.47782700  0.99763100  0.99762900  1
  C  282  1  0.45677600  0.00901500  0.98089500  1
  C  283  1  0.41575000  0.00798100  0.98066900  1
  C  284  1  0.39422700  0.99576600  0.99717900  1
  C  285  1  0.41552700  0.98412000  0.01384800  1
  C  286  1  0.45657500  0.98470700  0.01402800  1
  C  295  1  0.99731900  0.38909900  0.49740800  1
  C  296  1  0.03281600  0.41000000  0.49631800  1
  C  297  1  0.03444600  0.45130700  0.49665700  1
  C  298  1  0.99900400  0.47281400  0.49790700  1
  C  299  1  0.96348300  0.45212300  0.49915800  1
  C  300  1  0.96267900  0.41116300  0.49893200  1
  C  303  1  0.99767400  0.51440500  0.49763700  1
  C  304  1  0.00912100  0.53545500  0.48090400  1
  C  305  1  0.00813700  0.57648100  0.48068200  1
  C  306  1  0.99586500  0.59801000  0.49719000  1
  C  307  1  0.98415500  0.57671600  0.51385900  1
  C  308  1  0.98472400  0.53566900  0.51403900  1
  N  4  1  0.04282100  0.99561900  0.97421200  1
  N  8  1  0.04383000  0.99574800  0.01857600  1
  N  14  1  0.95490100  0.99547700  0.01809600  1
  N  20  1  0.95392400  0.99540700  0.97372000  1
  N  118  1  0.99530100  0.94938400  0.47424600  1
  N  122  1  0.99546200  0.94845500  0.51860600  1
  N  128  1  0.99515300  0.03738200  0.51807300  1
  N  134  1  0.99511400  0.03827600  0.47369300  1
  N  248  1  0.06551200  0.96447700  0.25865400  1
  N  270  1  0.96582800  0.92683400  0.75879000  1
  N  292  1  0.52341900  0.07004600  0.99627000  1
  N  314  1  0.07004100  0.46876100  0.49624900  1
