# generated using pymatgen
data_H11(C8N3)2
_symmetry_space_group_name_H-M   'P 1'
_cell_length_a   25.15803293
_cell_length_b   26.12875000
_cell_length_c   39.88680000
_cell_angle_alpha   90.24300000
_cell_angle_beta   89.99999952
_cell_angle_gamma   118.77859981
_symmetry_Int_Tables_number   1
_chemical_formula_structural   H11(C8N3)2
_chemical_formula_sum   'H88 C128 N48'
_cell_volume   22980.77575343
_cell_formula_units_Z   8
loop_
 _symmetry_equiv_pos_site_id
 _symmetry_equiv_pos_as_xyz
  1  'x, y, z'
loop_
 _atom_site_type_symbol
 _atom_site_label
 _atom_site_symmetry_multiplicity
 _atom_site_fract_x
 _atom_site_fract_y
 _atom_site_fract_z
 _atom_site_occupancy
  C  1  1  0.70821200  0.30714800  0.93394000  1
  C  2  1  0.76482000  0.32923400  0.95059000  1
  C  3  1  0.78584300  0.29299100  0.96519400  1
  C  4  1  0.74661550  0.23070550  0.96382600  1
  C  5  1  0.68688300  0.20627500  0.94906700  1
  C  6  1  0.66768300  0.24550700  0.93470900  1
  C  9  1  0.69277850  0.34790650  0.91860800  1
  C  10  1  0.68083550  0.38825350  0.93734400  1
  C  11  1  0.66110550  0.42490950  0.92040900  1
  C  12  1  0.66470950  0.42773550  0.88440800  1
  C  13  1  0.67021000  0.38363400  0.86564600  1
  C  14  1  0.68286900  0.34397500  0.88343300  1
  C  27  1  0.65906150  0.37664550  0.83072000  1
  C  28  1  0.63232700  0.45211100  0.93902300  1
  C  29  1  0.64452050  0.14478850  0.94939400  1
  C  30  1  0.84734350  0.31961150  0.97670500  1
  C  35  1  0.23593150  0.65739650  0.43409000  1
  C  36  1  0.17944000  0.63540200  0.45074200  1
  C  37  1  0.15835000  0.67173600  0.46535900  1
  C  38  1  0.19740150  0.73403050  0.46399500  1
  C  39  1  0.25700900  0.75838400  0.44922500  1
  C  40  1  0.27630550  0.71907450  0.43488200  1
  C  43  1  0.25145700  0.61660600  0.41865400  1
  C  44  1  0.26342350  0.57637150  0.43726100  1
  C  45  1  0.28327900  0.53972600  0.42022000  1
  C  46  1  0.27970700  0.53671300  0.38420300  1
  C  47  1  0.27417900  0.58072400  0.36559000  1
  C  48  1  0.26136200  0.62036300  0.38350400  1
  C  61  1  0.28538450  0.58764250  0.33070100  1
  C  62  1  0.31212750  0.51270850  0.43879800  1
  C  63  1  0.29919250  0.81991250  0.44950100  1
  C  64  1  0.09692600  0.64516600  0.47685100  1
  C  69  1  0.39201900  0.66683500  0.04551600  1
  C  70  1  0.42596900  0.64385800  0.02915200  1
  C  71  1  0.48167950  0.67994850  0.01296400  1
  C  72  1  0.50534250  0.74210650  0.01461300  1
  C  73  1  0.46700950  0.76583950  0.02517800  1
  C  74  1  0.41163050  0.72800250  0.04261000  1
  C  77  1  0.33526700  0.62684300  0.06037300  1
  C  78  1  0.27988500  0.59722000  0.04178000  1
  C  79  1  0.22327000  0.56058000  0.05867300  1
  C  80  1  0.22259900  0.55820200  0.09485100  1
  C  81  1  0.27781850  0.59086150  0.11346400  1
  C  82  1  0.33261000  0.62338000  0.09571900  1
  C  95  1  0.28335950  0.58640550  0.14838300  1
  C  96  1  0.17152450  0.52362050  0.03848400  1
  C  97  1  0.47836650  0.82294450  0.01508200  1
  C  98  1  0.50996150  0.65440750  0.99303400  1
  C  103  1  0.55281100  0.29925700  0.54540400  1
  C  104  1  0.51886800  0.32210000  0.52902000  1
  C  105  1  0.46296150  0.28584750  0.51285900  1
  C  106  1  0.43907100  0.22369500  0.51459400  1
  C  107  1  0.47734300  0.19998300  0.52517900  1
  C  108  1  0.53292450  0.23798050  0.54259100  1
  C  111  1  0.60968250  0.33932650  0.56033600  1
  C  112  1  0.66493600  0.36877800  0.54178600  1
  C  113  1  0.72170750  0.40533150  0.55875900  1
  C  114  1  0.72265950  0.40768750  0.59495400  1
  C  115  1  0.66756400  0.37516400  0.61351500  1
  C  116  1  0.61261750  0.34279550  0.59569900  1
  C  129  1  0.66227650  0.37970650  0.64846900  1
  C  130  1  0.77336250  0.44207250  0.53865200  1
  C  131  1  0.46572700  0.14266900  0.51506500  1
  C  132  1  0.43459800  0.31112400  0.49291700  1
  C  137  1  0.68465550  0.35746950  0.70415500  1
  C  138  1  0.71300350  0.32991150  0.72181200  1
  C  139  1  0.71474250  0.33180250  0.75777400  1
  C  140  1  0.68755950  0.36069150  0.77531900  1
  C  143  1  0.74332600  0.30432800  0.77507100  1
  C  144  1  0.76956650  0.27542450  0.75750600  1
  C  145  1  0.76788550  0.27355950  0.72235900  1
  C  146  1  0.73997950  0.30060750  0.70466100  1
  C  153  1  0.26043950  0.60789650  0.20425700  1
  C  154  1  0.23173750  0.63506250  0.22211800  1
  C  155  1  0.22989600  0.63294700  0.25806200  1
  C  156  1  0.25728450  0.60419550  0.27539400  1
  C  159  1  0.20097350  0.66004750  0.27556200  1
  C  160  1  0.17450000  0.68879000  0.25821300  1
  C  161  1  0.17627950  0.69086750  0.22308000  1
  C  162  1  0.20452100  0.66419300  0.20518500  1
  C  169  1  0.60610750  0.04390350  0.97516600  1
  C  170  1  0.54308950  0.00798150  0.96813500  1
  C  171  1  0.51472750  0.94662550  0.97571500  1
  C  172  1  0.54920600  0.92359300  0.99176100  1
  C  175  1  0.45404600  0.91023000  0.96522100  1
  C  176  1  0.41978600  0.93367000  0.95061500  1
  C  177  1  0.44530050  0.99416050  0.94669900  1
  C  178  1  0.50622550  0.03080550  0.95538000  1
  C  185  1  0.58049150  0.51356350  0.94118800  1
  C  186  1  0.56744100  0.55238500  0.92251500  1
  C  187  1  0.53846950  0.58156250  0.93871900  1
  C  188  1  0.52364950  0.57126350  0.97346000  1
  C  191  1  0.52096600  0.61572100  0.91868100  1
  C  192  1  0.53546050  0.62478450  0.88446200  1
  C  193  1  0.56677150  0.59883550  0.86920900  1
  C  194  1  0.58203500  0.56247700  0.88798000  1
  C  201  1  0.94370600  0.40485700  0.99595000  1
  C  202  1  0.99103250  0.39185450  0.98738700  1
  C  203  1  0.04864250  0.42199950  0.00428400  1
  C  204  1  0.05917700  0.46765000  0.02752000  1
  C  207  1  0.09175000  0.40262100  0.99854800  1
  C  208  1  0.08245050  0.36063450  0.97389400  1
  C  209  1  0.02977600  0.33723300  0.95426800  1
  C  210  1  0.98450550  0.35253450  0.96107300  1
  C  217  1  0.33767250  0.92118450  0.47522200  1
  C  218  1  0.40061400  0.95699900  0.46815900  1
  C  219  1  0.42899050  0.01849850  0.47567500  1
  C  220  1  0.39461750  0.04178550  0.49170100  1
  C  223  1  0.48954850  0.05473850  0.46513100  1
  C  224  1  0.52371650  0.03106050  0.45055400  1
  C  225  1  0.49823850  0.97049450  0.44672300  1
  C  226  1  0.43741400  0.93397600  0.45544600  1
  C  233  1  0.36393150  0.45125950  0.44097400  1
  C  234  1  0.37680100  0.41208500  0.42232400  1
  C  235  1  0.40582250  0.38312150  0.43855500  1
  C  236  1  0.42090750  0.39400750  0.47330100  1
  C  239  1  0.42310400  0.34856000  0.41854300  1
  C  240  1  0.40836100  0.33892100  0.38432100  1
  C  241  1  0.37701050  0.36467850  0.36903800  1
  C  242  1  0.36195200  0.40141100  0.38778600  1
  C  249  1  0.00078000  0.56017200  0.49607600  1
  C  250  1  0.95338100  0.57308400  0.48760700  1
  C  251  1  0.89596050  0.54322650  0.50455000  1
  C  252  1  0.88562100  0.49785600  0.52770300  1
  C  255  1  0.85285350  0.56261350  0.49894200  1
  C  256  1  0.86192500  0.60428100  0.47435200  1
  C  257  1  0.91434050  0.62731250  0.45465300  1
  C  258  1  0.95963550  0.61202550  0.46134000  1
  H  7  1  0.79350000  0.37341800  0.94989000  1
  H  16  1  0.68786350  0.31287450  0.87013600  1
  H  19  1  0.59428150  0.25343450  0.91808000  1
  H  20  1  0.57601600  0.18829800  0.93045300  1
  H  21  1  0.68998300  0.42282500  0.98471400  1
  H  22  1  0.69643000  0.36373800  0.98383800  1
  H  23  1  0.67910950  0.51056150  0.87965600  1
  H  24  1  0.67341900  0.47882900  0.84367800  1
  H  25  1  0.75133600  0.15487700  0.96830500  1
  H  26  1  0.80092950  0.20721950  0.99142000  1
  H  31  1  0.62449550  0.38123550  0.82210100  1
  H  32  1  0.61143050  0.12968650  0.93173000  1
  H  33  1  0.86616150  0.29339350  0.98030800  1
  H  34  1  0.62340150  0.44258750  0.96380000  1
  H  41  1  0.15081350  0.59119850  0.44995000  1
  H  50  1  0.25632500  0.65137600  0.37031100  1
  H  53  1  0.34988100  0.71121900  0.41836000  1
  H  54  1  0.36795200  0.77649200  0.43061000  1
  H  55  1  0.25405850  0.54184950  0.48442800  1
  H  56  1  0.24769850  0.60099350  0.48383400  1
  H  57  1  0.26547400  0.45389300  0.37916600  1
  H  58  1  0.27085650  0.48558850  0.34333500  1
  H  59  1  0.19245450  0.80980250  0.46852000  1
  H  60  1  0.14321750  0.75776350  0.49165300  1
  H  65  1  0.31978550  0.58277550  0.32206700  1
  H  66  1  0.33208100  0.83477300  0.43180300  1
  H  67  1  0.07807700  0.67137900  0.48048900  1
  H  68  1  0.32111950  0.52249850  0.46360100  1
  H  75  1  0.40900000  0.59946800  0.02857800  1
  H  84  1  0.37230250  0.64581750  0.10900600  1
  H  87  1  0.34077400  0.72555500  0.06983000  1
  H  88  1  0.39429150  0.79152750  0.06198300  1
  H  89  1  0.24521200  0.59871300  0.99529600  1
  H  90  1  0.31900300  0.63389800  0.99649200  1
  H  91  1  0.13394200  0.49459700  0.10134500  1
  H  92  1  0.17073200  0.51880000  0.13643900  1
  H  93  1  0.58566900  0.81809200  0.01562100  1
  H  94  1  0.59331450  0.76234950  0.00511900  1
  H  99  1  0.30583150  0.56614150  0.15628800  1
  H  100  1  0.44326050  0.83176950  0.01664100  1
  H  101  1  0.54204150  0.68122150  0.97642800  1
  H  102  1  0.18028800  0.51406700  0.01503900  1
  H  109  1  0.53597500  0.36649900  0.52842300  1
  H  118  1  0.57301000  0.32045400  0.60894900  1
  H  121  1  0.60393750  0.24058950  0.56975300  1
  H  122  1  0.54987850  0.17459850  0.56209300  1
  H  123  1  0.69913050  0.36712450  0.49512800  1
  H  124  1  0.62539950  0.33207950  0.49633700  1
  H  125  1  0.81145100  0.47106200  0.60165100  1
  H  126  1  0.77489550  0.44683950  0.63668500  1
  H  127  1  0.35890550  0.14811550  0.51610800  1
  H  128  1  0.35105750  0.20346550  0.50508400  1
  H  133  1  0.64033750  0.40045750  0.65654200  1
  H  134  1  0.50073150  0.13370850  0.51665200  1
  H  135  1  0.40231050  0.28404450  0.47633500  1
  H  136  1  0.76451050  0.45153050  0.51526500  1
  H  147  1  0.74515800  0.30468600  0.80069700  1
  H  148  1  0.78987550  0.25566150  0.77033300  1
  H  149  1  0.78701450  0.25247850  0.70962800  1
  H  150  1  0.73953950  0.29837750  0.67904300  1
  H  163  1  0.19905100  0.65952000  0.30118500  1
  H  164  1  0.15394600  0.70827600  0.27118700  1
  H  165  1  0.15697900  0.71182900  0.21050500  1
  H  166  1  0.20502900  0.66657700  0.17958400  1
  H  179  1  0.43431950  0.86593750  0.96674700  1
  H  180  1  0.37589850  0.90678150  0.94343800  1
  H  181  1  0.41974700  0.01148500  0.93711000  1
  H  182  1  0.52199050  0.07447250  0.95320600  1
  H  195  1  0.49476700  0.63235100  0.92808500  1
  H  196  1  0.52209550  0.64933150  0.87048300  1
  H  197  1  0.57662200  0.60480400  0.84418800  1
  H  198  1  0.60266250  0.54244850  0.87572000  1
  H  211  1  0.12973700  0.41691400  0.01292100  1
  H  212  1  0.11457050  0.34796950  0.96980300  1
  H  213  1  0.02378950  0.30811150  0.93551500  1
  H  214  1  0.94766600  0.33574100  0.94558800  1
  H  227  1  0.50923250  0.09906050  0.46660000  1
  H  228  1  0.56752150  0.05783950  0.44334600  1
  H  229  1  0.52373950  0.95301750  0.43716400  1
  H  230  1  0.42168350  0.89027150  0.45334000  1
  H  243  1  0.44931150  0.33202550  0.42797000  1
  H  244  1  0.42156650  0.31408850  0.37035900  1
  H  245  1  0.36697300  0.35828500  0.34401400  1
  H  246  1  0.34127800  0.42126800  0.37550600  1
  H  259  1  0.81508550  0.54862150  0.51339000  1
  H  260  1  0.82981300  0.61696100  0.47035800  1
  H  261  1  0.92014400  0.65617800  0.43594000  1
  H  262  1  0.99627500  0.62854100  0.44580600  1
  N  8  1  0.76660500  0.19433200  0.97652200  1
  N  15  1  0.66666483  0.47419483  0.86768700  1
  N  17  1  0.60854850  0.22668050  0.92513000  1
  N  18  1  0.68731550  0.39047950  0.97152300  1
  N  42  1  0.17736550  0.77048350  0.47671300  1
  N  49  1  0.27787650  0.49017050  0.36736300  1
  N  51  1  0.33542950  0.73791550  0.42540300  1
  N  52  1  0.25696100  0.57430700  0.47142800  1
  N  76  1  0.56557500  0.77795100  0.00813500  1
  N  83  1  0.17128250  0.52186650  0.11222300  1
  N  85  1  0.37816950  0.75006050  0.05800900  1
  N  86  1  0.28163750  0.60830850  0.00805200  1
  N  110  1  0.37873650  0.18788050  0.50812500  1
  N  117  1  0.77414850  0.44387050  0.61244200  1
  N  119  1  0.56639100  0.21601300  0.55795900  1
  N  120  1  0.66287800  0.35747200  0.50801500  1
  N  141  1  0.66141700  0.38564300  0.75615800  1
  N  142  1  0.66001400  0.38411700  0.72320600  1
  N  151  1  0.68388850  0.35819850  0.67028600  1
  N  152  1  0.69092750  0.36627150  0.80908300  1
  N  157  1  0.28375750  0.57961950  0.25604700  1
  N  158  1  0.28527100  0.58136200  0.22310800  1
  N  167  1  0.26122800  0.60730800  0.17038300  1
  N  168  1  0.25385100  0.59845600  0.30911500  1
  N  173  1  0.60860550  0.96162450  0.99739700  1
  N  174  1  0.63476800  0.01707500  0.98977100  1
  N  183  1  0.64400650  0.10164650  0.96865400  1
  N  184  1  0.53105550  0.86945950  0.00489600  1
  N  189  1  0.53552200  0.53120600  0.98849000  1
  N  190  1  0.56213300  0.50460900  0.97371600  1
  N  199  1  0.61046650  0.48701250  0.92703900  1
  N  200  1  0.50302100  0.59942800  0.99455400  1
  N  205  1  0.01160200  0.47754000  0.03309300  1
  N  206  1  0.95839600  0.44860800  0.01860700  1
  N  215  1  0.88349900  0.37578300  0.98707600  1
  N  216  1  0.11159650  0.50579350  0.04378900  1
  N  221  1  0.33528450  0.00384050  0.49737000  1
  N  222  1  0.30909600  0.94824600  0.48979600  1
  N  231  1  0.29976150  0.86331150  0.46876600  1
  N  232  1  0.41287600  0.09612800  0.50483800  1
  N  237  1  0.40919150  0.43435350  0.48830900  1
  N  238  1  0.38251750  0.46074050  0.47351200  1
  N  247  1  0.33390800  0.47762800  0.42680200  1
  N  248  1  0.44165650  0.36617250  0.49441100  1
  N  253  1  0.93322900  0.48800100  0.53318400  1
  N  254  1  0.98629250  0.51672050  0.51867800  1
  N  263  1  0.06090800  0.58913400  0.48718300  1
  N  264  1  0.83332500  0.45990500  0.54394200  1
