# generated using pymatgen
data_CuH13C16(NO3)2
_symmetry_space_group_name_H-M   'P 1'
_cell_length_a   9.57722000
_cell_length_b   10.79070000
_cell_length_c   10.88880000
_cell_angle_alpha   92.83019000
_cell_angle_beta   90.69431000
_cell_angle_gamma   90.44718000
_symmetry_Int_Tables_number   1
_chemical_formula_structural   CuH13C16(NO3)2
_chemical_formula_sum   'Cu2 H26 C32 N4 O12'
_cell_volume   1123.80715324
_cell_formula_units_Z   2
loop_
 _symmetry_equiv_pos_site_id
 _symmetry_equiv_pos_as_xyz
  1  'x, y, z'
loop_
 _atom_site_type_symbol
 _atom_site_label
 _atom_site_symmetry_multiplicity
 _atom_site_fract_x
 _atom_site_fract_y
 _atom_site_fract_z
 _atom_site_occupancy
  Cu  Cu0  1  0.64066000  0.49999000  0.49999000  1
  Cu  Cu1  1  0.35934000  0.50001000  0.50001000  1
  H  H2  1  0.68552000  0.12053000  0.37669000  1
  H  H3  1  0.61931000  0.92487000  0.32334000  1
  H  H4  1  0.53643000  0.11937000  0.70074000  1
  H  H5  1  0.58803000  0.90890000  0.67747000  1
  H  H6  1  0.28748000  0.10845000  0.42458000  1
  H  H7  1  0.42081000  0.08925000  0.31116000  1
  H  H8  1  0.37420000  0.87924000  0.32160000  1
  H  H9  1  0.28028000  0.90203000  0.46227000  1
  H  H10  1  0.35985000  0.09406000  0.65037000  1
  H  H11  1  0.40344000  0.88700000  0.66970000  1
  H  H12  1  0.73393000  0.65118000  0.21191000  1
  H  H13  1  0.95876000  0.64592000  0.11191000  1
  H  H14  1  0.98761000  0.52657000  0.91340000  1
  H  H15  1  0.78619000  0.43433000  0.80709000  1
  H  H16  1  0.28140000  0.47589000  0.88156000  1
  H  H17  1  0.12620000  0.36031000  0.35952000  1
  H  H18  1  0.25779000  0.67360000  0.67131000  1
  H  H19  1  0.13759000  0.80636000  0.80774000  1
  H  H20  1  0.74954000  0.66953000  0.67073000  1
  H  H21  1  0.86727000  0.36069000  0.35922000  1
  H  H22  1  0.76893000  0.03450000  0.63401000  1
  H  H23  1  0.87436000  0.10028000  0.51783000  1
  H  H24  1  0.76099000  0.19414000  0.60946000  1
  H  H25  1  0.81251000  0.85134000  0.53005000  1
  H  H26  1  0.78405000  0.77673000  0.37907000  1
  H  H27  1  0.86668000  0.92221000  0.39200000  1
  C  C28  1  0.49906000  0.51071000  0.26303000  1
  C  C29  1  0.50035000  0.25992000  0.50135000  1
  C  C30  1  0.50174000  0.49306000  0.73748000  1
  C  C31  1  0.50149000  0.73931000  0.49117000  1
  C  C32  1  0.65342000  0.07301000  0.46061000  1
  C  C33  1  0.64126000  0.93189000  0.42432000  1
  C  C34  1  0.47033000  0.07308000  0.62712000  1
  C  C35  1  0.39170000  0.06706000  0.40629000  1
  C  C36  1  0.50427000  0.12173000  0.49941000  1
  C  C37  1  0.50683000  0.87731000  0.48897000  1
  C  C38  1  0.49309000  0.93105000  0.62386000  1
  C  C39  1  0.37939000  0.92480000  0.41554000  1
  C  C40  1  0.74162000  0.60102000  0.12427000  1
  C  C41  1  0.87057000  0.59943000  0.06720000  1
  C  C42  1  0.88561000  0.53524000  0.95456000  1
  C  C43  1  0.76796000  0.48693000  0.89206000  1
  C  C44  1  0.63277000  0.50446000  0.94139000  1
  C  C45  1  0.62384000  0.54303000  0.06644000  1
  C  C46  1  0.49723000  0.52449000  0.12889000  1
  C  C47  1  0.37286000  0.50206000  0.05978000  1
  C  C48  1  0.37882000  0.48673000  0.93285000  1
  C  C49  1  0.50654000  0.48819000  0.87200000  1
  C  C50  1  0.14765000  0.66492000  0.66421000  1
  C  C51  1  0.07756000  0.74464000  0.74552000  1
  C  C52  1  0.93288000  0.74398000  0.74819000  1
  C  C53  1  0.85947000  0.66268000  0.66638000  1
  C  C54  1  0.92707000  0.58026000  0.58166000  1
  C  C55  1  0.07656000  0.58076000  0.58110000  1
  C  C56  1  0.07221000  0.42323000  0.42274000  1
  C  C57  1  0.92414000  0.42344000  0.42260000  1
  C  C58  1  0.76973000  0.10223000  0.56080000  1
  C  C59  1  0.78362000  0.86596000  0.43345000  1
  N  N60  1  0.14791000  0.50120000  0.50121000  1
  N  N61  1  0.85204000  0.50125000  0.50129000  1
  N  N62  1  0.23826000  0.50297000  0.11568000  1
  N  N63  1  0.86018000  0.82470000  0.83480000  1
  O  O64  1  0.61881000  0.49999000  0.31964000  1
  O  O65  1  0.38124000  0.50000000  0.31966000  1
  O  O66  1  0.61879000  0.31768000  0.49997000  1
  O  O67  1  0.38121000  0.31770000  0.49999000  1
  O  O68  1  0.61876000  0.50000000  0.68034000  1
  O  O69  1  0.38119000  0.50001000  0.68036000  1
  O  O70  1  0.61879000  0.68230000  0.50001000  1
  O  O71  1  0.38121000  0.68232000  0.50003000  1
  O  O72  1  0.14904000  0.41393000  0.08870000  1
  O  O73  1  0.19762000  0.60166000  0.17839000  1
  O  O74  1  0.92714000  0.91195000  0.89850000  1
  O  O75  1  0.72787000  0.80807000  0.85508000  1
