# generated using pymatgen
data_H7C14N4O5
_symmetry_space_group_name_H-M   'P 1'
_cell_length_a   9.89406667
_cell_length_b   15.62710000
_cell_length_c   15.62710000
_cell_angle_alpha   90.00000000
_cell_angle_beta   90.00000000
_cell_angle_gamma   90.00000000
_symmetry_Int_Tables_number   1
_chemical_formula_structural   H7C14N4O5
_chemical_formula_sum   'H14 C28 N8 O10'
_cell_volume   2416.19296155
_cell_formula_units_Z   2
loop_
 _symmetry_equiv_pos_site_id
 _symmetry_equiv_pos_as_xyz
  1  'x, y, z'
loop_
 _atom_site_type_symbol
 _atom_site_label
 _atom_site_symmetry_multiplicity
 _atom_site_fract_x
 _atom_site_fract_y
 _atom_site_fract_z
 _atom_site_occupancy
  C  4  1  0.02510400  0.08868200  0.54438500  1
  C  5  1  0.01692500  0.01594900  0.59868800  1
  C  6  1  0.01867900  0.01939100  0.68887200  1
  C  14  1  0.04123900  0.17140800  0.57363500  1
  C  19  1  0.02352400  0.47152800  0.92732100  1
  C  20  1  0.01773900  0.41717600  0.00001100  1
  C  21  1  0.03731800  0.44200400  0.84409600  1
  C  23  1  0.01936700  0.32701600  0.99641200  1
  C  81  1  0.01264800  0.03961200  0.04182700  1
  C  84  1  0.01517300  0.12908600  0.02268000  1
  C  85  1  0.01576200  0.19411500  0.08572400  1
  C  95  1  0.00959800  0.59647800  0.01812400  1
  C  97  1  0.00390300  0.54213100  0.09081700  1
  C  98  1  0.00773200  0.68663900  0.02171400  1
  C  140  1  0.01169900  0.08353700  0.19632700  1
  C  141  1  0.01023000  0.02049100  0.13131200  1
  C  186  1  0.01217000  0.97403100  0.97625800  1
  C  187  1  0.01368900  0.99315500  0.88676900  1
  C  188  1  0.01277100  0.93010400  0.82174400  1
  C  189  1  0.00991000  0.84315900  0.84539900  1
  C  190  1  0.01025900  0.81952300  0.93237300  1
  C  191  1  0.01069300  0.88455200  0.99541400  1
  C  193  1  0.01556600  0.17047500  0.17269100  1
  C  200  1  0.00815700  0.99805000  0.41937600  1
  C  202  1  0.00009667  0.92555700  0.47388000  1
  C  203  1  0.98651200  0.84169000  0.44689400  1
  C  208  1  0.00499300  0.99435100  0.32926500  1
  C  213  1  0.99008000  0.57165600  0.17403400  1
  H  11  1  0.02431300  0.07723200  0.71903800  1
  H  13  1  0.10949600  0.24460100  0.24785400  1
  H  16  1  0.17673700  0.24113300  0.62167200  1
  H  24  1  0.02338500  0.29693500  0.93846500  1
  H  26  1  0.16653100  0.81815400  0.41501300  1
  H  86  1  0.01113900  0.86390500  0.05686300  1
  H  99  1  0.00356300  0.71671800  0.07965400  1
  H  139  1  0.01503100  0.05459200  0.86611300  1
  H  195  1  0.00764200  0.95906700  0.15197500  1
  H  196  1  0.91648700  0.76866000  0.77035900  1
  H  197  1  0.01592000  0.14974100  0.96123600  1
  H  209  1  0.99758600  0.93650600  0.29927600  1
  H  216  1  0.81258100  0.61601000  0.16805800  1
  H  218  1  0.21465000  0.39738100  0.85013100  1
  N  1  1  0.01656700  0.27932600  0.06859400  1
  N  3  1  0.02048400  0.07556800  0.45828400  1
  N  18  1  0.01953000  0.55760400  0.94043900  1
  N  96  1  0.00782400  0.45605200  0.07770100  1
  N  142  1  0.01060900  0.06642500  0.28153200  1
  N  198  1  0.01007300  0.73431600  0.94951600  1
  N  199  1  0.01391900  0.94722200  0.73652300  1
  N  201  1  0.00472100  0.93835900  0.55981800  1
  O  15  1  0.15200100  0.18897400  0.60583500  1
  O  22  1  0.14742300  0.41566600  0.81739900  1
  O  25  1  0.07976600  0.80550600  0.40869700  1
  O  27  1  0.06220600  0.54001800  0.22909100  1
  O  192  1  0.01158500  0.78133300  0.78360800  1
  O  194  1  0.01431300  0.23229000  0.23449800  1
  O  204  1  0.87296000  0.82029800  0.42493500  1
  O  207  1  0.97671500  0.22866200  0.53887500  1
  O  215  1  0.87990300  0.59782400  0.20077000  1
  O  217  1  0.96537900  0.47376400  0.78901200  1
