# generated using pymatgen
data_CdH8C14(N4O3)2
_symmetry_space_group_name_H-M   'P 1'
_cell_length_a   9.23045000
_cell_length_b   15.21768000
_cell_length_c   19.29804000
_cell_angle_alpha   89.99774000
_cell_angle_beta   90.00905000
_cell_angle_gamma   89.99955000
_symmetry_Int_Tables_number   1
_chemical_formula_structural   CdH8C14(N4O3)2
_chemical_formula_sum   'Cd4 H32 C56 N32 O24'
_cell_volume   2710.71911364
_cell_formula_units_Z   4
loop_
 _symmetry_equiv_pos_site_id
 _symmetry_equiv_pos_as_xyz
  1  'x, y, z'
loop_
 _atom_site_type_symbol
 _atom_site_label
 _atom_site_symmetry_multiplicity
 _atom_site_fract_x
 _atom_site_fract_y
 _atom_site_fract_z
 _atom_site_occupancy
  Cd  Cd0  1  0.67687000  0.50002000  0.24998000  1
  Cd  Cd1  1  0.32312000  0.49998000  0.75001000  1
  Cd  Cd2  1  0.82312000  0.00003000  0.75002000  1
  Cd  Cd3  1  0.17687000  0.99998000  0.24998000  1
  H  H4  1  0.88658000  0.30248000  0.23718000  1
  H  H5  1  0.86012000  0.69638000  0.41271000  1
  H  H6  1  0.13991000  0.69635000  0.91272000  1
  H  H7  1  0.58338000  0.38108000  0.10185000  1
  H  H8  1  0.41661000  0.61893000  0.89815000  1
  H  H9  1  0.91656000  0.11893000  0.60189000  1
  H  H10  1  0.18191000  0.38680000  0.96867000  1
  H  H11  1  0.61338000  0.80248000  0.76284000  1
  H  H12  1  0.64049000  0.80369000  0.91267000  1
  H  H13  1  0.35952000  0.80366000  0.41266000  1
  H  H14  1  0.11341000  0.69752000  0.76282000  1
  H  H15  1  0.18191000  0.61321000  0.53135000  1
  H  H16  1  0.88656000  0.69751000  0.26282000  1
  H  H17  1  0.68197000  0.88690000  0.53138000  1
  H  H18  1  0.11344000  0.30250000  0.73718000  1
  H  H19  1  0.91660000  0.88107000  0.89813000  1
  H  H20  1  0.38658000  0.80249000  0.26284000  1
  H  H21  1  0.31802000  0.88690000  0.03136000  1
  H  H22  1  0.86008000  0.30365000  0.08728000  1
  H  H23  1  0.64047000  0.19634000  0.58734000  1
  H  H24  1  0.61341000  0.19751000  0.73716000  1
  H  H25  1  0.38661000  0.19753000  0.23716000  1
  H  H26  1  0.58342000  0.61891000  0.39813000  1
  H  H27  1  0.13987000  0.30363000  0.58729000  1
  H  H28  1  0.68198000  0.11311000  0.96864000  1
  H  H29  1  0.08343000  0.88108000  0.39811000  1
  H  H30  1  0.41657000  0.38109000  0.60187000  1
  H  H31  1  0.81808000  0.38680000  0.46864000  1
  H  H32  1  0.81808000  0.61320000  0.03133000  1
  H  H33  1  0.35950000  0.19632000  0.08733000  1
  H  H34  1  0.08340000  0.11894000  0.10187000  1
  H  H35  1  0.31802000  0.11311000  0.46862000  1
  C  C36  1  0.95804000  0.14892000  0.64871000  1
  C  C37  1  0.60216000  0.93620000  0.51676000  1
  C  C38  1  0.92440000  0.49523000  0.06345000  1
  C  C39  1  0.02738000  0.43044000  0.04606000  1
  C  C40  1  0.93921000  0.75701000  0.28051000  1
  C  C41  1  0.60217000  0.06380000  0.98326000  1
  C  C42  1  0.93251000  0.64416000  0.90662000  1
  C  C43  1  0.43908000  0.25710000  0.21947000  1
  C  C44  1  0.56753000  0.14462000  0.09330000  1
  C  C45  1  0.34454000  0.00615000  0.13133000  1
  C  C46  1  0.97261000  0.56956000  0.95394000  1
  C  C47  1  0.06078000  0.24299000  0.71949000  1
  C  C48  1  0.04192000  0.14892000  0.14869000  1
  C  C49  1  0.52774000  0.06958000  0.04620000  1
  C  C50  1  0.93252000  0.35587000  0.59338000  1
  C  C51  1  0.39783000  0.06381000  0.48324000  1
  C  C52  1  0.65546000  0.00616000  0.63133000  1
  C  C53  1  0.93922000  0.24297000  0.21948000  1
  C  C54  1  0.47223000  0.06959000  0.54620000  1
  C  C55  1  0.34453000  0.99384000  0.36866000  1
  C  C56  1  0.39782000  0.93620000  0.01674000  1
  C  C57  1  0.97261000  0.43044000  0.54605000  1
  C  C58  1  0.54168000  0.35119000  0.14866000  1
  C  C59  1  0.43246000  0.14462000  0.59330000  1
  C  C60  1  0.02739000  0.56956000  0.45395000  1
  C  C61  1  0.89793000  0.56389000  0.01681000  1
  C  C62  1  0.56754000  0.85538000  0.40670000  1
  C  C63  1  0.47225000  0.93042000  0.95380000  1
  C  C64  1  0.56092000  0.25708000  0.71948000  1
  C  C65  1  0.65546000  0.99385000  0.86867000  1
  C  C66  1  0.15553000  0.49367000  0.63137000  1
  C  C67  1  0.45832000  0.64882000  0.85134000  1
  C  C68  1  0.43246000  0.85539000  0.90670000  1
  C  C69  1  0.10206000  0.43612000  0.98319000  1
  C  C70  1  0.92442000  0.50477000  0.43654000  1
  C  C71  1  0.57541000  0.99523000  0.93655000  1
  C  C72  1  0.52776000  0.93042000  0.45380000  1
  C  C73  1  0.95807000  0.85109000  0.85131000  1
  C  C74  1  0.42460000  0.99523000  0.43654000  1
  C  C75  1  0.89794000  0.43611000  0.48317000  1
  C  C76  1  0.57539000  0.00477000  0.56346000  1
  C  C77  1  0.07557000  0.49524000  0.56346000  1
  C  C78  1  0.06077000  0.75703000  0.78052000  1
  C  C79  1  0.45829000  0.35119000  0.64868000  1
  C  C80  1  0.06748000  0.64414000  0.40662000  1
  C  C81  1  0.07559000  0.50477000  0.93655000  1
  C  C82  1  0.43907000  0.74292000  0.28052000  1
  C  C83  1  0.42458000  0.00477000  0.06345000  1
  C  C84  1  0.15553000  0.50634000  0.86864000  1
  C  C85  1  0.54170000  0.64882000  0.35132000  1
  C  C86  1  0.06748000  0.35585000  0.09338000  1
  C  C87  1  0.10205000  0.56390000  0.51683000  1
  C  C88  1  0.04195000  0.85108000  0.35129000  1
  C  C89  1  0.56091000  0.74291000  0.78053000  1
  C  C90  1  0.84446000  0.49366000  0.13136000  1
  C  C91  1  0.84446000  0.50633000  0.36863000  1
  N  N92  1  0.97585000  0.17418000  0.25676000  1
  N  N93  1  0.03440000  0.28677000  0.59559000  1
  N  N94  1  0.96555000  0.28678000  0.09559000  1
  N  N95  1  0.52176000  0.72939000  0.84878000  1
  N  N96  1  0.47582000  0.67419000  0.24322000  1
  N  N97  1  0.47824000  0.72938000  0.34877000  1
  N  N98  1  0.54127000  0.61525000  0.28826000  1
  N  N99  1  0.46494000  0.78668000  0.40438000  1
  N  N100  1  0.97873000  0.77045000  0.34873000  1
  N  N101  1  0.47583000  0.32585000  0.25676000  1
  N  N102  1  0.95861000  0.88471000  0.78826000  1
  N  N103  1  0.02415000  0.17421000  0.75678000  1
  N  N104  1  0.45874000  0.61523000  0.78828000  1
  N  N105  1  0.96560000  0.71323000  0.40441000  1
  N  N106  1  0.52416000  0.67416000  0.74324000  1
  N  N107  1  0.04139000  0.88469000  0.28824000  1
  N  N108  1  0.53505000  0.21332000  0.59562000  1
  N  N109  1  0.02414000  0.82582000  0.74324000  1
  N  N110  1  0.54125000  0.38477000  0.21172000  1
  N  N111  1  0.04138000  0.11530000  0.21173000  1
  N  N112  1  0.95860000  0.11532000  0.71176000  1
  N  N113  1  0.52175000  0.27062000  0.65123000  1
  N  N114  1  0.97584000  0.82579000  0.24322000  1
  N  N115  1  0.97871000  0.22955000  0.15126000  1
  N  N116  1  0.45873000  0.38475000  0.71174000  1
  N  N117  1  0.46491000  0.21330000  0.09561000  1
  N  N118  1  0.53508000  0.78670000  0.90438000  1
  N  N119  1  0.02128000  0.77045000  0.84874000  1
  N  N120  1  0.03444000  0.71323000  0.90441000  1
  N  N121  1  0.02126000  0.22955000  0.65127000  1
  N  N122  1  0.52417000  0.32582000  0.75678000  1
  N  N123  1  0.47823000  0.27062000  0.15122000  1
  O  O124  1  0.68660000  0.15171000  0.12066000  1
  O  O125  1  0.62711000  0.06735000  0.67399000  1
  O  O126  1  0.68660000  0.84829000  0.37934000  1
  O  O127  1  0.12837000  0.43165000  0.67359000  1
  O  O128  1  0.75103000  0.55401000  0.14261000  1
  O  O129  1  0.37288000  0.93265000  0.32600000  1
  O  O130  1  0.37290000  0.06736000  0.17399000  1
  O  O131  1  0.81352000  0.65028000  0.87906000  1
  O  O132  1  0.87164000  0.43164000  0.17358000  1
  O  O133  1  0.87162000  0.56835000  0.32641000  1
  O  O134  1  0.62710000  0.93265000  0.82601000  1
  O  O135  1  0.18647000  0.34972000  0.12094000  1
  O  O136  1  0.18646000  0.65021000  0.37905000  1
  O  O137  1  0.24979000  0.94656000  0.14230000  1
  O  O138  1  0.81353000  0.34979000  0.62095000  1
  O  O139  1  0.24897000  0.44599000  0.85739000  1
  O  O140  1  0.75020000  0.05345000  0.85770000  1
  O  O141  1  0.31339000  0.84830000  0.87934000  1
  O  O142  1  0.24896000  0.55402000  0.64261000  1
  O  O143  1  0.24976000  0.05343000  0.35770000  1
  O  O144  1  0.12835000  0.56836000  0.82642000  1
  O  O145  1  0.75103000  0.44598000  0.35739000  1
  O  O146  1  0.31339000  0.15171000  0.62066000  1
  O  O147  1  0.75023000  0.94657000  0.64229000  1
