# generated using pymatgen
data_H24C39N8
_symmetry_space_group_name_H-M   'P 1'
_cell_length_a   31.37010000
_cell_length_b   44.61960000
_cell_length_c   44.61960000
_cell_angle_alpha   90.00000000
_cell_angle_beta   89.99630000
_cell_angle_gamma   90.00000000
_symmetry_Int_Tables_number   1
_chemical_formula_structural   H24C39N8
_chemical_formula_sum   'H192 C312 N64'
_cell_volume   62455.00501014
_cell_formula_units_Z   8
loop_
 _symmetry_equiv_pos_site_id
 _symmetry_equiv_pos_as_xyz
  1  'x, y, z'
loop_
 _atom_site_type_symbol
 _atom_site_label
 _atom_site_symmetry_multiplicity
 _atom_site_fract_x
 _atom_site_fract_y
 _atom_site_fract_z
 _atom_site_occupancy
  H  25  1  0.00740600  0.18443100  0.01026300  1
  H  26  1  0.01316900  0.14289600  0.04288100  1
  H  27  1  0.01855900  0.10680400  0.07991900  1
  H  28  1  0.01821100  0.07493900  0.12239400  1
  H  29  1  0.00794600  0.15023000  0.17981000  1
  H  30  1  0.00142900  0.24344200  0.08447500  1
  H  31  1  0.10326000  0.19363500  0.12623800  1
  H  32  1  0.11637500  0.26723200  0.18560500  1
  H  33  1  0.04197600  0.26888000  0.19270100  1
  H  34  1  0.91309000  0.19008500  0.12800200  1
  H  35  1  0.97184300  0.25808600  0.20290800  1
  H  36  1  0.89768000  0.25019700  0.20081600  1
  H  66  1  0.00711900  0.83028100  0.87363800  1
  H  67  1  0.01308000  0.87175800  0.84095800  1
  H  68  1  0.01847900  0.90780300  0.80387100  1
  H  69  1  0.01814900  0.93960700  0.76134000  1
  H  70  1  0.00809200  0.86421200  0.70404300  1
  H  71  1  0.00145100  0.77113900  0.79950700  1
  H  72  1  0.10336000  0.82074300  0.75771000  1
  H  73  1  0.11624500  0.74697700  0.69850200  1
  H  74  1  0.04184800  0.74554900  0.69127600  1
  H  75  1  0.91317600  0.82439100  0.75602400  1
  H  76  1  0.97186600  0.75668800  0.68081900  1
  H  77  1  0.89769900  0.76459700  0.68296200  1
  H  107  1  0.00688600  0.93887700  0.11884100  1
  H  108  1  0.01278900  0.90620300  0.07734400  1
  H  109  1  0.01820500  0.86909600  0.04129800  1
  H  110  1  0.01796800  0.82655400  0.00950700  1
  H  111  1  0.00809100  0.76926500  0.08491900  1
  H  112  1  0.00137500  0.86473000  0.17797100  1
  H  113  1  0.10324500  0.82279300  0.12809300  1
  H  114  1  0.11628400  0.76431500  0.20242700  1
  H  115  1  0.04186700  0.75719000  0.20407700  1
  H  116  1  0.91306100  0.82094700  0.12453600  1
  H  117  1  0.97198000  0.74638100  0.19284200  1
  H  118  1  0.89783600  0.74819800  0.18474100  1
  H  148  1  0.00730300  0.07539900  0.76489100  1
  H  149  1  0.01308500  0.10805400  0.80639700  1
  H  150  1  0.01839700  0.14511500  0.84246600  1
  H  151  1  0.01806100  0.18761600  0.87429700  1
  H  152  1  0.00791900  0.24497500  0.79895900  1
  H  153  1  0.00140600  0.14957100  0.70580900  1
  H  154  1  0.10321300  0.19136400  0.75548700  1
  H  155  1  0.11613100  0.25060700  0.68175600  1
  H  156  1  0.04172500  0.25777700  0.68026700  1
  H  157  1  0.91302600  0.19301800  0.75907600  1
  H  158  1  0.97175700  0.26830600  0.69148400  1
  H  159  1  0.89758100  0.26616600  0.69938300  1
  H  189  1  0.51025700  0.68449300  0.51041200  1
  H  190  1  0.51504800  0.64302700  0.54313700  1
  H  191  1  0.51843400  0.60695300  0.58020400  1
  H  192  1  0.51641600  0.57507500  0.62259800  1
  H  193  1  0.50557400  0.65037100  0.67994600  1
  H  194  1  0.50253900  0.74360800  0.58445400  1
  H  195  1  0.60259300  0.69132400  0.62899500  1
  H  196  1  0.61667400  0.75497100  0.69891000  1
  H  197  1  0.54185400  0.76147900  0.70114500  1
  H  198  1  0.41320600  0.69162000  0.62597600  1
  H  199  1  0.46999600  0.76793000  0.69333800  1
  H  200  1  0.39542100  0.76388400  0.68651300  1
  H  230  1  0.51001100  0.32983700  0.37351700  1
  H  231  1  0.51477700  0.37129400  0.34078500  1
  H  232  1  0.51821700  0.40736100  0.30372700  1
  H  233  1  0.51622800  0.43923500  0.26132400  1
  H  234  1  0.50567600  0.36392100  0.20397700  1
  H  235  1  0.50267000  0.27068400  0.29948700  1
  H  236  1  0.60265700  0.32289400  0.25520400  1
  H  237  1  0.61709400  0.25945300  0.18513700  1
  H  238  1  0.54225600  0.25300800  0.18266200  1
  H  239  1  0.41328600  0.32256200  0.25790400  1
  H  240  1  0.47031100  0.24660000  0.19024500  1
  H  241  1  0.39570800  0.25056500  0.19702400  1
  H  271  1  0.51002700  0.43860100  0.61918700  1
  H  272  1  0.51475200  0.40588000  0.57771000  1
  H  273  1  0.51818200  0.36880200  0.54162500  1
  H  274  1  0.51624700  0.32637500  0.50975500  1
  H  275  1  0.50560900  0.26906300  0.58509700  1
  H  276  1  0.50272100  0.36455500  0.67831200  1
  H  277  1  0.60266300  0.32014600  0.62600100  1
  H  278  1  0.61696400  0.25014800  0.68953700  1
  H  279  1  0.54215700  0.24781300  0.69606500  1
  H  280  1  0.41325000  0.32304400  0.62648700  1
  H  281  1  0.47032100  0.25557200  0.70260300  1
  H  282  1  0.39575000  0.26245000  0.69874500  1
  H  312  1  0.51007500  0.57559200  0.26451300  1
  H  313  1  0.51471000  0.60827300  0.30601500  1
  H  314  1  0.51816900  0.64532400  0.34213400  1
  H  315  1  0.51628800  0.68772900  0.37402300  1
  H  316  1  0.50566000  0.74509600  0.29872700  1
  H  317  1  0.50278500  0.64967700  0.20544800  1
  H  318  1  0.60267300  0.69386300  0.25768200  1
  H  319  1  0.61706900  0.76428800  0.19462300  1
  H  320  1  0.54225200  0.76677100  0.18817700  1
  H  321  1  0.41327600  0.69094500  0.25707500  1
  H  322  1  0.47044200  0.75900300  0.18150800  1
  H  323  1  0.39588000  0.75195400  0.18515600  1
  H  335  1  0.07310800  0.99414600  0.19509800  1
  H  337  1  0.92672700  0.95204100  0.19854700  1
  H  338  1  0.93169400  0.95964100  0.15948300  1
  H  339  1  0.89994000  0.98285500  0.18241900  1
  H  341  1  0.95578000  0.07086700  0.16919400  1
  H  343  1  0.05053300  0.95026000  0.16657400  1
  H  350  1  0.07315400  0.02004200  0.68863900  1
  H  352  1  0.92683500  0.06225300  0.68535900  1
  H  353  1  0.93189100  0.05465700  0.72441800  1
  H  354  1  0.90003900  0.03146400  0.70153000  1
  H  356  1  0.95544600  0.94319600  0.71415000  1
  H  358  1  0.05075500  0.06400600  0.71709100  1
  H  365  1  0.07317900  0.75398900  0.92902900  1
  H  367  1  0.92690200  0.75061900  0.88679500  1
  H  368  1  0.93183100  0.78968000  0.89441700  1
  H  369  1  0.90004200  0.76672600  0.91758800  1
  H  371  1  0.95547100  0.77940400  0.00569700  1
  H  373  1  0.05065600  0.78253700  0.88505300  1
  H  380  1  0.07308800  0.26087600  0.95490300  1
  H  382  1  0.92686400  0.26363300  0.99717500  1
  H  383  1  0.93209500  0.22455200  0.98974300  1
  H  384  1  0.90010900  0.24726400  0.96647900  1
  H  386  1  0.95564600  0.23442800  0.87839900  1
  H  388  1  0.05096800  0.23234200  0.99890000  1
  H  395  1  0.57307800  0.49481900  0.69562000  1
  H  397  1  0.42770400  0.45112500  0.69832400  1
  H  398  1  0.43297600  0.45858100  0.65925200  1
  H  399  1  0.40042300  0.48155100  0.68187100  1
  H  401  1  0.45427400  0.57011100  0.66886300  1
  H  403  1  0.55207700  0.45052900  0.66723800  1
  H  410  1  0.57300800  0.51919800  0.18833000  1
  H  412  1  0.42781200  0.56317400  0.18521300  1
  H  413  1  0.43284900  0.55580500  0.22431700  1
  H  414  1  0.40032400  0.53284000  0.20167200  1
  H  416  1  0.45399000  0.44391500  0.21483600  1
  H  418  1  0.55203200  0.56353500  0.21652000  1
  H  425  1  0.57293100  0.25372000  0.42994200  1
  H  427  1  0.42774800  0.25040800  0.38597000  1
  H  428  1  0.43266400  0.28951400  0.39336400  1
  H  429  1  0.40021300  0.26680400  0.41631500  1
  H  431  1  0.45373200  0.27972200  0.50524700  1
  H  433  1  0.55198500  0.28180900  0.38549000  1
  H  440  1  0.57310300  0.76072400  0.45413400  1
  H  442  1  0.42770700  0.76366200  0.49797300  1
  H  443  1  0.43284600  0.72459400  0.49044500  1
  H  444  1  0.40035300  0.74731100  0.46752600  1
  H  446  1  0.45424800  0.73403400  0.37900600  1
  H  448  1  0.55218500  0.73271400  0.49861000  1
  H  455  1  0.76533100  0.27509700  0.14703300  1
  H  457  1  0.83693100  0.20288900  0.21412400  1
  H  458  1  0.79016400  0.19319500  0.23322100  1
  H  459  1  0.82174200  0.22359200  0.24589700  1
  H  461  1  0.66901000  0.24974500  0.23484400  1
  H  463  1  0.84393500  0.26305700  0.16135600  1
  H  470  1  0.76582900  0.73909200  0.73711700  1
  H  472  1  0.83695700  0.81134500  0.66983200  1
  H  473  1  0.79002000  0.82112100  0.65097700  1
  H  474  1  0.82146100  0.79075100  0.63806800  1
  H  476  1  0.66895600  0.76444700  0.64952600  1
  H  478  1  0.84425000  0.75134900  0.72248300  1
  H  485  1  0.76562800  0.80208300  0.20989500  1
  H  487  1  0.83691200  0.73478900  0.13769700  1
  H  488  1  0.78998500  0.71592300  0.12792800  1
  H  489  1  0.82142300  0.70303900  0.15830800  1
  H  491  1  0.66876100  0.71450000  0.18467000  1
  H  493  1  0.84412600  0.78769700  0.19763300  1
  H  500  1  0.76553800  0.21190600  0.67386200  1
  H  502  1  0.83720200  0.27932800  0.74578300  1
  H  503  1  0.79032000  0.29824300  0.75555400  1
  H  504  1  0.82172600  0.31104300  0.72511800  1
  H  506  1  0.66903200  0.29973600  0.69904600  1
  H  508  1  0.84423100  0.22653100  0.68598100  1
  H  515  1  0.24852800  0.73694800  0.14884300  1
  H  517  1  0.17807100  0.81027600  0.21517100  1
  H  518  1  0.22511100  0.82012400  0.23388000  1
  H  519  1  0.19340100  0.79008300  0.24723000  1
  H  521  1  0.34590000  0.76306200  0.23559200  1
  H  523  1  0.17007200  0.74974500  0.16356900  1
  H  530  1  0.24900000  0.27699300  0.73486600  1
  H  532  1  0.17758200  0.20421300  0.66844300  1
  H  533  1  0.22447800  0.19416400  0.64965800  1
  H  534  1  0.19305200  0.22439700  0.63641400  1
  H  536  1  0.34618300  0.25091900  0.64812100  1
  H  538  1  0.17040500  0.26457200  0.72044800  1
  H  545  1  0.24951800  0.21423300  0.21160300  1
  H  547  1  0.17761300  0.28063900  0.13906700  1
  H  548  1  0.22435000  0.29963500  0.12905800  1
  H  549  1  0.19287300  0.31265000  0.15936600  1
  H  551  1  0.34607800  0.30124900  0.18559900  1
  H  553  1  0.17080200  0.22867100  0.19940400  1
  H  560  1  0.24914200  0.80011000  0.67211100  1
  H  562  1  0.17757100  0.73363700  0.74485100  1
  H  563  1  0.22445400  0.71484100  0.75490100  1
  H  564  1  0.19304400  0.70162000  0.72465100  1
  H  566  1  0.34588100  0.71330600  0.69821600  1
  H  568  1  0.17047900  0.78574200  0.68453700  1
  C  1  1  0.97064800  0.20857500  0.14510700  1
  C  2  1  0.98580600  0.22940100  0.16600800  1
  C  3  1  0.02915500  0.23150800  0.16436900  1
  C  4  1  0.04509000  0.21052200  0.14396200  1
  C  5  1  0.09026800  0.20894200  0.14060100  1
  C  6  1  0.11733700  0.22846500  0.15741700  1
  C  7  1  0.09827600  0.25136500  0.17493700  1
  C  8  1  0.05452800  0.25252800  0.17933000  1
  C  9  1  0.95982500  0.24438800  0.18662900  1
  C  10  1  0.91621700  0.23952700  0.18519700  1
  C  11  1  0.89787200  0.22151000  0.16239700  1
  C  12  1  0.92556000  0.20476500  0.14322100  1
  C  13  1  0.00806300  0.19735400  0.09572400  1
  C  14  1  0.01163900  0.16881900  0.08289700  1
  C  15  1  0.01288700  0.14723000  0.10493600  1
  C  16  1  0.01022800  0.16059700  0.13327500  1
  C  17  1  0.01604900  0.11615300  0.10073300  1
  C  18  1  0.01568100  0.09758900  0.12584700  1
  C  19  1  0.01137200  0.10940100  0.15512700  1
  C  20  1  0.00987400  0.14123900  0.15880500  1
  C  21  1  0.00495800  0.22238700  0.07583900  1
  C  22  1  0.00650100  0.21826400  0.04404200  1
  C  23  1  0.00872100  0.18858000  0.03283400  1
  C  24  1  0.01187500  0.16392800  0.05186100  1
  C  37  1  0.00822500  0.19424400  0.12947500  1
  C  42  1  0.97071200  0.80599100  0.73879600  1
  C  43  1  0.98584100  0.78520900  0.71784200  1
  C  44  1  0.02916500  0.78298300  0.71956000  1
  C  45  1  0.04514100  0.80392700  0.73999400  1
  C  46  1  0.09031800  0.80541500  0.74339200  1
  C  47  1  0.11730900  0.78573600  0.72669400  1
  C  48  1  0.09818900  0.76288000  0.70915300  1
  C  49  1  0.05445300  0.76184700  0.70468600  1
  C  50  1  0.95986100  0.77036100  0.69712600  1
  C  51  1  0.91625800  0.77522200  0.69859800  1
  C  52  1  0.89792600  0.79308400  0.72153100  1
  C  53  1  0.92563400  0.80979500  0.74072000  1
  C  54  1  0.00806300  0.81721500  0.78819600  1
  C  55  1  0.01159700  0.84577400  0.80098200  1
  C  56  1  0.01294800  0.86733200  0.77891300  1
  C  57  1  0.01035800  0.85391900  0.75059400  1
  C  58  1  0.01605800  0.89841900  0.78306800  1
  C  59  1  0.01570300  0.91694700  0.75792500  1
  C  60  1  0.01148100  0.90508000  0.72866600  1
  C  61  1  0.01001500  0.87323500  0.72503400  1
  C  62  1  0.00490700  0.79221000  0.80811300  1
  C  63  1  0.00618200  0.79640600  0.83990600  1
  C  64  1  0.00848800  0.82609900  0.85107700  1
  C  65  1  0.01172100  0.85071600  0.83201100  1
  C  78  1  0.00830600  0.82027900  0.75444200  1
  C  83  1  0.97063200  0.80404400  0.14318300  1
  C  84  1  0.98580200  0.78332900  0.16418600  1
  C  85  1  0.02912000  0.78509900  0.16637600  1
  C  86  1  0.04505400  0.80532600  0.14521600  1
  C  87  1  0.09022900  0.80865600  0.14360000  1
  C  88  1  0.11724900  0.79210100  0.16337100  1
  C  89  1  0.09818500  0.77484100  0.18646500  1
  C  90  1  0.05444500  0.77043300  0.18763000  1
  C  91  1  0.95991500  0.76257800  0.17906800  1
  C  92  1  0.91632900  0.76385100  0.17408300  1
  C  93  1  0.89791300  0.78661600  0.15605000  1
  C  94  1  0.92555700  0.80579900  0.13927800  1
  C  95  1  0.00788300  0.85343700  0.13188200  1
  C  96  1  0.01136000  0.86622000  0.10332200  1
  C  97  1  0.01272500  0.84414300  0.08177400  1
  C  98  1  0.01021700  0.81582100  0.09519700  1
  C  99  1  0.01582000  0.84829300  0.05068600  1
  C  100  1  0.01551800  0.82314300  0.03216800  1
  C  101  1  0.01133700  0.79388000  0.04404000  1
  C  102  1  0.00993600  0.79025800  0.07588700  1
  C  103  1  0.00476300  0.87334300  0.15689600  1
  C  104  1  0.00601900  0.90513400  0.15270300  1
  C  105  1  0.00825800  0.91631300  0.12301200  1
  C  106  1  0.01144300  0.89725200  0.09838600  1
  C  119  1  0.00818400  0.81968500  0.12883500  1
  C  124  1  0.97057100  0.21025000  0.74068900  1
  C  125  1  0.98570000  0.23119000  0.71989300  1
  C  126  1  0.02903100  0.22951800  0.71771700  1
  C  127  1  0.04500200  0.20909600  0.73867600  1
  C  128  1  0.09017800  0.20569900  0.74017100  1
  C  129  1  0.11717800  0.22245800  0.72055300  1
  C  130  1  0.09807100  0.23996200  0.69766300  1
  C  131  1  0.05432900  0.24439500  0.69659100  1
  C  132  1  0.95973600  0.25196100  0.70510500  1
  C  133  1  0.91613400  0.25051100  0.70998600  1
  C  134  1  0.89779200  0.22755000  0.72780800  1
  C  135  1  0.92549000  0.20833300  0.74449500  1
  C  136  1  0.00797100  0.16085500  0.75189400  1
  C  137  1  0.01147500  0.14804900  0.78044400  1
  C  138  1  0.01279500  0.17010300  0.80201800  1
  C  139  1  0.01018500  0.19843200  0.78862900  1
  C  140  1  0.01593100  0.16592400  0.83309800  1
  C  141  1  0.01556500  0.19105300  0.85164400  1
  C  142  1  0.01126100  0.22032500  0.83981000  1
  C  143  1  0.00985300  0.22397700  0.80796800  1
  C  144  1  0.00488100  0.14095300  0.72687300  1
  C  145  1  0.00635100  0.10916000  0.73103700  1
  C  146  1  0.00860000  0.09796600  0.76072400  1
  C  147  1  0.01171400  0.11701700  0.78536100  1
  C  160  1  0.00816200  0.19460900  0.75498500  1
  C  165  1  0.47032700  0.71005600  0.64384000  1
  C  166  1  0.48509900  0.73164500  0.66414000  1
  C  167  1  0.52859000  0.73069700  0.66582500  1
  C  168  1  0.54453500  0.70967700  0.64541200  1
  C  169  1  0.58963200  0.70621700  0.64380100  1
  C  170  1  0.61661300  0.72376100  0.66265000  1
  C  171  1  0.59811800  0.74297400  0.68427800  1
  C  172  1  0.55425700  0.74707100  0.68564700  1
  C  173  1  0.45844000  0.75165400  0.67945000  1
  C  174  1  0.41472600  0.74920500  0.67517200  1
  C  175  1  0.39739500  0.72632900  0.65688900  1
  C  176  1  0.42536400  0.70737100  0.64021800  1
  C  177  1  0.50939900  0.69757300  0.59586600  1
  C  178  1  0.51268300  0.66899500  0.58310700  1
  C  179  1  0.51231900  0.64739300  0.60515100  1
  C  180  1  0.50860200  0.66075900  0.63343700  1
  C  181  1  0.51512500  0.61629900  0.60096400  1
  C  182  1  0.51377900  0.59772200  0.62604500  1
  C  183  1  0.50885100  0.60951700  0.65528600  1
  C  184  1  0.50756300  0.64137300  0.65894600  1
  C  185  1  0.50661300  0.72257100  0.57589700  1
  C  186  1  0.50854500  0.71839100  0.54411300  1
  C  187  1  0.51129900  0.68870400  0.53297800  1
  C  188  1  0.51385600  0.66407600  0.55208200  1
  C  201  1  0.50792700  0.69445100  0.62961800  1
  C  206  1  0.47046700  0.30424300  0.24001000  1
  C  207  1  0.48531300  0.28274800  0.21963500  1
  C  208  1  0.52881600  0.28371600  0.21801300  1
  C  209  1  0.54467200  0.30467100  0.23852800  1
  C  210  1  0.58976300  0.30807800  0.24029200  1
  C  211  1  0.61683300  0.29057900  0.22146300  1
  C  212  1  0.59845600  0.27142300  0.19973900  1
  C  213  1  0.55458600  0.26738700  0.19821500  1
  C  214  1  0.45870100  0.26280800  0.20419100  1
  C  215  1  0.41497200  0.26520900  0.20844400  1
  C  216  1  0.39757600  0.28796800  0.22684000  1
  C  217  1  0.42548800  0.30688300  0.24360000  1
  C  218  1  0.50940600  0.31672400  0.28806400  1
  C  219  1  0.51259000  0.34531000  0.30082200  1
  C  220  1  0.51224600  0.36691300  0.27877800  1
  C  221  1  0.50863100  0.35353800  0.25048800  1
  C  222  1  0.51496800  0.39801100  0.28296500  1
  C  223  1  0.51365800  0.41658600  0.25788100  1
  C  224  1  0.50883500  0.40478000  0.22863700  1
  C  225  1  0.50760800  0.37292400  0.22497700  1
  C  226  1  0.50665200  0.29173100  0.30804100  1
  C  227  1  0.50850700  0.29592200  0.33983000  1
  C  228  1  0.51112700  0.32561700  0.35095500  1
  C  229  1  0.51366500  0.35024100  0.33184700  1
  C  242  1  0.50800600  0.31984800  0.25430700  1
  C  247  1  0.47044500  0.30517100  0.64481200  1
  C  248  1  0.48529000  0.28483200  0.66633800  1
  C  249  1  0.52877800  0.28314200  0.66531600  1
  C  250  1  0.54465300  0.30360200  0.64431600  1
  C  251  1  0.58974700  0.30528700  0.64086000  1
  C  252  1  0.61678200  0.28644600  0.65836900  1
  C  253  1  0.59836300  0.26476900  0.67756100  1
  C  254  1  0.55450300  0.26333100  0.68165600  1
  C  255  1  0.45870800  0.26949400  0.68637500  1
  C  256  1  0.41499100  0.27379900  0.68403100  1
  C  257  1  0.39757300  0.29215000  0.66124300  1
  C  258  1  0.42546600  0.30879300  0.64220800  1
  C  259  1  0.50946000  0.35315000  0.63226900  1
  C  260  1  0.51261900  0.36591300  0.60368300  1
  C  261  1  0.51224000  0.34386500  0.58208000  1
  C  262  1  0.50859900  0.31557900  0.59546200  1
  C  263  1  0.51496800  0.34803800  0.55097900  1
  C  264  1  0.51369000  0.32294800  0.53240900  1
  C  265  1  0.50899100  0.29370700  0.54423600  1
  C  266  1  0.50757300  0.29006100  0.57609000  1
  C  267  1  0.50673100  0.37311600  0.65727200  1
  C  268  1  0.50856100  0.40490300  0.65309000  1
  C  269  1  0.51116500  0.41603900  0.62339600  1
  C  270  1  0.51375100  0.39693800  0.59876600  1
  C  283  1  0.50799700  0.31939800  0.62915200  1
  C  288  1  0.47048000  0.70906300  0.23900600  1
  C  289  1  0.48535100  0.72955600  0.21763200  1
  C  290  1  0.52883200  0.73124800  0.21869300  1
  C  291  1  0.54468100  0.71063400  0.23954700  1
  C  292  1  0.58977200  0.70885900  0.24295200  1
  C  293  1  0.61682700  0.72777700  0.22554100  1
  C  294  1  0.59844000  0.74963500  0.20653900  1
  C  295  1  0.55458300  0.75113900  0.20246900  1
  C  296  1  0.45880300  0.74499100  0.19764900  1
  C  297  1  0.41509600  0.74059400  0.19987700  1
  C  298  1  0.39763700  0.72204200  0.22249000  1
  C  299  1  0.42550700  0.70534500  0.24149400  1
  C  300  1  0.50948600  0.66104600  0.25149700  1
  C  301  1  0.51261900  0.64826200  0.28007400  1
  C  302  1  0.51220100  0.67028900  0.30169600  1
  C  303  1  0.50857700  0.69858600  0.28833700  1
  C  304  1  0.51493300  0.66609300  0.33279300  1
  C  305  1  0.51368100  0.69117400  0.35137600  1
  C  306  1  0.50897500  0.72043000  0.33957500  1
  C  307  1  0.50757600  0.72409200  0.30772300  1
  C  308  1  0.50677300  0.64109500  0.22648300  1
  C  309  1  0.50870500  0.60930400  0.23062000  1
  C  310  1  0.51125800  0.59815700  0.26031600  1
  C  311  1  0.51376000  0.61723600  0.28496600  1
  C  324  1  0.50801000  0.69479300  0.25464800  1
  C  329  1  0.96723100  0.98844300  0.18787600  1
  C  330  1  0.00985300  0.97741100  0.18982900  1
  C  331  1  0.04146800  0.99970700  0.19479400  1
  C  333  1  0.99126900  0.03984200  0.19150300  1
  C  336  1  0.92927400  0.96969100  0.18171900  1
  C  340  1  0.98248700  0.06870400  0.18118700  1
  C  342  1  0.02347000  0.94954000  0.17835600  1
  C  344  1  0.96731000  0.02582200  0.69598500  1
  C  345  1  0.00993900  0.03682800  0.69398700  1
  C  346  1  0.04150600  0.01450500  0.68898700  1
  C  348  1  0.99123800  0.97440600  0.69227000  1
  C  351  1  0.92939800  0.04460700  0.70218800  1
  C  355  1  0.98222300  0.94545500  0.70229500  1
  C  357  1  0.02362400  0.06471400  0.70538900  1
  C  359  1  0.96733600  0.76128200  0.92323700  1
  C  360  1  0.00999600  0.75935500  0.91224100  1
  C  361  1  0.04153400  0.75432100  0.93457200  1
  C  363  1  0.99126900  0.75758400  0.97460400  1
  C  366  1  0.92940800  0.76743900  0.90445300  1
  C  370  1  0.98229300  0.76754400  0.00361600  1
  C  372  1  0.02357000  0.77078500  0.88434600  1
  C  374  1  0.96735200  0.25294300  0.96076300  1
  C  375  1  0.01000400  0.25517300  0.97172800  1
  C  376  1  0.04145200  0.26035000  0.94935500  1
  C  378  1  0.99118000  0.25664500  0.90937400  1
  C  381  1  0.92949100  0.24673200  0.97960200  1
  C  385  1  0.98236900  0.24642500  0.88045000  1
  C  387  1  0.02380100  0.24398000  0.99968800  1
  C  389  1  0.46751600  0.48791800  0.68770200  1
  C  390  1  0.51033000  0.47730800  0.69006000  1
  C  391  1  0.54132500  0.50003600  0.69510500  1
  C  393  1  0.49027600  0.53957200  0.69144800  1
  C  396  1  0.43006300  0.46871100  0.68141900  1
  C  400  1  0.48084000  0.56832700  0.68107400  1
  C  402  1  0.52483100  0.44957400  0.67875500  1
  C  404  1  0.46742300  0.52632900  0.19602800  1
  C  405  1  0.51028600  0.53685600  0.19373900  1
  C  406  1  0.54122600  0.51407500  0.18873500  1
  C  408  1  0.49002100  0.47464600  0.19252000  1
  C  411  1  0.43001200  0.54562400  0.20216800  1
  C  415  1  0.48060800  0.44582400  0.20272400  1
  C  417  1  0.52482200  0.56462400  0.20496300  1
  C  419  1  0.46732700  0.26126200  0.42281800  1
  C  420  1  0.51019600  0.25904300  0.41228700  1
  C  421  1  0.54114600  0.25408100  0.43506300  1
  C  423  1  0.48992200  0.25772300  0.47450500  1
  C  426  1  0.42989700  0.26735600  0.40353000  1
  C  430  1  0.48036200  0.26763800  0.50344100  1
  C  432  1  0.52473300  0.27030100  0.38453800  1
  C  434  1  0.46745800  0.75304400  0.46114600  1
  C  435  1  0.51031800  0.75524700  0.47166900  1
  C  436  1  0.54133400  0.76034100  0.44897800  1
  C  438  1  0.49020600  0.75661800  0.40944400  1
  C  441  1  0.42999900  0.74678400  0.48035500  1
  C  445  1  0.48080500  0.74627100  0.38066800  1
  C  447  1  0.52483100  0.74411000  0.49947900  1
  C  449  1  0.78335200  0.23307000  0.20817200  1
  C  450  1  0.79100200  0.24394900  0.17851100  1
  C  451  1  0.76133700  0.26526700  0.16756900  1
  C  453  1  0.72117800  0.26411000  0.21275600  1
  C  456  1  0.80979100  0.21207300  0.22601700  1
  C  460  1  0.68280700  0.26838400  0.22720100  1
  C  462  1  0.83047000  0.24297200  0.16430300  1
  C  464  1  0.78339600  0.78117500  0.67593700  1
  C  465  1  0.79121900  0.77029400  0.70557800  1
  C  466  1  0.76169700  0.74891100  0.71658800  1
  C  468  1  0.72130800  0.75008800  0.67155800  1
  C  471  1  0.80969200  0.80221500  0.65803800  1
  C  475  1  0.68274300  0.74588100  0.65742900  1
  C  477  1  0.83069300  0.77144600  0.71975900  1
  C  479  1  0.78333200  0.74089900  0.16786300  1
  C  480  1  0.79112600  0.77055200  0.17875400  1
  C  481  1  0.76153100  0.78154900  0.20008200  1
  C  483  1  0.72126100  0.73646600  0.19895600  1
  C  486  1  0.80964700  0.72299900  0.14683300  1
  C  490  1  0.68275900  0.72225900  0.20320500  1
  C  492  1  0.83060700  0.78468700  0.17756400  1
  C  494  1  0.78356500  0.27318900  0.71567300  1
  C  495  1  0.79123800  0.24348900  0.70486600  1
  C  496  1  0.76153100  0.23247400  0.68362300  1
  C  498  1  0.72136900  0.27760900  0.68469800  1
  C  501  1  0.80994400  0.29111200  0.73664500  1
  C  505  1  0.68288300  0.29185600  0.68050700  1
  C  507  1  0.83065800  0.22922400  0.70606700  1
  C  509  1  0.23135900  0.77978800  0.20950200  1
  C  510  1  0.22343500  0.76867800  0.17995700  1
  C  511  1  0.25273200  0.74698400  0.16925800  1
  C  513  1  0.29313300  0.74844300  0.21429900  1
  C  516  1  0.20526600  0.80120400  0.22710000  1
  C  520  1  0.33175900  0.74434300  0.22838300  1
  C  522  1  0.18395700  0.76977800  0.16580600  1
  C  524  1  0.23120600  0.23441000  0.67411800  1
  C  525  1  0.22349500  0.24545900  0.70371500  1
  C  526  1  0.25304300  0.26697700  0.71442400  1
  C  528  1  0.29324100  0.26548900  0.66928100  1
  C  531  1  0.20484600  0.21316900  0.65650500  1
  C  535  1  0.33186100  0.26961000  0.65518400  1
  C  537  1  0.18407800  0.24450200  0.71797700  1
  C  539  1  0.23131500  0.27504300  0.16920300  1
  C  540  1  0.22376700  0.24540600  0.18019500  1
  C  541  1  0.25345400  0.23470200  0.20162200  1
  C  543  1  0.29346000  0.27994000  0.20017600  1
  C  546  1  0.20479800  0.29264500  0.14805200  1
  C  550  1  0.33191800  0.29431900  0.20438200  1
  C  552  1  0.18436700  0.23111600  0.17928600  1
  C  554  1  0.23122500  0.73932300  0.71467600  1
  C  555  1  0.22356000  0.76889100  0.70355600  1
  C  556  1  0.25315000  0.77965500  0.68210600  1
  C  558  1  0.29325100  0.73443700  0.68353400  1
  C  561  1  0.20483800  0.72170300  0.73589400  1
  C  565  1  0.33174300  0.72012100  0.67936900  1
  C  567  1  0.18418600  0.78323400  0.70458800  1
  N  38  1  0.01252000  0.08802100  0.17632400  1
  N  39  1  0.85521900  0.21973500  0.16394200  1
  N  40  1  0.15997200  0.23025800  0.15589400  1
  N  41  1  0.99946800  0.23907000  0.02267900  1
  N  79  1  0.01254100  0.92643800  0.70745800  1
  N  80  1  0.85527000  0.79476500  0.72011400  1
  N  81  1  0.15995700  0.78399600  0.72807500  1
  N  82  1  0.99932200  0.77557200  0.86128100  1
  N  120  1  0.01252000  0.77265600  0.02270100  1
  N  121  1  0.85527700  0.78502500  0.15428900  1
  N  122  1  0.15991300  0.79334900  0.16492000  1
  N  123  1  0.99920100  0.92648800  0.17356100  1
  N  161  1  0.01242800  0.24154200  0.86116700  1
  N  162  1  0.85513000  0.22894200  0.72943700  1
  N  163  1  0.15981900  0.22103700  0.71878500  1
  N  164  1  0.99939200  0.08778100  0.71022400  1
  N  202  1  0.51032400  0.58813000  0.67648900  1
  N  203  1  0.35495000  0.72675000  0.65638000  1
  N  204  1  0.65901700  0.72317300  0.66412300  1
  N  205  1  0.50096500  0.73906300  0.52269200  1
  N  243  1  0.51026700  0.42617800  0.20744900  1
  N  244  1  0.35512800  0.28751300  0.22731900  1
  N  245  1  0.65924600  0.29108100  0.22021000  1
  N  246  1  0.50097100  0.27523100  0.36124900  1
  N  284  1  0.51025100  0.27249900  0.52286400  1
  N  285  1  0.35511900  0.29260700  0.66174700  1
  N  286  1  0.65918900  0.28505200  0.65781200  1
  N  287  1  0.50104100  0.42630200  0.67380300  1
  N  325  1  0.51035600  0.74166100  0.36093100  1
  N  326  1  0.35519500  0.72143600  0.22184200  1
  N  327  1  0.65923300  0.72904300  0.22599400  1
  N  328  1  0.50110800  0.58792800  0.20990500  1
  N  332  1  0.03179700  0.02943400  0.19423000  1
  N  334  1  0.96044100  0.01865200  0.18806800  1
  N  347  1  0.03178500  0.98478500  0.68950600  1
  N  349  1  0.96045300  0.99562100  0.69575000  1
  N  362  1  0.03183300  0.75481000  0.96429800  1
  N  364  1  0.96042800  0.76102200  0.95343500  1
  N  377  1  0.03172000  0.25968200  0.91964200  1
  N  379  1  0.96040600  0.25308800  0.93057300  1
  N  392  1  0.53100000  0.52965500  0.69442200  1
  N  394  1  0.45998000  0.51804200  0.68783200  1
  N  407  1  0.53080200  0.48447300  0.18952800  1
  N  409  1  0.45977600  0.49622200  0.19596400  1
  N  422  1  0.53071300  0.25479400  0.46466700  1
  N  424  1  0.45967400  0.26113400  0.45292600  1
  N  437  1  0.53094500  0.75957200  0.41937000  1
  N  439  1  0.45993500  0.75311300  0.43102100  1
  N  452  1  0.72760700  0.27415800  0.18437800  1
  N  454  1  0.74851900  0.24312000  0.22334500  1
  N  467  1  0.72788200  0.73998900  0.69988900  1
  N  469  1  0.74848700  0.77111900  0.66085800  1
  N  482  1  0.72776000  0.76481700  0.20902100  1
  N  484  1  0.74845500  0.72578700  0.17792600  1
  N  497  1  0.72776700  0.24922200  0.67470000  1
  N  499  1  0.74867800  0.28831100  0.70564100  1
  N  512  1  0.28644100  0.73809300  0.18607200  1
  N  514  1  0.26616600  0.76975800  0.22471400  1
  N  527  1  0.28674600  0.27578900  0.69755800  1
  N  529  1  0.26604500  0.24433400  0.65886000  1
  N  542  1  0.28711500  0.25162000  0.21042000  1
  N  544  1  0.26610300  0.29035700  0.17911900  1
  N  557  1  0.28680600  0.76274300  0.67328600  1
  N  559  1  0.26601900  0.72405000  0.70470300  1
