# generated using pymatgen
data_H4C7N
_symmetry_space_group_name_H-M   'P 1'
_cell_length_a   37.78751653
_cell_length_b   37.78751653
_cell_length_c   39.68750000
_cell_angle_alpha   90.00000000
_cell_angle_beta   90.00000000
_cell_angle_gamma   109.19552394
_symmetry_Int_Tables_number   1
_chemical_formula_structural   H4C7N
_chemical_formula_sum   'H96 C168 N24'
_cell_volume   53518.92336580
_cell_formula_units_Z   24
loop_
 _symmetry_equiv_pos_site_id
 _symmetry_equiv_pos_as_xyz
  1  'x, y, z'
loop_
 _atom_site_type_symbol
 _atom_site_label
 _atom_site_symmetry_multiplicity
 _atom_site_fract_x
 _atom_site_fract_y
 _atom_site_fract_z
 _atom_site_occupancy
  C  1  1  0.93721350  0.31373350  0.02930250  1
  C  3  1  0.95495600  0.37162900  0.99925700  1
  C  5  1  0.93655750  0.31389050  0.96894600  1
  C  7  1  0.96920950  0.41150950  0.99940700  1
  C  8  1  0.98743400  0.43145600  0.02817400  1
  C  9  1  0.00267800  0.47078300  0.02802700  1
  C  10  1  0.99994100  0.49194000  0.99928900  1
  C  11  1  0.98136950  0.47197950  0.97064150  1
  C  12  1  0.96652950  0.43259150  0.97061300  1
  C  13  1  0.93293400  0.29250900  0.05963350  1
  C  14  1  0.93644700  0.30948300  0.09186600  1
  C  15  1  0.93361700  0.28819600  0.12154550  1
  C  16  1  0.92794250  0.24937450  0.11978950  1
  C  17  1  0.92373650  0.23217850  0.08779150  1
  C  18  1  0.92600350  0.25330650  0.05834250  1
  C  19  1  0.93210750  0.29270050  0.93855900  1
  C  20  1  0.92515150  0.25348150  0.93979200  1
  C  21  1  0.92310050  0.23241250  0.91034100  1
  C  22  1  0.92755750  0.24966950  0.87836600  1
  C  23  1  0.93318750  0.28849050  0.87664400  1
  C  24  1  0.93580000  0.30972400  0.90633950  1
  C  37  1  0.07810500  0.71022200  0.02927050  1
  C  39  1  0.06036950  0.65231550  0.99923550  1
  C  41  1  0.07871450  0.71004650  0.96891600  1
  C  43  1  0.04612800  0.61243500  0.99939550  1
  C  44  1  0.02792250  0.59249150  0.02817050  1
  C  45  1  0.01266450  0.55316450  0.02802250  1
  C  46  1  0.01540300  0.53200500  0.99928750  1
  C  47  1  0.03397750  0.55196250  0.97063950  1
  C  48  1  0.04881450  0.59134950  0.97060800  1
  C  49  1  0.08240600  0.73144800  0.05960150  1
  C  50  1  0.07889250  0.71447950  0.09183600  1
  C  51  1  0.08173150  0.73577250  0.12151200  1
  C  52  1  0.08744050  0.77460150  0.11975200  1
  C  53  1  0.09164100  0.79179000  0.08775100  1
  C  54  1  0.08937000  0.77065600  0.05830450  1
  C  55  1  0.08317650  0.73122750  0.93852350  1
  C  56  1  0.09011550  0.77044450  0.93974550  1
  C  57  1  0.09216000  0.79150200  0.91028950  1
  C  58  1  0.08772000  0.77423600  0.87831700  1
  C  59  1  0.08213500  0.73542400  0.87660450  1
  C  60  1  0.07949800  0.71419600  0.90630850  1
  C  73  1  0.30947350  0.94156750  0.46909600  1
  C  75  1  0.36736600  0.95929700  0.49913850  1
  C  77  1  0.30963350  0.94086650  0.52945250  1
  C  79  1  0.40724000  0.97355300  0.49899100  1
  C  80  1  0.42717600  0.99193300  0.47027550  1
  C  81  1  0.46650250  0.00715750  0.47042400  1
  C  82  1  0.48764400  0.00425700  0.49911550  1
  C  83  1  0.46770500  0.98555000  0.52771650  1
  C  84  1  0.42831800  0.97071500  0.52773800  1
  C  85  1  0.28825100  0.93730300  0.43876650  1
  C  86  1  0.30522250  0.94081350  0.40653400  1
  C  87  1  0.28393450  0.93798650  0.37685800  1
  C  88  1  0.24511350  0.93231550  0.37861650  1
  C  89  1  0.22792050  0.92811950  0.41061550  1
  C  90  1  0.24905100  0.93038300  0.44006450  1
  C  91  1  0.28844950  0.93640550  0.55984100  1
  C  92  1  0.24922600  0.92941300  0.55861450  1
  C  93  1  0.22816400  0.92737200  0.58806700  1
  C  94  1  0.24543550  0.93188050  0.62003800  1
  C  95  1  0.28426250  0.93753950  0.62175500  1
  C  96  1  0.30548800  0.94013900  0.59205750  1
  C  109  1  0.70586600  0.08235600  0.46911200  1
  C  111  1  0.64797000  0.06463300  0.49915200  1
  C  113  1  0.70569850  0.08302150  0.52946500  1
  C  115  1  0.60809500  0.05038800  0.49899700  1
  C  116  1  0.58816200  0.03202600  0.47027650  1
  C  117  1  0.54883500  0.01678800  0.47042650  1
  C  118  1  0.52769100  0.01969200  0.49911650  1
  C  119  1  0.54763000  0.03840000  0.52771800  1
  C  120  1  0.58701550  0.05323550  0.52774050  1
  C  121  1  0.72708550  0.08663750  0.43878000  1
  C  122  1  0.71010750  0.08309450  0.40654750  1
  C  123  1  0.73139550  0.08592250  0.37687050  1
  C  124  1  0.77022850  0.09165050  0.37862950  1
  C  125  1  0.78742650  0.09587950  0.41062850  1
  C  126  1  0.76629650  0.09361750  0.44007600  1
  C  127  1  0.72688300  0.08750300  0.55985750  1
  C  128  1  0.76610150  0.09446350  0.55863400  1
  C  129  1  0.78715600  0.09649400  0.58809050  1
  C  130  1  0.76988700  0.09203900  0.62006200  1
  C  131  1  0.73107400  0.08644400  0.62177400  1
  C  132  1  0.70984700  0.08381300  0.59207200  1
  C  289  1  0.14021300  0.91496300  0.27204150  1
  C  291  1  0.10470900  0.87944500  0.22636950  1
  C  293  1  0.08882450  0.93078350  0.24922050  1
  C  295  1  0.09816250  0.85031850  0.20193000  1
  C  296  1  0.12114350  0.82732850  0.19989300  1
  C  297  1  0.11649000  0.80082800  0.17386450  1
  C  298  1  0.08874850  0.79666950  0.14894300  1
  C  299  1  0.06471700  0.81833400  0.15160700  1
  C  300  1  0.06921050  0.84448850  0.17773500  1
  C  301  1  0.16935900  0.92154400  0.29646250  1
  C  302  1  0.19237850  0.89859150  0.29849050  1
  C  303  1  0.21890300  0.90327900  0.32450300  1
  C  304  1  0.22305250  0.93102050  0.34942600  1
  C  305  1  0.20136950  0.95503150  0.34675800  1
  C  306  1  0.17518200  0.95049900  0.32065400  1
  C  307  1  0.06568850  0.95389250  0.24922450  1
  C  308  1  0.06614000  0.97815000  0.27656450  1
  C  309  1  0.04307400  0.00075200  0.27670800  1
  C  310  1  0.01917900  0.00038800  0.24921950  1
  C  311  1  0.01881900  0.97649000  0.22173450  1
  C  312  1  0.04142600  0.95342700  0.22188600  1
  C  325  1  0.87510950  0.10897050  0.27204250  1
  C  327  1  0.91062600  0.14448400  0.22637150  1
  C  329  1  0.92647350  0.09311650  0.24920650  1
  C  331  1  0.91718900  0.17362200  0.20194400  1
  C  332  1  0.89423250  0.19663950  0.19992750  1
  C  333  1  0.89888550  0.22313350  0.17389400  1
  C  334  1  0.92664750  0.22732050  0.14898500  1
  C  335  1  0.95067300  0.20564900  0.15165350  1
  C  336  1  0.94615000  0.17946300  0.17776000  1
  C  337  1  0.84597750  0.10241250  0.29647400  1
  C  338  1  0.82297000  0.12537600  0.29850350  1
  C  339  1  0.79644950  0.12069850  0.32451650  1
  C  340  1  0.79229150  0.09295750  0.34943750  1
  C  341  1  0.81398800  0.06895600  0.34678950  1
  C  342  1  0.84015250  0.07345950  0.32066650  1
  C  343  1  0.94959100  0.06999000  0.24920900  1
  C  344  1  0.94912900  0.04573000  0.27655100  1
  C  345  1  0.97218500  0.02311700  0.27669800  1
  C  346  1  0.99608600  0.02347900  0.24921400  1
  C  347  1  0.99644350  0.04736850  0.22172100  1
  C  348  1  0.97385200  0.07044500  0.22187100  1
  C  361  1  0.87500900  0.10896200  0.72639900  1
  C  363  1  0.91061050  0.14456550  0.77199900  1
  C  365  1  0.92644750  0.09317450  0.74917400  1
  C  367  1  0.91713600  0.17377500  0.79636050  1
  C  368  1  0.89418000  0.19680700  0.79824400  1
  C  369  1  0.89877800  0.22339200  0.82418900  1
  C  370  1  0.92644850  0.22761950  0.84918800  1
  C  371  1  0.95045850  0.20591350  0.84667850  1
  C  372  1  0.94602200  0.17966500  0.82062750  1
  C  373  1  0.84577800  0.10242200  0.70205500  1
  C  374  1  0.82273800  0.12536800  0.70018750  1
  C  375  1  0.79613850  0.12076750  0.67425300  1
  C  376  1  0.79192150  0.09311050  0.64923950  1
  C  377  1  0.81361400  0.06908800  0.65175300  1
  C  378  1  0.83988150  0.07353850  0.67778650  1
  C  379  1  0.94959550  0.07005650  0.74916500  1
  C  380  1  0.94916650  0.04580850  0.72182150  1
  C  381  1  0.97224700  0.02321200  0.72167100  1
  C  382  1  0.99613850  0.02355050  0.74915900  1
  C  383  1  0.99646850  0.04743650  0.77664900  1
  C  384  1  0.97385800  0.07050300  0.77650150  1
  C  397  1  0.14032600  0.91498300  0.72638500  1
  C  399  1  0.10471450  0.87938250  0.77198000  1
  C  401  1  0.08890950  0.93079850  0.74917700  1
  C  403  1  0.09817450  0.85015750  0.79633100  1
  C  404  1  0.12112050  0.82711650  0.79820450  1
  C  405  1  0.11652450  0.80053750  0.82415500  1
  C  406  1  0.08882000  0.79626900  0.84913250  1
  C  407  1  0.06480100  0.81796700  0.84660550  1
  C  408  1  0.06926650  0.84424250  0.82057700  1
  C  409  1  0.16954200  0.92150400  0.70203000  1
  C  410  1  0.19258250  0.89855650  0.70016900  1
  C  411  1  0.21917950  0.90314950  0.67423350  1
  C  412  1  0.22339250  0.93079450  0.64921350  1
  C  413  1  0.20167250  0.95479550  0.65169750  1
  C  414  1  0.17542800  0.95037500  0.67774900  1
  C  415  1  0.06577750  0.95393150  0.74917050  1
  C  416  1  0.06621450  0.97818350  0.72182800  1
  C  417  1  0.04314200  0.00078900  0.72167700  1
  C  418  1  0.01924600  0.00045100  0.74916150  1
  C  419  1  0.01892100  0.97657300  0.77665800  1
  C  420  1  0.04151800  0.95349300  0.77650900  1
  H  25  1  0.93696100  0.30145500  0.14438700  1
  H  26  1  0.94143350  0.33767350  0.09412150  1
  H  27  1  0.91903600  0.20399500  0.08558800  1
  H  28  1  0.92327550  0.23947150  0.03583900  1
  H  29  1  0.92229350  0.23957550  0.96226650  1
  H  30  1  0.91840500  0.20422900  0.91253300  1
  H  31  1  0.94086350  0.33792950  0.90411450  1
  H  32  1  0.93668900  0.30179000  0.85381650  1
  H  33  1  0.95326250  0.41952050  0.94931700  1
  H  34  1  0.97796200  0.48597500  0.94948050  1
  H  35  1  0.01656600  0.48376500  0.04910550  1
  H  36  1  0.99073950  0.41754350  0.04942950  1
  H  61  1  0.07842050  0.72252650  0.14435850  1
  H  62  1  0.07390600  0.68629000  0.09409550  1
  H  63  1  0.09635000  0.81997400  0.08554250  1
  H  64  1  0.09206950  0.78448450  0.03579950  1
  H  65  1  0.09295400  0.78435300  0.96221600  1
  H  66  1  0.09683500  0.81968300  0.91247100  1
  H  67  1  0.07444250  0.68599150  0.90409200  1
  H  68  1  0.07861000  0.72210800  0.85378500  1
  H  69  1  0.06207350  0.60441650  0.94930500  1
  H  70  1  0.03738750  0.53796350  0.94947900  1
  H  71  1  0.99876900  0.54018500  0.04909950  1
  H  72  1  0.02458300  0.60640800  0.04941400  1
  H  97  1  0.29719000  0.94132700  0.35401450  1
  H  98  1  0.33341150  0.94579350  0.40427700  1
  H  99  1  0.19973900  0.92342500  0.41282400  1
  H  100  1  0.23521900  0.92766000  0.46256750  1
  H  101  1  0.23531050  0.92652050  0.53614250  1
  H  102  1  0.19997450  0.92265150  0.58588100  1
  H  103  1  0.33369800  0.94523500  0.59427800  1
  H  104  1  0.29757100  0.94107900  0.64457950  1
  H  105  1  0.41524650  0.95733050  0.54899050  1
  H  106  1  0.48171650  0.98205150  0.54883750  1
  H  107  1  0.47949900  0.02114100  0.44938700  1
  H  108  1  0.41325750  0.99535450  0.44906500  1
  H  133  1  0.71814450  0.08259350  0.35402600  1
  H  134  1  0.68191600  0.07809700  0.40429000  1
  H  135  1  0.81561150  0.10060450  0.41283400  1
  H  136  1  0.78012850  0.09633850  0.46257900  1
  H  137  1  0.78000950  0.09730050  0.53616400  1
  H  138  1  0.81533700  0.10117100  0.58590700  1
  H  139  1  0.68163850  0.07874050  0.59428900  1
  H  140  1  0.71775450  0.08289950  0.64459300  1
  H  141  1  0.60008550  0.06661250  0.54899650  1
  H  142  1  0.53361550  0.04190250  0.54883550  1
  H  143  1  0.53584000  0.00279900  0.44939350  1
  H  144  1  0.60208150  0.02857150  0.44907600  1
  H  313  1  0.23352650  0.88485350  0.32621250  1
  H  314  1  0.18910400  0.87711600  0.28180800  1
  H  315  1  0.20361000  0.97535000  0.36447850  1
  H  316  1  0.15939700  0.96790200  0.32046650  1
  H  317  1  0.08302150  0.97941150  0.29699400  1
  H  318  1  0.04438750  0.01801550  0.29688150  1
  H  319  1  0.04018400  0.93656000  0.20145000  1
  H  320  1  0.00156200  0.97517500  0.20155700  1
  H  321  1  0.05181300  0.86027900  0.17790700  1
  H  322  1  0.04440200  0.81608900  0.13388050  1
  H  323  1  0.13486950  0.78615150  0.17218700  1
  H  324  1  0.14257000  0.83056000  0.21661950  1
  H  349  1  0.78175800  0.13906700  0.32618600  1
  H  350  1  0.82618750  0.14679450  0.28177000  1
  H  351  1  0.81175600  0.04864900  0.36452150  1
  H  352  1  0.85596800  0.05608500  0.32051550  1
  H  353  1  0.93225450  0.04448250  0.29698300  1
  H  354  1  0.97087950  0.00586850  0.29687950  1
  H  355  1  0.97510850  0.08731950  0.20143850  1
  H  356  1  0.01371950  0.04869450  0.20155500  1
  H  357  1  0.96354450  0.16366950  0.17792650  1
  H  358  1  0.97098250  0.20788650  0.13392350  1
  H  359  1  0.88049600  0.23779900  0.17220850  1
  H  360  1  0.87276400  0.19336600  0.21661750  1
  H  385  1  0.78153450  0.13921750  0.67265050  1
  H  386  1  0.82605900  0.14680200  0.71692750  1
  H  387  1  0.81134600  0.04884900  0.63394650  1
  H  388  1  0.85568850  0.05615350  0.67785300  1
  H  389  1  0.93229150  0.04455550  0.70138850  1
  H  390  1  0.97094450  0.00596450  0.70148650  1
  H  391  1  0.97508900  0.08735800  0.79694500  1
  H  392  1  0.01371500  0.04874400  0.79683300  1
  H  393  1  0.96338400  0.16383700  0.82057450  1
  H  394  1  0.97069850  0.20817450  0.86448400  1
  H  395  1  0.88038600  0.23806600  0.82576100  1
  H  396  1  0.87279200  0.19353600  0.78146550  1
  H  421  1  0.23386300  0.88476700  0.67268000  1
  H  422  1  0.18933100  0.87719000  0.71696750  1
  H  423  1  0.20392250  0.97501350  0.63387350  1
  H  424  1  0.15957900  0.96771800  0.67777150  1
  H  425  1  0.08308000  0.97942500  0.70139100  1
  H  426  1  0.04443750  0.01802450  0.70148650  1
  H  427  1  0.04027550  0.93663050  0.79694750  1
  H  428  1  0.00165650  0.97525250  0.79683150  1
  H  429  1  0.05189600  0.86006300  0.82052050  1
  H  430  1  0.04455650  0.81569950  0.86440700  1
  H  431  1  0.13493400  0.78588700  0.82574350  1
  H  432  1  0.14255700  0.83043600  0.78147000  1
  N  2  1  0.94934200  0.35180100  0.02861000  1
  N  4  1  0.94856550  0.35199050  0.96977500  1
  N  6  1  0.93148250  0.29603650  0.99908900  1
  N  38  1  0.06599000  0.67215100  0.02858500  1
  N  40  1  0.06673450  0.67194850  0.96974900  1
  N  42  1  0.08381500  0.72791000  0.99905400  1
  N  74  1  0.34754050  0.95370350  0.46978550  1
  N  76  1  0.34773050  0.95288250  0.52862100  1
  N  78  1  0.29177850  0.93581250  0.49930950  1
  N  110  1  0.66779700  0.07023000  0.46980000  1
  N  112  1  0.66760100  0.07103100  0.52863700  1
  N  114  1  0.72356050  0.08809750  0.49932600  1
  N  290  1  0.13307500  0.88660700  0.24920100  1
  N  292  1  0.08328450  0.90216550  0.22699500  1
  N  294  1  0.11745400  0.93634800  0.27143550  1
  N  326  1  0.88226400  0.13733500  0.24920850  1
  N  328  1  0.93202750  0.12174250  0.22698700  1
  N  330  1  0.89785000  0.08756600  0.27142550  1
  N  362  1  0.88221000  0.13734900  0.74920550  1
  N  364  1  0.93203400  0.12183700  0.77137400  1
  N  366  1  0.89776800  0.08757100  0.72699000  1
  N  398  1  0.13311100  0.88658800  0.74918300  1
  N  400  1  0.08331000  0.90212700  0.77136900  1
  N  402  1  0.11758250  0.93639150  0.72698600  1
