# generated using pymatgen
data_H2C5N3O2
_symmetry_space_group_name_H-M   'P 1'
_cell_length_a   9.74260000
_cell_length_b   66.70870000
_cell_length_c   66.70870000
_cell_angle_alpha   90.00000000
_cell_angle_beta   90.00000000
_cell_angle_gamma   90.00000000
_symmetry_Int_Tables_number   1
_chemical_formula_structural   H2C5N3O2
_chemical_formula_sum   'H120 C300 N180 O120'
_cell_volume   43355.06351813
_cell_formula_units_Z   60
loop_
 _symmetry_equiv_pos_site_id
 _symmetry_equiv_pos_as_xyz
  1  'x, y, z'
loop_
 _atom_site_type_symbol
 _atom_site_label
 _atom_site_symmetry_multiplicity
 _atom_site_fract_x
 _atom_site_fract_y
 _atom_site_fract_z
 _atom_site_occupancy
  C  1  1  0.03440700  0.25114900  0.01777300  1
  C  3  1  0.03776600  0.24699800  0.05346300  1
  C  5  1  0.03918000  0.27981600  0.03919100  1
  C  10  1  0.03542300  0.77528500  0.00863500  1
  C  12  1  0.03884100  0.77943000  0.97294300  1
  C  14  1  0.04089300  0.74661600  0.98722400  1
  C  19  1  0.03440700  0.00862500  0.25113500  1
  C  21  1  0.03776300  0.97293400  0.24699300  1
  C  23  1  0.03904700  0.98721500  0.27980900  1
  C  28  1  0.03551600  0.01779000  0.77527300  1
  C  30  1  0.03889200  0.05348200  0.77941400  1
  C  32  1  0.04079000  0.03919900  0.74660100  1
  C  37  1  0.04377800  0.27539100  0.51771600  1
  C  39  1  0.04063700  0.27959900  0.55339500  1
  C  41  1  0.03945300  0.24674400  0.53914500  1
  C  46  1  0.04609700  0.75105800  0.50872900  1
  C  48  1  0.04321800  0.74683300  0.47305000  1
  C  50  1  0.04260800  0.77969700  0.48728700  1
  C  55  1  0.04419000  0.51773100  0.75104400  1
  C  57  1  0.04108800  0.55341000  0.74682700  1
  C  59  1  0.03989400  0.53916500  0.77968500  1
  C  64  1  0.04573800  0.50872600  0.27537500  1
  C  66  1  0.04277000  0.47304700  0.27959000  1
  C  68  1  0.04243300  0.48729000  0.24672900  1
  C  73  1  0.04176700  0.15733600  0.21399700  1
  C  75  1  0.04427000  0.18614500  0.19265100  1
  C  77  1  0.04316300  0.19026700  0.22823400  1
  C  82  1  0.04228000  0.86909800  0.81242300  1
  C  84  1  0.04498000  0.84029300  0.83377400  1
  C  86  1  0.04363300  0.83616200  0.79819100  1
  C  91  1  0.04236200  0.81240600  0.15732600  1
  C  93  1  0.04471300  0.83375700  0.18613200  1
  C  95  1  0.04367700  0.79817400  0.19026000  1
  C  100  1  0.04192000  0.21400600  0.86908400  1
  C  102  1  0.04475300  0.19265500  0.84028000  1
  C  104  1  0.04311100  0.22823800  0.83614800  1
  C  109  1  0.03747600  0.36907200  0.71404300  1
  C  111  1  0.03479700  0.34027900  0.69268000  1
  C  113  1  0.03640800  0.33613400  0.72826100  1
  C  118  1  0.03886100  0.65736500  0.31241000  1
  C  120  1  0.03627500  0.68615700  0.33377600  1
  C  122  1  0.03720900  0.69030400  0.29819300  1
  C  127  1  0.03834800  0.71407000  0.65736700  1
  C  129  1  0.03553500  0.69269500  0.68615100  1
  C  131  1  0.03710600  0.72827600  0.69031000  1
  C  136  1  0.03746600  0.31240300  0.36905800  1
  C  138  1  0.03535100  0.33376700  0.34026600  1
  C  140  1  0.03637700  0.29818400  0.33612100  1
  C  145  1  0.03369800  0.45902500  0.06503000  1
  C  147  1  0.04054400  0.42536000  0.07664300  1
  C  149  1  0.04024700  0.45230500  0.10001100  1
  C  154  1  0.03664400  0.56744400  0.96138800  1
  C  156  1  0.04366500  0.60110100  0.94975000  1
  C  158  1  0.03657200  0.57416500  0.92639400  1
  C  163  1  0.03381200  0.96138500  0.45902400  1
  C  165  1  0.04057700  0.94976900  0.42535800  1
  C  167  1  0.04025800  0.92640200  0.45230700  1
  C  172  1  0.03651000  0.06503900  0.56742600  1
  C  174  1  0.04355300  0.07667600  0.60108300  1
  C  176  1  0.03635700  0.10003200  0.57414800  1
  C  181  1  0.02768400  0.37432700  0.05801600  1
  C  182  1  0.91496200  0.36231700  0.05187100  1
  C  183  1  0.92979300  0.34117700  0.05095700  1
  C  184  1  0.05478100  0.33160300  0.05590700  1
  C  185  1  0.16727800  0.34361600  0.06215000  1
  C  187  1  0.15258000  0.36475600  0.06300300  1
  C  195  1  0.01971500  0.39516300  0.05801500  1
  C  197  1  0.06166800  0.31076100  0.05640600  1
  C  199  1  0.03171800  0.65210600  0.96841100  1
  C  200  1  0.91843100  0.66406700  0.97442700  1
  C  201  1  0.93276100  0.68521500  0.97534000  1
  C  202  1  0.05779400  0.69483800  0.97051500  1
  C  203  1  0.17087900  0.68287300  0.96440600  1
  C  205  1  0.15666400  0.66172600  0.96355000  1
  C  213  1  0.02420000  0.63127100  0.96841100  1
  C  215  1  0.06431700  0.71568100  0.97002000  1
  C  217  1  0.02766700  0.96838700  0.37432400  1
  C  218  1  0.91488000  0.97450800  0.36231700  1
  C  219  1  0.92967200  0.97542400  0.34117600  1
  C  220  1  0.05471400  0.97051000  0.33160000  1
  C  221  1  0.16729700  0.96429600  0.34361000  1
  C  223  1  0.15262100  0.96343400  0.36475000  1
  C  231  1  0.01977000  0.96839500  0.39516000  1
  C  233  1  0.06161800  0.97000800  0.31075800  1
  C  235  1  0.03164900  0.05801000  0.65208700  1
  C  236  1  0.91827300  0.05202600  0.66404600  1
  C  237  1  0.93260700  0.05110100  0.68519200  1
  C  238  1  0.05768700  0.05589200  0.69481900  1
  C  239  1  0.17081800  0.06198300  0.68285500  1
  C  241  1  0.15663400  0.06284400  0.66170800  1
  C  249  1  0.02412200  0.05801100  0.63125200  1
  C  251  1  0.06416200  0.05640000  0.71566200  1
  C  253  1  0.05082000  0.15384000  0.56694400  1
  C  254  1  0.16985400  0.16571400  0.56389000  1
  C  255  1  0.15554000  0.18623900  0.55873200  1
  C  256  1  0.02507700  0.19533300  0.55687000  1
  C  257  1  0.90608300  0.18335200  0.55952300  1
  C  259  1  0.92040200  0.16273700  0.56431300  1
  C  267  1  0.05977000  0.13519800  0.57608600  1
  C  269  1  0.01646600  0.21611300  0.55661500  1
  C  271  1  0.05537700  0.87258900  0.45943900  1
  C  272  1  0.17482200  0.86078400  0.46237900  1
  C  273  1  0.16111900  0.84024500  0.46751600  1
  C  274  1  0.03091700  0.83110300  0.46949800  1
  C  275  1  0.91150300  0.84302400  0.46698100  1
  C  277  1  0.92520700  0.86364400  0.46218200  1
  C  285  1  0.06322700  0.89121900  0.45025600  1
  C  287  1  0.02259200  0.81032300  0.46972300  1
  C  289  1  0.05082400  0.56695300  0.87258700  1
  C  290  1  0.16981300  0.56379700  0.86073700  1
  C  291  1  0.15540600  0.55865700  0.84020900  1
  C  292  1  0.02495900  0.55689900  0.83109100  1
  C  293  1  0.90598700  0.55965700  0.84306000  1
  C  295  1  0.92033700  0.56442700  0.86368000  1
  C  303  1  0.05977500  0.57610400  0.89122500  1
  C  305  1  0.01621700  0.55662100  0.81031200  1
  C  307  1  0.05556600  0.45944100  0.15382500  1
  C  308  1  0.17502500  0.46232200  0.16564200  1
  C  309  1  0.16135200  0.46750200  0.18617100  1
  C  310  1  0.03117300  0.46953200  0.19531500  1
  C  311  1  0.91178700  0.46706500  0.18337300  1
  C  313  1  0.92544100  0.46228000  0.16274800  1
  C  321  1  0.06343400  0.45026000  0.13519100  1
  C  323  1  0.02280800  0.46973300  0.21609200  1
  C  325  1  0.05306800  0.22573200  0.10415400  1
  C  326  1  0.16871400  0.22266900  0.11678700  1
  C  327  1  0.15624200  0.21073000  0.13435200  1
  C  328  1  0.03016500  0.20191500  0.14010400  1
  C  329  1  0.91420400  0.20515000  0.12757800  1
  C  331  1  0.92685400  0.21700800  0.10995300  1
  C  339  1  0.05752200  0.23940200  0.08825300  1
  C  341  1  0.02384400  0.18927500  0.15686300  1
  C  343  1  0.05436000  0.80066100  0.92223000  1
  C  344  1  0.16939000  0.80356500  0.90944200  1
  C  345  1  0.15653900  0.81552000  0.89189400  1
  C  346  1  0.03070400  0.82452600  0.88632500  1
  C  347  1  0.91537400  0.82145800  0.89901900  1
  C  349  1  0.92838700  0.80958400  0.91662800  1
  C  357  1  0.05904100  0.78701800  0.93816000  1
  C  359  1  0.02405900  0.83715100  0.86955200  1
  C  361  1  0.05315900  0.92224000  0.22573400  1
  C  362  1  0.16896100  0.90965400  0.22262800  1
  C  363  1  0.15658300  0.89209200  0.21068300  1
  C  364  1  0.03045800  0.88629800  0.20191100  1
  C  365  1  0.91434800  0.89878500  0.20518600  1
  C  367  1  0.92689900  0.91641100  0.21704400  1
  C  375  1  0.05745000  0.93814100  0.23940600  1
  C  377  1  0.02424500  0.86954600  0.18926000  1
  C  379  1  0.05435000  0.10419400  0.80064800  1
  C  380  1  0.16947200  0.11696000  0.80357800  1
  C  381  1  0.15665200  0.13451000  0.81552900  1
  C  382  1  0.03077300  0.14010700  0.82450400  1
  C  383  1  0.91538500  0.12742600  0.82142300  1
  C  385  1  0.92836700  0.10981200  0.80955700  1
  C  393  1  0.05908400  0.08826500  0.78700500  1
  C  395  1  0.02418300  0.15687000  0.83714100  1
  C  397  1  0.02572500  0.30084100  0.60411600  1
  C  398  1  0.90989400  0.30396900  0.61669700  1
  C  399  1  0.92239300  0.31587500  0.63428600  1
  C  400  1  0.04864200  0.32458900  0.64011000  1
  C  401  1  0.16475100  0.32129500  0.62763000  1
  C  403  1  0.15209500  0.30947200  0.60998000  1
  C  411  1  0.02114700  0.28718700  0.58819600  1
  C  413  1  0.05497800  0.33720300  0.65688500  1
  C  415  1  0.02805700  0.72559500  0.42233100  1
  C  416  1  0.91201700  0.72243600  0.40980400  1
  C  417  1  0.92430300  0.71052600  0.39221500  1
  C  418  1  0.05053100  0.70183800  0.38634500  1
  C  419  1  0.16686700  0.70516700  0.39877100  1
  C  421  1  0.15442700  0.71699300  0.41642100  1
  C  429  1  0.02377900  0.73925100  0.43825000  1
  C  431  1  0.05670600  0.68922300  0.36956800  1
  C  433  1  0.02653400  0.60411700  0.72556200  1
  C  434  1  0.91017800  0.61654000  0.72224700  1
  C  435  1  0.92244000  0.63413700  0.71034900  1
  C  436  1  0.04897200  0.64012900  0.70184100  1
  C  437  1  0.16563000  0.62781300  0.70532700  1
  C  439  1  0.15319900  0.61015200  0.71714000  1
  C  447  1  0.02221300  0.58822100  0.73923900  1
  C  449  1  0.05514100  0.65689100  0.68921000  1
  C  451  1  0.02745800  0.42232500  0.30082100  1
  C  452  1  0.91134800  0.40980500  0.30396200  1
  C  453  1  0.92350800  0.39221400  0.31587000  1
  C  454  1  0.04966000  0.38633200  0.32457500  1
  C  455  1  0.16602500  0.39876200  0.32127900  1
  C  457  1  0.15371700  0.41641600  0.30945400  1
  C  465  1  0.02323100  0.43824500  0.28716600  1
  C  467  1  0.05566400  0.36956000  0.33719900  1
  C  469  1  0.03867600  0.24155900  0.96346900  1
  C  470  1  0.91246700  0.23930400  0.95305400  1
  C  471  1  0.91261800  0.23418100  0.93234600  1
  C  472  1  0.03560700  0.23137600  0.92138800  1
  C  473  1  0.16176400  0.23340700  0.93186900  1
  C  475  1  0.16161100  0.23833800  0.95262300  1
  C  483  1  0.04532800  0.25133700  0.98202600  1
  C  485  1  0.02998200  0.23138200  0.90039900  1
  C  487  1  0.04027800  0.78489300  0.06293600  1
  C  488  1  0.91394800  0.78735300  0.07327500  1
  C  489  1  0.91389400  0.79243700  0.09399400  1
  C  490  1  0.03677700  0.79500700  0.10502600  1
  C  491  1  0.16311200  0.79279700  0.09462600  1
  C  493  1  0.16315100  0.78788500  0.07386800  1
  C  501  1  0.04707300  0.77512000  0.04437500  1
  C  503  1  0.03094500  0.79501700  0.12601300  1
  C  505  1  0.03926100  0.06291800  0.24150400  1
  C  506  1  0.91318600  0.07330900  0.23900200  1
  C  507  1  0.91350400  0.09402400  0.23390300  1
  C  508  1  0.03653800  0.10503200  0.23136700  1
  C  509  1  0.16263700  0.09458800  0.23367700  1
  C  511  1  0.16232000  0.07382700  0.23857600  1
  C  519  1  0.04567800  0.04437100  0.25130300  1
  C  521  1  0.03102900  0.12601700  0.23138800  1
  C  523  1  0.03980600  0.96348800  0.78487800  1
  C  524  1  0.91356700  0.95310500  0.78724800  1
  C  525  1  0.91368900  0.93239800  0.79238200  1
  C  526  1  0.03663800  0.92140000  0.79505300  1
  C  527  1  0.16283400  0.93185500  0.79291000  1
  C  529  1  0.16273900  0.95261400  0.78800000  1
  C  537  1  0.04635400  0.98204200  0.77509300  1
  C  539  1  0.03111200  0.90041400  0.79503500  1
  C  541  1  0.04005100  0.28489200  0.46343900  1
  C  542  1  0.16626000  0.28711100  0.45301100  1
  C  543  1  0.16619900  0.29221500  0.43230000  1
  C  544  1  0.04323200  0.29501400  0.42133900  1
  C  545  1  0.91705200  0.29298900  0.43181000  1
  C  547  1  0.91717900  0.28808400  0.45256700  1
  C  555  1  0.03336000  0.27512600  0.48198500  1
  C  557  1  0.04888900  0.29500300  0.40035700  1
  C  559  1  0.04144800  0.74159100  0.56301800  1
  C  560  1  0.16749100  0.73910100  0.57342000  1
  C  561  1  0.16693900  0.73402200  0.59413800  1
  C  562  1  0.04370100  0.73150200  0.60509600  1
  C  563  1  0.91765300  0.73375400  0.59463000  1
  C  565  1  0.91821800  0.73864800  0.57387100  1
  C  573  1  0.03538200  0.75135000  0.54445600  1
  C  575  1  0.04894600  0.73150400  0.62608100  1
  C  577  1  0.03951800  0.46345400  0.74153900  1
  C  578  1  0.16571800  0.45309100  0.73906500  1
  C  579  1  0.16558400  0.43237500  0.73398000  1
  C  580  1  0.04263000  0.42135000  0.73143500  1
  C  581  1  0.91642100  0.43177000  0.73371900  1
  C  583  1  0.91654800  0.45253100  0.73860300  1
  C  591  1  0.03292100  0.48200700  0.75130000  1
  C  593  1  0.04832500  0.40037000  0.73145000  1
  C  595  1  0.04197000  0.56301300  0.28485000  1
  C  596  1  0.16786400  0.57347200  0.28726400  1
  C  597  1  0.16703600  0.59417600  0.29239800  1
  C  598  1  0.04367700  0.60508900  0.29500800  1
  C  599  1  0.91782100  0.59455800  0.29280700  1
  C  601  1  0.91862600  0.57379700  0.28791300  1
  C  609  1  0.03627500  0.54446400  0.27507200  1
  C  611  1  0.04849000  0.62607200  0.29497500  1
  C  613  1  0.04280400  0.23178500  0.26411400  1
  C  614  1  0.16721100  0.23961800  0.27197200  1
  C  615  1  0.16326400  0.25458600  0.28712600  1
  C  616  1  0.03807100  0.26229200  0.29461800  1
  C  617  1  0.91368800  0.25425900  0.28697300  1
  C  619  1  0.91766200  0.23910500  0.27200500  1
  C  627  1  0.04075900  0.22114000  0.24610600  1
  C  629  1  0.04009800  0.28030800  0.30525500  1
  C  631  1  0.04319200  0.79463400  0.76231500  1
  C  632  1  0.16729700  0.78691500  0.75425700  1
  C  633  1  0.16268800  0.77193300  0.73911800  1
  C  634  1  0.03715800  0.76413700  0.73184900  1
  C  635  1  0.91303400  0.77209100  0.73967200  1
  C  637  1  0.91763100  0.78724800  0.75463400  1
  C  645  1  0.04190000  0.80528400  0.78032700  1
  C  647  1  0.03846200  0.74612900  0.72119300  1
  C  649  1  0.04230600  0.76229100  0.23177600  1
  C  650  1  0.16672300  0.75428200  0.23943200  1
  C  651  1  0.16280200  0.73914600  0.25442100  1
  C  652  1  0.03769100  0.73181000  0.26230600  1
  C  653  1  0.91325800  0.73961800  0.25443600  1
  C  655  1  0.91712900  0.75456800  0.23926300  1
  C  663  1  0.04020600  0.78030300  0.22113000  1
  C  665  1  0.03979700  0.72117200  0.28031900  1
  C  667  1  0.04314600  0.26411100  0.79461900  1
  C  668  1  0.16720500  0.27210500  0.78681700  1
  C  669  1  0.16248900  0.28727900  0.77187300  1
  C  670  1  0.03693200  0.29462300  0.76414600  1
  C  671  1  0.91291100  0.28683900  0.77218400  1
  C  673  1  0.91756900  0.27188300  0.78734700  1
  C  681  1  0.04201200  0.24609800  0.80526800  1
  C  683  1  0.03801600  0.30525800  0.74613000  1
  C  685  1  0.04593400  0.50117400  0.03084900  1
  C  686  1  0.15974200  0.51239600  0.02372500  1
  C  687  1  0.14543500  0.52425200  0.00620400  1
  C  688  1  0.01991900  0.52535500  0.99562200  1
  C  689  1  0.90618500  0.51411700  0.00273400  1
  C  691  1  0.92045600  0.50226400  0.02026000  1
  C  699  1  0.05321900  0.49042700  0.04867200  1
  C  701  1  0.01287200  0.53609300  0.97778800  1
  C  703  1  0.04599400  0.99556500  0.50117400  1
  C  704  1  0.15963200  0.00265700  0.51245000  1
  C  705  1  0.14530200  0.02018700  0.52429300  1
  C  706  1  0.01991400  0.03080700  0.52533300  1
  C  707  1  0.90631500  0.02372100  0.51404700  1
  C  709  1  0.92062800  0.00619100  0.50220300  1
  C  717  1  0.05327100  0.97774100  0.49042600  1
  C  719  1  0.01280900  0.04864000  0.53607400  1
  H  186  1  0.84665500  0.33269400  0.04691200  1
  H  188  1  0.23540100  0.37323000  0.06720000  1
  H  196  1  0.99013900  0.40195300  0.04545700  1
  H  198  1  0.08820600  0.30435400  0.06930900  1
  H  204  1  0.84927200  0.69366300  0.97929700  1
  H  206  1  0.23985600  0.65328300  0.95944600  1
  H  214  1  0.99469600  0.62447300  0.98097000  1
  H  216  1  0.09107600  0.72209900  0.95713100  1
  H  222  1  0.84650000  0.97945500  0.33269600  1
  H  224  1  0.23551400  0.95926400  0.37322400  1
  H  232  1  0.99026100  0.98095700  0.40194900  1
  H  234  1  0.08819100  0.95710500  0.30435400  1
  H  240  1  0.84903600  0.04717700  0.69364100  1
  H  242  1  0.23988000  0.06692800  0.65326700  1
  H  250  1  0.99460200  0.04545500  0.62445000  1
  H  252  1  0.09081000  0.06929500  0.72207300  1
  H  258  1  0.24220600  0.19486500  0.55763000  1
  H  260  1  0.83377200  0.15452700  0.56720000  1
  H  268  1  0.08999200  0.13494400  0.59033600  1
  H  270  1  0.98989000  0.22276100  0.56939600  1
  H  276  1  0.24797400  0.83165300  0.46855600  1
  H  278  1  0.83828900  0.87182000  0.45937800  1
  H  286  1  0.08936200  0.89143300  0.43583300  1
  H  288  1  0.99848300  0.80367300  0.45683800  1
  H  294  1  0.24206300  0.55744900  0.83159700  1
  H  296  1  0.83374400  0.56741400  0.87186300  1
  H  304  1  0.08983300  0.59036300  0.89146900  1
  H  306  1  0.98897700  0.56936900  0.80365800  1
  H  312  1  0.24817900  0.46845300  0.19477800  1
  H  314  1  0.83847900  0.45948400  0.15458100  1
  H  322  1  0.08985900  0.43585000  0.13497000  1
  H  324  1  0.99893300  0.45683400  0.22272900  1
  H  330  1  0.24153700  0.20843900  0.14302500  1
  H  332  1  0.84102900  0.21962800  0.10148700  1
  H  340  1  0.08092400  0.25348100  0.09181000  1
  H  342  1  0.99511500  0.17513600  0.15470500  1
  H  348  1  0.24140500  0.81768700  0.88310000  1
  H  350  1  0.84296900  0.80709400  0.92522100  1
  H  358  1  0.08312900  0.77295600  0.93463600  1
  H  360  1  0.99419300  0.85124500  0.87167600  1
  H  366  1  0.24198100  0.88344900  0.20836100  1
  H  368  1  0.84096700  0.92484300  0.21970000  1
  H  376  1  0.08062600  0.93457900  0.25349200  1
  H  378  1  0.99517600  0.87169800  0.17513400  1
  H  384  1  0.24157900  0.14328600  0.81771600  1
  H  386  1  0.84288800  0.10123800  0.80704400  1
  H  394  1  0.08312100  0.09179200  0.77294200  1
  H  396  1  0.99455000  0.15473500  0.85124200  1
  H  402  1  0.83699500  0.31821500  0.64292300  1
  H  404  1  0.23800800  0.30680400  0.60154900  1
  H  412  1  0.99784800  0.27310500  0.59175000  1
  H  414  1  0.08354700  0.35135100  0.65474500  1
  H  420  1  0.83876700  0.70816500  0.38361200  1
  H  422  1  0.24048100  0.71968700  0.42481500  1
  H  430  1  0.00086200  0.75334500  0.43468800  1
  H  432  1  0.08551100  0.67508400  0.37169600  1
  H  438  1  0.83668700  0.64265900  0.70787000  1
  H  440  1  0.23946500  0.60184800  0.71996000  1
  H  448  1  0.99965400  0.59180900  0.75333800  1
  H  450  1  0.08351000  0.65473700  0.67505500  1
  H  456  1  0.83793000  0.38361700  0.31821900  1
  H  458  1  0.23981400  0.42480300  0.30677400  1
  H  466  1  0.00036200  0.43468800  0.27306900  1
  H  468  1  0.08423800  0.37169800  0.35134700  1
  H  474  1  0.82061400  0.23371500  0.92492800  1
  H  476  1  0.25385500  0.24082800  0.95955800  1
  H  484  1  0.06210900  0.26603700  0.98148200  1
  H  486  1  0.01498600  0.24462200  0.89389900  1
  H  492  1  0.82174500  0.79307300  0.10135900  1
  H  494  1  0.25541500  0.78526000  0.06698700  1
  H  502  1  0.06500500  0.76044900  0.04490700  1
  H  504  1  0.01636400  0.78177000  0.13251700  1
  H  510  1  0.82145700  0.10141400  0.23323500  1
  H  512  1  0.25445100  0.06693900  0.24127900  1
  H  520  1  0.06268700  0.04491800  0.26599800  1
  H  522  1  0.01751300  0.13251300  0.24466200  1
  H  528  1  0.82166000  0.92499400  0.79291100  1
  H  530  1  0.25497300  0.95951300  0.78540500  1
  H  538  1  0.06323900  0.98149700  0.76039500  1
  H  540  1  0.01704900  0.89391700  0.78177500  1
  H  546  1  0.25822200  0.29266800  0.42488700  1
  H  548  1  0.82491400  0.28560000  0.45949900  1
  H  556  1  0.01715200  0.26041100  0.48145300  1
  H  558  1  0.06352500  0.28175800  0.39385400  1
  H  564  1  0.25887600  0.73336300  0.60155500  1
  H  566  1  0.82619300  0.74130500  0.56693500  1
  H  574  1  0.01958600  0.76607500  0.54497400  1
  H  576  1  0.06210000  0.74477600  0.63259500  1
  H  582  1  0.25769300  0.42500000  0.73332500  1
  H  584  1  0.82435200  0.45941100  0.74128700  1
  H  592  1  0.01593200  0.48148900  0.76599900  1
  H  594  1  0.06221100  0.39387000  0.74471500  1
  H  600  1  0.25882400  0.60164100  0.29295900  1
  H  602  1  0.82666100  0.56683700  0.28527700  1
  H  610  1  0.02200900  0.54500200  0.26031400  1
  H  612  1  0.06041500  0.63258000  0.28167400  1
  H  618  1  0.25395900  0.26083400  0.29174400  1
  H  620  1  0.82690800  0.23435000  0.26587800  1
  H  628  1  0.03750600  0.22932100  0.23364600  1
  H  630  1  0.04468000  0.29276100  0.29707800  1
  H  636  1  0.25317900  0.76575600  0.73432700  1
  H  638  1  0.82719300  0.79194900  0.76090000  1
  H  646  1  0.03981600  0.79710200  0.79279100  1
  H  648  1  0.04000100  0.73366100  0.72937200  1
  H  654  1  0.25358400  0.73439300  0.26053900  1
  H  656  1  0.82642300  0.76081800  0.23465300  1
  H  664  1  0.03576200  0.79275800  0.22930400  1
  H  666  1  0.04337800  0.72935600  0.29277600  1
  H  672  1  0.25290100  0.29198900  0.76560700  1
  H  674  1  0.82712200  0.26564300  0.79207500  1
  H  682  1  0.04085700  0.23363400  0.79708400  1
  H  684  1  0.03961400  0.29707100  0.73366800  1
  H  690  1  0.22910800  0.53197500  0.00102800  1
  H  692  1  0.83683300  0.49452700  0.02543000  1
  H  700  1  0.08198300  0.49772600  0.06098500  1
  H  702  1  0.98498500  0.52877200  0.96544600  1
  H  708  1  0.22886100  0.02533700  0.53206100  1
  H  710  1  0.83710700  0.00104300  0.49442700  1
  H  718  1  0.08198100  0.96542800  0.49772800  1
  H  720  1  0.98471800  0.06097600  0.52876100  1
  N  2  1  0.03441700  0.23924800  0.03448200  1
  N  4  1  0.03953900  0.26733500  0.05532800  1
  N  6  1  0.03590600  0.27142500  0.02062100  1
  N  7  1  0.03104000  0.24286600  0.99934600  1
  N  8  1  0.03750600  0.29974300  0.04092300  1
  N  9  1  0.03609400  0.23493600  0.06963500  1
  N  11  1  0.03522800  0.78718300  0.99192300  1
  N  13  1  0.04104900  0.75909200  0.97108600  1
  N  15  1  0.03735900  0.75501100  0.00579200  1
  N  16  1  0.03184800  0.78356900  0.02706000  1
  N  17  1  0.03962100  0.72668700  0.98549200  1
  N  18  1  0.03701100  0.79148300  0.95676500  1
  N  20  1  0.03444800  0.99191200  0.23923900  1
  N  22  1  0.03947700  0.97107500  0.26733200  1
  N  24  1  0.03583400  0.00578400  0.27141300  1
  N  25  1  0.03113300  0.02704800  0.24284500  1
  N  26  1  0.03740100  0.98548700  0.29973600  1
  N  27  1  0.03618200  0.95676100  0.23493300  1
  N  29  1  0.03536800  0.03450300  0.78717000  1
  N  31  1  0.04100600  0.05534000  0.75907600  1
  N  33  1  0.03735900  0.02063200  0.75499700  1
  N  34  1  0.03206600  0.99936500  0.78356000  1
  N  35  1  0.03953900  0.04092700  0.72667200  1
  N  36  1  0.03707600  0.06966000  0.79146800  1
  N  38  1  0.04377700  0.28732200  0.53440500  1
  N  40  1  0.03913100  0.25926600  0.55526000  1
  N  42  1  0.04253500  0.25511500  0.52057000  1
  N  43  1  0.04711400  0.28364600  0.49928700  1
  N  44  1  0.04161300  0.22681000  0.54095800  1
  N  45  1  0.04239100  0.29166200  0.56957300  1
  N  47  1  0.04600500  0.73911800  0.49204500  1
  N  49  1  0.04216600  0.76716500  0.47118000  1
  N  51  1  0.04525500  0.77133200  0.50586500  1
  N  52  1  0.04902300  0.74280800  0.52716300  1
  N  53  1  0.04499800  0.79963300  0.48547300  1
  N  54  1  0.04477400  0.73476700  0.45687600  1
  N  56  1  0.04417800  0.53441900  0.73910900  1
  N  58  1  0.03957000  0.55528000  0.76716000  1
  N  60  1  0.04296800  0.52059000  0.77131900  1
  N  61  1  0.04746400  0.49930000  0.74279200  1
  N  62  1  0.04206500  0.54098500  0.79961900  1
  N  63  1  0.04275100  0.56958400  0.73475800  1
  N  65  1  0.04550200  0.49203900  0.28731000  1
  N  67  1  0.04188000  0.47118000  0.25925700  1
  N  69  1  0.04502000  0.50586600  0.25510000  1
  N  70  1  0.04850900  0.52715700  0.28363200  1
  N  71  1  0.04490600  0.48548500  0.22679300  1
  N  72  1  0.04425000  0.45687100  0.29165400  1
  N  74  1  0.04321800  0.16582100  0.19534900  1
  N  76  1  0.04488500  0.19793800  0.20928000  1
  N  78  1  0.04202300  0.16992800  0.23018600  1
  N  79  1  0.04331500  0.13722100  0.21568200  1
  N  80  1  0.04377700  0.20183700  0.24471500  1
  N  81  1  0.04724800  0.19545000  0.17486000  1
  N  83  1  0.04391200  0.86061600  0.83107100  1
  N  85  1  0.04550700  0.82849600  0.81714600  1
  N  87  1  0.04240800  0.85650200  0.79623600  1
  N  88  1  0.04387100  0.88921000  0.81073300  1
  N  89  1  0.04394400  0.82459100  0.78171200  1
  N  90  1  0.04820100  0.83099800  0.85156800  1
  N  92  1  0.04378700  0.83105600  0.16580900  1
  N  94  1  0.04531800  0.81713000  0.19792900  1
  N  96  1  0.04263900  0.79622000  0.16992100  1
  N  97  1  0.04410700  0.81071200  0.13721200  1
  N  98  1  0.04432300  0.78169700  0.20183300  1
  N  99  1  0.04773500  0.85155000  0.19543300  1
  N  101  1  0.04370700  0.19535800  0.86060200  1
  N  103  1  0.04511300  0.20928300  0.82848200  1
  N  105  1  0.04188800  0.23019300  0.85648700  1
  N  106  1  0.04357300  0.21569900  0.88919700  1
  N  107  1  0.04328400  0.24471600  0.82457600  1
  N  108  1  0.04802800  0.17486300  0.83098300  1
  N  110  1  0.03579200  0.36059900  0.69539200  1
  N  112  1  0.03450900  0.32847300  0.70930300  1
  N  114  1  0.03751700  0.35647200  0.73022500  1
  N  115  1  0.03578300  0.38918100  0.71574100  1
  N  116  1  0.03628500  0.32456300  0.74474100  1
  N  117  1  0.03176900  0.33099400  0.67487900  1
  N  119  1  0.03747600  0.66583600  0.33106300  1
  N  121  1  0.03553500  0.69796400  0.31715300  1
  N  123  1  0.03845100  0.66996600  0.29623000  1
  N  124  1  0.03757800  0.63725400  0.31071500  1
  N  125  1  0.03653100  0.70187400  0.28171600  1
  N  126  1  0.03332500  0.69543700  0.35158100  1
  N  128  1  0.03665400  0.69541400  0.66583200  1
  N  130  1  0.03515600  0.70931500  0.69796300  1
  N  132  1  0.03833700  0.73024600  0.66997200  1
  N  133  1  0.03692100  0.71577600  0.63725700  1
  N  134  1  0.03687000  0.74475100  0.70188700  1
  N  135  1  0.03239400  0.67489200  0.69543200  1
  N  137  1  0.03615200  0.33105600  0.36058700  1
  N  139  1  0.03481700  0.31714400  0.32845900  1
  N  141  1  0.03728100  0.29622100  0.35645900  1
  N  142  1  0.03572700  0.31070300  0.38916600  1
  N  143  1  0.03579500  0.28170700  0.32455100  1
  N  144  1  0.03247700  0.35157000  0.33098200  1
  N  146  1  0.03575100  0.43896300  0.06141100  1
  N  148  1  0.04308900  0.43231200  0.09578200  1
  N  150  1  0.03507300  0.46542800  0.08444400  1
  N  151  1  0.02951400  0.47145100  0.04943000  1
  N  152  1  0.03836900  0.45950500  0.11865200  1
  N  153  1  0.04433200  0.40561100  0.07384200  1
  N  155  1  0.04205900  0.58749600  0.96499400  1
  N  157  1  0.04153000  0.59415300  0.93060800  1
  N  159  1  0.03375000  0.56104300  0.94197700  1
  N  160  1  0.03816700  0.55502200  0.97699600  1
  N  161  1  0.03271400  0.56696800  0.90775800  1
  N  162  1  0.04809800  0.62084700  0.95254500  1
  N  164  1  0.03582700  0.96500300  0.43896000  1
  N  166  1  0.04310100  0.93063100  0.43231200  1
  N  168  1  0.03516300  0.94197100  0.46542800  1
  N  169  1  0.02963400  0.97698400  0.47144800  1
  N  170  1  0.03841300  0.90776300  0.45950800  1
  N  171  1  0.04433300  0.95256800  0.40561000  1
  N  173  1  0.04197300  0.06143300  0.58747600  1
  N  175  1  0.04135600  0.09581700  0.59413700  1
  N  177  1  0.03356600  0.08445000  0.56102500  1
  N  178  1  0.03813900  0.04943200  0.55500200  1
  N  179  1  0.03250100  0.11866900  0.56695300  1
  N  180  1  0.04801600  0.07387800  0.62082900  1
  N  189  1  0.29353700  0.33430900  0.06713800  1
  N  190  1  0.78815900  0.37163000  0.04720500  1
  N  207  1  0.29719000  0.69223200  0.95954700  1
  N  208  1  0.79158500  0.65470000  0.97896300  1
  N  225  1  0.29362500  0.95934500  0.33430300  1
  N  226  1  0.78804600  0.97914800  0.37163500  1
  N  243  1  0.29716900  0.06681400  0.69221700  1
  N  244  1  0.79136200  0.04752900  0.65467700  1
  N  261  1  0.77478400  0.19240400  0.55815900  1
  N  262  1  0.30106000  0.15701500  0.56685700  1
  N  279  1  0.78043900  0.83391800  0.46846500  1
  N  280  1  0.30565800  0.86955300  0.45929100  1
  N  297  1  0.77467100  0.55840100  0.83399900  1
  N  298  1  0.30104900  0.56665600  0.86946000  1
  N  315  1  0.78072700  0.46858200  0.19247400  1
  N  316  1  0.30584500  0.45915300  0.15689500  1
  N  333  1  0.78591100  0.19690800  0.13325000  1
  N  334  1  0.29592800  0.23150800  0.11147900  1
  N  351  1  0.78725100  0.82987900  0.89353200  1
  N  352  1  0.29638500  0.79455600  0.91457300  1
  N  369  1  0.78603200  0.89307300  0.19697900  1
  N  370  1  0.29620700  0.91500500  0.23143000  1
  N  387  1  0.78724500  0.13293400  0.82982700  1
  N  388  1  0.29652300  0.11180400  0.79459800  1
  N  405  1  0.29316700  0.32944900  0.63337300  1
  N  406  1  0.78250200  0.29522700  0.61132300  1
  N  423  1  0.29526200  0.69704400  0.39297500  1
  N  424  1  0.78465900  0.73115900  0.41522900  1
  N  441  1  0.29426500  0.63372700  0.69737300  1
  N  442  1  0.78254300  0.61099900  0.73080800  1
  N  459  1  0.29433300  0.39296200  0.32942800  1
  N  460  1  0.78405300  0.41523900  0.29522400  1
  N  477  1  0.28651700  0.23156800  0.92111000  1
  N  478  1  0.78804600  0.24331900  0.96329200  1
  N  495  1  0.28772800  0.79443600  0.10545300  1
  N  496  1  0.78956600  0.78355600  0.06294700  1
  N  513  1  0.28743100  0.10538400  0.23212300  1
  N  514  1  0.78858100  0.06302300  0.24276000  1
  N  531  1  0.28756400  0.92106700  0.79462200  1
  N  532  1  0.78911400  0.96337300  0.78333400  1
  N  549  1  0.79230400  0.29480200  0.42104700  1
  N  550  1  0.29063700  0.28309300  0.46326200  1
  N  567  1  0.79272600  0.73216500  0.60538800  1
  N  568  1  0.29217300  0.74285500  0.56315300  1
  N  585  1  0.79170100  0.42095700  0.73215600  1
  N  586  1  0.29020200  0.46340400  0.74283400  1
  N  603  1  0.79273200  0.60526600  0.29445900  1
  N  604  1  0.29267500  0.56327600  0.28340100  1
  N  621  1  0.78717300  0.26232500  0.29366500  1
  N  622  1  0.29368000  0.23309400  0.26375000  1
  N  639  1  0.78625900  0.76396400  0.73315700  1
  N  640  1  0.29410100  0.79354100  0.76228100  1
  N  657  1  0.78682300  0.73308700  0.26266300  1
  N  658  1  0.29320900  0.76235300  0.23273400  1
  N  675  1  0.78605500  0.29340200  0.76412200  1
  N  676  1  0.29405000  0.26400600  0.79333500  1
  N  693  1  0.77922000  0.51523500  0.99242000  1
  N  694  1  0.28681300  0.51126000  0.03401500  1
  N  711  1  0.77944800  0.03406700  0.51510600  1
  N  712  1  0.28658700  0.99233000  0.51137800  1
  O  191  1  0.38896400  0.34012300  0.05586700  1
  O  192  1  0.69396600  0.36580700  0.05869200  1
  O  193  1  0.75301400  0.36823400  0.02940800  1
  O  194  1  0.32673200  0.33776800  0.08500700  1
  O  209  1  0.39215700  0.68646500  0.97092500  1
  O  210  1  0.69784400  0.66047600  0.96737300  1
  O  211  1  0.75546700  0.65809500  0.99671900  1
  O  212  1  0.33135200  0.68877500  0.94171800  1
  O  227  1  0.38890300  0.97064200  0.34011900  1
  O  228  1  0.69395500  0.96764100  0.36581400  1
  O  229  1  0.75272500  0.99693700  0.36824000  1
  O  230  1  0.32706000  0.94148500  0.33775800  1
  O  245  1  0.39204300  0.05542200  0.68644700  1
  O  246  1  0.69779100  0.05914600  0.66045600  1
  O  247  1  0.75500400  0.02978300  0.65806800  1
  O  248  1  0.33148900  0.08464000  0.68876400  1
  O  263  1  0.70392100  0.18450500  0.54454500  1
  O  264  1  0.37242300  0.15783200  0.55118900  1
  O  265  1  0.36536500  0.16548500  0.58081600  1
  O  266  1  0.71013100  0.19112600  0.57441200  1
  O  281  1  0.71004300  0.84178200  0.48215100  1
  O  282  1  0.37772400  0.86875300  0.47489100  1
  O  283  1  0.36952200  0.86112000  0.44526700  1
  O  284  1  0.71502500  0.83518000  0.45227700  1
  O  299  1  0.70324200  0.54484500  0.84188800  1
  O  300  1  0.37180100  0.55092900  0.86865500  1
  O  301  1  0.36596100  0.58056000  0.86099800  1
  O  302  1  0.71064200  0.57470600  0.83526500  1
  O  317  1  0.71053200  0.48229400  0.18461700  1
  O  318  1  0.37831000  0.47471400  0.15768500  1
  O  319  1  0.36928700  0.44510200  0.16535500  1
  O  320  1  0.71508300  0.45241400  0.19120300  1
  O  335  1  0.69790400  0.21037000  0.13620800  1
  O  336  1  0.38705300  0.21847100  0.10867200  1
  O  337  1  0.33686100  0.24350800  0.12471000  1
  O  338  1  0.74102100  0.18507500  0.12015000  1
  O  353  1  0.69816200  0.81654200  0.89069900  1
  O  354  1  0.38849000  0.80747100  0.91725600  1
  O  355  1  0.33571200  0.78250600  0.90128400  1
  O  356  1  0.74402200  0.84177400  0.90669400  1
  O  371  1  0.69824300  0.89008600  0.21046600  1
  O  372  1  0.38708500  0.91785100  0.21836400  1
  O  373  1  0.33754500  0.90178100  0.24340700  1
  O  374  1  0.74078900  0.90616200  0.18516200  1
  O  389  1  0.69825500  0.13577300  0.81647600  1
  O  390  1  0.38845000  0.10910100  0.80753600  1
  O  391  1  0.33611200  0.12508400  0.78255700  1
  O  392  1  0.74386800  0.11978200  0.84172200  1
  O  407  1  0.38071200  0.31592700  0.63635300  1
  O  408  1  0.69187900  0.30833300  0.60849400  1
  O  409  1  0.74089300  0.28324500  0.62452500  1
  O  410  1  0.33869800  0.34127200  0.62031200  1
  O  425  1  0.38258700  0.71058600  0.38995200  1
  O  426  1  0.69421000  0.71803600  0.41810100  1
  O  427  1  0.74268800  0.74312600  0.40203900  1
  O  428  1  0.34120300  0.68523900  0.40602300  1
  O  443  1  0.38062900  0.63682800  0.71102800  1
  O  444  1  0.69299900  0.60804600  0.71757200  1
  O  445  1  0.73929600  0.62415400  0.74272000  1
  O  446  1  0.34147200  0.62072400  0.68562700  1
  O  461  1  0.38180800  0.38994600  0.31590300  1
  O  462  1  0.69354200  0.41811600  0.30833700  1
  O  463  1  0.74210400  0.40205200  0.28325100  1
  O  464  1  0.34013600  0.40600200  0.34125100  1
  O  479  1  0.35981300  0.21775100  0.92813500  1
  O  480  1  0.71077700  0.22823700  0.96332800  1
  O  481  1  0.72446800  0.25775600  0.95552400  1
  O  482  1  0.35428100  0.24759900  0.92146700  1
  O  497  1  0.36218300  0.80814900  0.09848100  1
  O  498  1  0.71347800  0.79876500  0.06288100  1
  O  499  1  0.72462400  0.76921600  0.07065400  1
  O  500  1  0.35435300  0.77830400  0.10511800  1
  O  515  1  0.36226400  0.09839500  0.21846200  1
  O  516  1  0.71270800  0.06297600  0.22752800  1
  O  517  1  0.72354600  0.07075400  0.25707900  1
  O  518  1  0.35352000  0.10503800  0.24830000  1
  O  533  1  0.36155900  0.92806300  0.80837400  1
  O  534  1  0.71244100  0.96343400  0.79848000  1
  O  535  1  0.72487900  0.95561400  0.76895300  1
  O  536  1  0.35460900  0.92141600  0.77852600  1
  O  551  1  0.71891700  0.30861800  0.42805800  1
  O  552  1  0.36801200  0.29816300  0.46329000  1
  O  553  1  0.35414600  0.26863300  0.45551900  1
  O  554  1  0.72463300  0.27876400  0.42141900  1
  O  569  1  0.71822800  0.71847700  0.59837700  1
  O  570  1  0.36803300  0.72762100  0.56312300  1
  O  571  1  0.35716500  0.75717700  0.57088300  1
  O  572  1  0.72639000  0.74832200  0.60500600  1
  O  587  1  0.71690300  0.42793000  0.71848600  1
  O  588  1  0.36616600  0.46346300  0.72761100  1
  O  589  1  0.35522600  0.45569700  0.75716600  1
  O  590  1  0.72553500  0.42130500  0.74832800  1
  O  605  1  0.71864900  0.59822400  0.30818000  1
  O  606  1  0.36906000  0.56325200  0.29857700  1
  O  607  1  0.35698500  0.57106600  0.26904400  1
  O  608  1  0.72605000  0.60486800  0.27833400  1
  O  623  1  0.71338400  0.24905700  0.30158100  1
  O  624  1  0.36876300  0.22528500  0.27692600  1
  O  625  1  0.35819200  0.24730300  0.25573000  1
  O  626  1  0.72126800  0.27024900  0.27953900  1
  O  641  1  0.71165400  0.77719700  0.72534400  1
  O  642  1  0.36788100  0.80141200  0.74898600  1
  O  643  1  0.35976600  0.77938400  0.77019000  1
  O  644  1  0.72147200  0.75600400  0.74737300  1
  O  659  1  0.71178400  0.72525700  0.24949400  1
  O  660  1  0.36705000  0.74908300  0.22483100  1
  O  661  1  0.35907300  0.77029500  0.24685500  1
  O  662  1  0.72223200  0.74729600  0.27066900  1
  O  677  1  0.71191600  0.30125000  0.77738800  1
  O  678  1  0.36844600  0.27724900  0.80117400  1
  O  679  1  0.35901200  0.25607900  0.77911800  1
  O  680  1  0.72081500  0.27921200  0.75619600  1
  O  695  1  0.68582300  0.52210700  0.00345600  1
  O  696  1  0.38008400  0.50437200  0.02296400  1
  O  697  1  0.32359000  0.52813500  0.04042000  1
  O  698  1  0.74265700  0.49835100  0.98600900  1
  O  713  1  0.68578300  0.02305500  0.52193900  1
  O  714  1  0.38016700  0.00335100  0.50453200  1
  O  715  1  0.32289100  0.98591900  0.52827400  1
  O  716  1  0.74330400  0.04048200  0.49820500  1
