# generated using pymatgen
data_BaVH4C8NO9
_symmetry_space_group_name_H-M   'P 1'
_cell_length_a   7.21900000
_cell_length_b   10.79500000
_cell_length_c   11.66200000
_cell_angle_alpha   113.68600000
_cell_angle_beta   102.81400000
_cell_angle_gamma   95.06900000
_symmetry_Int_Tables_number   1
_chemical_formula_structural   BaVH4C8NO9
_chemical_formula_sum   'Ba2 V2 H8 C16 N2 O18'
_cell_volume   795.33911202
_cell_formula_units_Z   2
loop_
 _symmetry_equiv_pos_site_id
 _symmetry_equiv_pos_as_xyz
  1  'x, y, z'
loop_
 _atom_site_type_symbol
 _atom_site_label
 _atom_site_symmetry_multiplicity
 _atom_site_fract_x
 _atom_site_fract_y
 _atom_site_fract_z
 _atom_site_occupancy
  Ba  Ba1  1  0.54785000  0.22705000  0.61578000  1.0
  Ba  Ba2  1  0.45215000  0.77295000  0.38422000  1.0
  V  V1  1  0.86984000  0.74980000  0.17464000  1.0
  V  V2  1  0.13016000  0.25020000  0.82536000  1.0
  H  H1  1  0.59600000  0.73000000  0.73150000  1.0
  H  H2  1  0.76000000  0.12150000  0.02400000  1.0
  H  H3  1  0.15000000  0.97700000  0.42460000  1.0
  H  H4  1  0.18700000  0.95300000  0.54500000  1.0
  H  H5  1  0.40400000  0.27000000  0.26850000  1.0
  H  H6  1  0.24000000  0.87850000  0.97600000  1.0
  H  H7  1  0.85000000  0.02300000  0.57540000  1.0
  H  H8  1  0.81300000  0.04700000  0.45500000  1.0
  C  C1  1  0.70630000  0.59780000  0.89410000  1.0
  C  C2  1  0.71330000  0.74520000  0.91440000  1.0
  C  C3  1  0.65210000  0.79270000  0.82160000  1.0
  C  C4  1  0.66460000  0.93460000  0.86300000  1.0
  C  C5  1  0.59070000  0.98880000  0.76170000  1.0
  C  C6  1  0.74170000  0.02390000  0.99510000  1.0
  C  C7  1  0.80320000  0.96780000  0.08170000  1.0
  C  C8  1  0.88790000  0.04190000  0.22760000  1.0
  C  C9  1  0.29370000  0.40220000  0.10590000  1.0
  C  C10  1  0.28670000  0.25480000  0.08560000  1.0
  C  C11  1  0.34790000  0.20730000  0.17840000  1.0
  C  C12  1  0.33540000  0.06540000  0.13700000  1.0
  C  C13  1  0.40930000  0.01120000  0.23830000  1.0
  C  C14  1  0.25830000  0.97610000  0.00490000  1.0
  C  C15  1  0.19680000  0.03220000  0.91830000  1.0
  C  C16  1  0.11210000  0.95810000  0.77240000  1.0
  N  N1  1  0.78820000  0.83160000  0.03980000  1.0
  N  N2  1  0.21180000  0.16840000  0.96020000  1.0
  O  O1  1  0.64230000  0.50130000  0.78680000  1.0
  O  O2  1  0.77160000  0.58780000  0.00310000  1.0
  O  O3  1  0.92540000  0.95770000  0.28060000  1.0
  O  O4  1  0.91500000  0.16660000  0.28720000  1.0
  O  O5  1  0.56740000  0.90900000  0.64740000  1.0
  O  O6  1  0.56020000  0.10810000  0.80220000  1.0
  O  O7  1  0.74040000  0.71020000  0.25600000  1.0
  O  O8  1  0.08680000  0.72720000  0.21870000  1.0
  O  O9  1  0.24210000  0.98970000  0.49870000  1.0
  O  O10  1  0.35770000  0.49870000  0.21320000  1.0
  O  O11  1  0.22840000  0.41220000  0.99690000  1.0
  O  O12  1  0.07460000  0.04230000  0.71940000  1.0
  O  O13  1  0.08500000  0.83340000  0.71280000  1.0
  O  O14  1  0.43260000  0.09100000  0.35260000  1.0
  O  O15  1  0.43980000  0.89190000  0.19780000  1.0
  O  O16  1  0.25960000  0.28980000  0.74400000  1.0
  O  O17  1  0.91320000  0.27280000  0.78130000  1.0
  O  O18  1  0.75790000  0.01030000  0.50130000  1.0
