# generated using pymatgen
data_H32C47(N2O3)2
_symmetry_space_group_name_H-M   'P 1'
_cell_length_a   26.03653084
_cell_length_b   26.03306436
_cell_length_c   26.03723635
_cell_angle_alpha   107.30550295
_cell_angle_beta   110.57009785
_cell_angle_gamma   110.56373699
_symmetry_Int_Tables_number   1
_chemical_formula_structural   H32C47(N2O3)2
_chemical_formula_sum   'H128 C188 N16 O24'
_cell_volume   13570.47165301
_cell_formula_units_Z   4
loop_
 _symmetry_equiv_pos_site_id
 _symmetry_equiv_pos_as_xyz
  1  'x, y, z'
loop_
 _atom_site_type_symbol
 _atom_site_label
 _atom_site_symmetry_multiplicity
 _atom_site_fract_x
 _atom_site_fract_y
 _atom_site_fract_z
 _atom_site_occupancy
  C  2  1  0.17172650  0.47386750  0.74832300  1
  C  3  1  0.26220250  0.55435700  0.84621150  1
  C  4  1  0.25535450  0.56168650  0.75252800  1
  C  5  1  0.21149600  0.56023450  0.70019350  1
  C  6  1  0.23221450  0.59609000  0.67308650  1
  C  7  1  0.29787300  0.63650750  0.69826950  1
  C  8  1  0.34222150  0.63748050  0.74966100  1
  C  9  1  0.32112550  0.60020750  0.77582800  1
  C  10  1  0.12140400  0.48449600  0.74539200  1
  C  11  1  0.05779050  0.43529500  0.70640350  1
  C  12  1  0.04255900  0.37345500  0.67129700  1
  C  13  1  0.09337700  0.36255200  0.67678200  1
  C  14  1  0.15717950  0.41221300  0.71481450  1
  C  15  1  0.28928100  0.52871250  0.88059350  1
  C  16  1  0.31207300  0.55425550  0.94511550  1
  C  17  1  0.30972350  0.60705250  0.97716700  1
  C  18  1  0.28388550  0.63357800  0.94283250  1
  C  19  1  0.25989300  0.60721050  0.87800250  1
  C  32  1  0.97954950  0.32815350  0.62444400  1
  C  33  1  0.31663900  0.66898400  0.66809200  1
  C  34  1  0.33389950  0.63286100  0.04257150  1
  C  39  1  0.75512150  0.57541650  0.23019200  1
  C  40  1  0.66463950  0.58278750  0.22021100  1
  C  41  1  0.67152750  0.49593650  0.23436400  1
  C  42  1  0.71541450  0.48746400  0.27674650  1
  C  43  1  0.69473200  0.43964650  0.29190550  1
  C  44  1  0.62908450  0.39917350  0.26671100  1
  C  45  1  0.58470600  0.40621850  0.22336950  1
  C  46  1  0.60576550  0.45347250  0.20716800  1
  C  47  1  0.80543850  0.62279550  0.29115200  1
  C  48  1  0.86905500  0.64743600  0.30559300  1
  C  49  1  0.88428800  0.62757000  0.25899900  1
  C  50  1  0.83348500  0.58228300  0.19725000  1
  C  51  1  0.76968200  0.55646350  0.18310250  1
  C  52  1  0.63755950  0.59011850  0.16751100  1
  C  53  1  0.61474300  0.63183400  0.17028100  1
  C  54  1  0.61707750  0.66619800  0.22542450  1
  C  55  1  0.64294500  0.65769500  0.27777500  1
  C  56  1  0.66694400  0.61685900  0.27537700  1
  C  69  1  0.94729150  0.64371850  0.27669800  1
  C  70  1  0.61036450  0.35025250  0.28046100  1
  C  71  1  0.59285200  0.70739500  0.22706700  1
  C  76  1  0.27321700  0.75293250  0.50929650  1
  C  77  1  0.29058150  0.76284800  0.42877750  1
  C  78  1  0.18961650  0.74879450  0.42151800  1
  C  79  1  0.13873200  0.70639950  0.42297550  1
  C  80  1  0.07577100  0.69127050  0.38712150  1
  C  81  1  0.06054950  0.71653850  0.34673000  1
  C  82  1  0.11096350  0.75988050  0.34572600  1
  C  83  1  0.17440000  0.77603750  0.38298750  1
  C  84  1  0.25959350  0.69196500  0.49867050  1
  C  85  1  0.26982050  0.67755550  0.54786500  1
  C  86  1  0.29658900  0.72418450  0.60969750  1
  C  87  1  0.31303400  0.78592650  0.62061050  1
  C  88  1  0.30140550  0.80006100  0.57094650  1
  C  89  1  0.35062550  0.81552900  0.45438850  1
  C  90  1  0.38957500  0.81269150  0.42883050  1
  C  91  1  0.36876950  0.75750750  0.37604100  1
  C  92  1  0.30788450  0.70519050  0.34954400  1
  C  93  1  0.26945300  0.70765100  0.37592600  1
  C  106  1  0.29510900  0.70653650  0.65504750  1
  C  107  1  0.99789450  0.70280550  0.31421600  1
  C  108  1  0.40832650  0.75576800  0.35020550  1
  C  113  1  0.65357350  0.23480900  0.40780150  1
  C  114  1  0.63615150  0.13693000  0.40043950  1
  C  115  1  0.73719250  0.23064950  0.48726600  1
  C  116  1  0.78805950  0.28302400  0.49577050  1
  C  117  1  0.85103450  0.31012450  0.54357300  1
  C  118  1  0.86629450  0.28492300  0.58402150  1
  C  119  1  0.81589100  0.23349950  0.57696150  1
  C  120  1  0.75244200  0.20732200  0.52970600  1
  C  121  1  0.66715100  0.23771650  0.36041850  1
  C  122  1  0.65703000  0.27675200  0.33582100  1
  C  123  1  0.63032650  0.31188800  0.35569550  1
  C  124  1  0.61386200  0.30639400  0.40097500  1
  C  125  1  0.62545950  0.26835650  0.42675400  1
  C  126  1  0.57614650  0.10256450  0.39317100  1
  C  127  1  0.53715200  0.03802750  0.35146250  1
  C  128  1  0.55787200  0.00594450  0.31706150  1
  C  129  1  0.61873733  0.04029933  0.32551300  1
  C  130  1  0.65719150  0.10511100  0.36634050  1
  C  143  1  0.63193950  0.35876400  0.33955050  1
  C  144  1  0.92895800  0.31506850  0.63293250  1
  C  145  1  0.51827500  0.94052000  0.27587000  1
  C  297  1  0.50310600  0.83297900  0.25051500  1
  C  298  1  0.45689200  0.79817200  0.17780900  1
  C  299  1  0.54848700  0.80536650  0.26373350  1
  C  300  1  0.51064550  0.73264200  0.23720650  1
  C  303  1  0.46336850  0.70052450  0.16525100  1
  C  304  1  0.41604700  0.72516150  0.15011750  1
  C  309  1  0.37816750  0.71369550  0.18492500  1
  C  310  1  0.42349700  0.74578650  0.25791950  1
  C  313  1  0.46975450  0.71933650  0.26928900  1
  C  316  1  0.46328000  0.81776350  0.28262550  1
  C  358  1  0.17172650  0.11742950  0.39188500  1
  C  359  1  0.26220250  0.19791900  0.48977350  1
  C  360  1  0.25535450  0.20524850  0.39609000  1
  C  361  1  0.21149600  0.20379650  0.34375550  1
  C  362  1  0.23221450  0.23965200  0.31664850  1
  C  363  1  0.29787300  0.28006950  0.34183150  1
  C  364  1  0.34222150  0.28104250  0.39322300  1
  C  365  1  0.32112550  0.24376950  0.41939000  1
  C  366  1  0.12140400  0.12805800  0.38895400  1
  C  367  1  0.05779050  0.07885700  0.34996550  1
  C  368  1  0.04255900  0.01701700  0.31485900  1
  C  369  1  0.09337700  0.00611400  0.32034400  1
  C  370  1  0.15717950  0.05577500  0.35837650  1
  C  371  1  0.28928100  0.17227450  0.52415550  1
  C  372  1  0.31207300  0.19781750  0.58867750  1
  C  373  1  0.30972350  0.25061450  0.62072900  1
  C  374  1  0.28388550  0.27714000  0.58639450  1
  C  375  1  0.25989300  0.25077250  0.52156450  1
  C  388  1  0.97954950  0.97171550  0.26800600  1
  C  389  1  0.31663900  0.31254600  0.31165400  1
  C  390  1  0.33389950  0.27642300  0.68613350  1
  C  395  1  0.75512150  0.21897850  0.87375400  1
  C  396  1  0.66463950  0.22634950  0.86377300  1
  C  397  1  0.67152750  0.13949850  0.87792600  1
  C  398  1  0.71541450  0.13102600  0.92030850  1
  C  399  1  0.69473200  0.08320850  0.93546750  1
  C  400  1  0.62908450  0.04273550  0.91027300  1
  C  401  1  0.58470600  0.04978050  0.86693150  1
  C  402  1  0.60576550  0.09703450  0.85073000  1
  C  403  1  0.80543850  0.26635750  0.93471400  1
  C  404  1  0.86905500  0.29099800  0.94915500  1
  C  405  1  0.88428800  0.27113200  0.90256100  1
  C  406  1  0.83348500  0.22584500  0.84081200  1
  C  407  1  0.76968200  0.20002550  0.82666450  1
  C  408  1  0.63755950  0.23368050  0.81107300  1
  C  409  1  0.61474300  0.27539600  0.81384300  1
  C  410  1  0.61707750  0.30976000  0.86898650  1
  C  411  1  0.64294500  0.30125700  0.92133700  1
  C  412  1  0.66694400  0.26042100  0.91893900  1
  C  425  1  0.94729150  0.28728050  0.92026000  1
  C  426  1  0.61036450  0.99381450  0.92402300  1
  C  427  1  0.59285200  0.35095700  0.87062900  1
  C  432  1  0.27321700  0.39649450  0.15285850  1
  C  433  1  0.29058150  0.40641000  0.07233950  1
  C  434  1  0.18961650  0.39235650  0.06508000  1
  C  435  1  0.13873200  0.34996150  0.06653750  1
  C  436  1  0.07577100  0.33483250  0.03068350  1
  C  437  1  0.06054950  0.36010050  0.99029200  1
  C  438  1  0.11096350  0.40344250  0.98928800  1
  C  439  1  0.17440000  0.41959950  0.02654950  1
  C  440  1  0.25959350  0.33552700  0.14223250  1
  C  441  1  0.26982050  0.32111750  0.19142700  1
  C  442  1  0.29658900  0.36774650  0.25325950  1
  C  443  1  0.31303400  0.42948850  0.26417250  1
  C  444  1  0.30140550  0.44362300  0.21450850  1
  C  445  1  0.35062550  0.45909100  0.09795050  1
  C  446  1  0.38957500  0.45625350  0.07239250  1
  C  447  1  0.36876950  0.40106950  0.01960300  1
  C  448  1  0.30788450  0.34875250  0.99310600  1
  C  449  1  0.26945300  0.35121300  0.01948800  1
  C  462  1  0.29510900  0.35009850  0.29860950  1
  C  463  1  0.99789450  0.34636750  0.95777800  1
  C  464  1  0.40832650  0.39932996  0.99376746  1
  C  469  1  0.65357350  0.87837100  0.05136350  1
  C  470  1  0.63615150  0.78049200  0.04400150  1
  C  471  1  0.73719250  0.87421150  0.13082800  1
  C  472  1  0.78805950  0.92658600  0.13933250  1
  C  473  1  0.85103450  0.95368650  0.18713500  1
  C  474  1  0.86629450  0.92848500  0.22758350  1
  C  475  1  0.81589100  0.87706150  0.22052350  1
  C  476  1  0.75244200  0.85088400  0.17326800  1
  C  477  1  0.66715100  0.88127850  0.00398050  1
  C  478  1  0.65703000  0.92031400  0.97938300  1
  C  479  1  0.63032650  0.95545000  0.99925750  1
  C  480  1  0.61386200  0.94995600  0.04453700  1
  C  481  1  0.62545950  0.91191850  0.07031600  1
  C  482  1  0.57614650  0.74612650  0.03673300  1
  C  483  1  0.53715200  0.68158950  0.99502450  1
  C  484  1  0.55787200  0.64950650  0.96062350  1
  C  485  1  0.61873733  0.68386133  0.96907500  1
  C  486  1  0.65719150  0.74867300  0.00990250  1
  C  499  1  0.63193950  0.00232600  0.98311250  1
  C  500  1  0.92895800  0.95863050  0.27649450  1
  C  501  1  0.51827500  0.58408196  0.91943196  1
  C  653  1  0.50310600  0.47654095  0.89407695  1
  C  654  1  0.45689200  0.44173395  0.82137095  1
  C  655  1  0.54848700  0.44892845  0.90729545  1
  C  656  1  0.51064550  0.37620400  0.88076850  1
  C  659  1  0.46336850  0.34408650  0.80881300  1
  C  660  1  0.41604700  0.36872350  0.79367950  1
  C  665  1  0.37816750  0.35725745  0.82848695  1
  C  666  1  0.42349700  0.38934845  0.90148145  1
  C  669  1  0.46975450  0.36289845  0.91285095  1
  C  672  1  0.46328000  0.46132545  0.92618745  1
  H  20  1  0.02261500  0.44595450  0.70132850  1
  H  21  1  0.13052200  0.52900400  0.76750500  1
  H  22  1  0.19285850  0.40374250  0.71554200  1
  H  23  1  0.08414900  0.31893400  0.65035100  1
  H  24  1  0.16354650  0.53187850  0.67979700  1
  H  25  1  0.19853300  0.59197400  0.63424400  1
  H  26  1  0.29116300  0.49030150  0.85840250  1
  H  27  1  0.33131100  0.53437700  0.96860100  1
  H  28  1  0.28071900  0.67129100  0.96439400  1
  H  29  1  0.24025100  0.62640800  0.85392000  1
  H  30  1  0.35443350  0.60148750  0.81255800  1
  H  31  1  0.39015650  0.66464050  0.76782400  1
  H  57  1  0.90422700  0.67759200  0.35142000  1
  H  58  1  0.79629250  0.63583450  0.32651000  1
  H  59  1  0.73400650  0.52150050  0.13894900  1
  H  60  1  0.84271900  0.56503250  0.16288850  1
  H  61  1  0.76335700  0.51501000  0.29630400  1
  H  62  1  0.72843450  0.43449100  0.32145350  1
  H  63  1  0.63566550  0.56605750  0.12721400  1
  H  64  1  0.59548050  0.63608800  0.13117550  1
  H  65  1  0.64607500  0.68237700  0.31864400  1
  H  66  1  0.68657400  0.61238800  0.31419500  1
  H  67  1  0.57243400  0.45689650  0.17516550  1
  H  68  1  0.53677650  0.37645350  0.20263200  1
  H  94  1  0.25418650  0.63173450  0.53724300  1
  H  95  1  0.23730700  0.65658850  0.45418150  1
  H  96  1  0.31060450  0.84421400  0.57941650  1
  H  97  1  0.33022850  0.82032200  0.66422450  1
  H  98  1  0.14668000  0.68677100  0.45129800  1
  H  99  1  0.04104000  0.66169400  0.39122400  1
  H  100  1  0.36689800  0.85583750  0.49280650  1
  H  101  1  0.43296000  0.85177600  0.44868900  1
  H  102  1  0.29168000  0.66429900  0.31181700  1
  H  103  1  0.22614450  0.66884600  0.35673550  1
  H  104  1  0.20985250  0.80803700  0.38168350  1
  H  105  1  0.10196800  0.78064000  0.31855000  1
  H  131  1  0.67273800  0.28178800  0.30569800  1
  H  132  1  0.68952000  0.21557500  0.34742600  1
  H  133  1  0.61625250  0.26764500  0.46170150  1
  H  134  1  0.59672450  0.33287400  0.41818450  1
  H  135  1  0.78008800  0.30342600  0.46822500  1
  H  136  1  0.88575200  0.34897750  0.54873750  1
  H  137  1  0.55993550  0.12477650  0.41723000  1
  H  138  1  0.49380050  0.01455100  0.34723650  1
  H  139  1  0.63485450  0.01867900  0.30081050  1
  H  140  1  0.70046400  0.12918000  0.37076800  1
  H  141  1  0.71700800  0.17055550  0.52626050  1
  H  142  1  0.82490850  0.21529350  0.60668900  1
  H  301  1  0.58122550  0.82756700  0.31412650  1
  H  302  1  0.57789200  0.81766050  0.24322450  1
  H  305  1  0.48925850  0.70876450  0.14067300  1
  H  306  1  0.43751350  0.65003200  0.14752450  1
  H  307  1  0.48507250  0.80875600  0.15561150  1
  H  308  1  0.42409950  0.81531450  0.16558300  1
  H  311  1  0.34878750  0.66375050  0.16774100  1
  H  312  1  0.34539250  0.73131650  0.17439700  1
  H  314  1  0.44159850  0.66892900  0.25161250  1
  H  315  1  0.50252700  0.73984600  0.31921500  1
  H  317  1  0.43047150  0.83543450  0.27444700  1
  H  318  1  0.49605700  0.84234850  0.33310950  1
  H  323  1  0.58619950  0.92032050  0.30694900  1
  H  324  1  0.34040400  0.71917750  0.26208850  1
  H  325  1  0.38520900  0.72101800  0.06283700  1
  H  326  1  0.54150600  0.67614600  0.26379400  1
  H  376  1  0.02261500  0.08951650  0.34489050  1
  H  377  1  0.13052200  0.17256600  0.41106700  1
  H  378  1  0.19285850  0.04730450  0.35910400  1
  H  379  1  0.08414900  0.96249600  0.29391300  1
  H  380  1  0.16354650  0.17544050  0.32335900  1
  H  381  1  0.19853300  0.23553600  0.27780600  1
  H  382  1  0.29116300  0.13386350  0.50196450  1
  H  383  1  0.33131100  0.17793900  0.61216300  1
  H  384  1  0.28071900  0.31485300  0.60795600  1
  H  385  1  0.24025100  0.26997000  0.49748200  1
  H  386  1  0.35443350  0.24504950  0.45612000  1
  H  387  1  0.39015650  0.30820250  0.41138600  1
  H  413  1  0.90422700  0.32115400  0.99498200  1
  H  414  1  0.79629250  0.27939650  0.97007200  1
  H  415  1  0.73400650  0.16506250  0.78251100  1
  H  416  1  0.84271900  0.20859450  0.80645050  1
  H  417  1  0.76335700  0.15857200  0.93986600  1
  H  418  1  0.72843450  0.07805300  0.96501550  1
  H  419  1  0.63566550  0.20961950  0.77077600  1
  H  420  1  0.59548050  0.27965000  0.77473750  1
  H  421  1  0.64607500  0.32593900  0.96220600  1
  H  422  1  0.68657400  0.25595000  0.95775700  1
  H  423  1  0.57243400  0.10045850  0.81872750  1
  H  424  1  0.53677650  0.02001550  0.84619400  1
  H  450  1  0.25418650  0.27529650  0.18080500  1
  H  451  1  0.23730700  0.30015050  0.09774350  1
  H  452  1  0.31060450  0.48777600  0.22297850  1
  H  453  1  0.33022850  0.46388400  0.30778650  1
  H  454  1  0.14668000  0.33033300  0.09486000  1
  H  455  1  0.04104000  0.30525600  0.03478600  1
  H  456  1  0.36689800  0.49939950  0.13636850  1
  H  457  1  0.43296000  0.49533800  0.09225100  1
  H  458  1  0.29168000  0.30786095  0.95537895  1
  H  459  1  0.22614450  0.31240800  0.00029750  1
  H  460  1  0.20985250  0.45159900  0.02524550  1
  H  461  1  0.10196800  0.42420200  0.96211200  1
  H  487  1  0.67273800  0.92535000  0.94926000  1
  H  488  1  0.68952000  0.85913700  0.99098800  1
  H  489  1  0.61625250  0.91120700  0.10526350  1
  H  490  1  0.59672450  0.97643600  0.06174650  1
  H  491  1  0.78008800  0.94698800  0.11178700  1
  H  492  1  0.88575200  0.99253950  0.19229950  1
  H  493  1  0.55993550  0.76833850  0.06079200  1
  H  494  1  0.49380050  0.65811300  0.99079850  1
  H  495  1  0.63485450  0.66224095  0.94437245  1
  H  496  1  0.70046400  0.77274200  0.01433000  1
  H  497  1  0.71700800  0.81411750  0.16982250  1
  H  498  1  0.82490850  0.85885550  0.25025100  1
  H  657  1  0.58122550  0.47112895  0.95768845  1
  H  658  1  0.57789200  0.46122250  0.88678650  1
  H  661  1  0.48925850  0.35232650  0.78423500  1
  H  662  1  0.43751350  0.29359400  0.79108650  1
  H  663  1  0.48507250  0.45231800  0.79917350  1
  H  664  1  0.42409950  0.45887645  0.80914495  1
  H  667  1  0.34878750  0.30731250  0.81130300  1
  H  668  1  0.34539250  0.37487845  0.81795895  1
  H  670  1  0.44159850  0.31249100  0.89517450  1
  H  671  1  0.50252700  0.38340795  0.96277695  1
  H  673  1  0.43047150  0.47899645  0.91800895  1
  H  674  1  0.49605700  0.48591045  0.97667145  1
  H  679  1  0.58619950  0.56388245  0.95051095  1
  H  680  1  0.34040400  0.36273945  0.90565045  1
  H  681  1  0.38520900  0.36458000  0.70639900  1
  H  682  1  0.54150600  0.31970800  0.90735600  1
  N  1  1  0.23583100  0.52412300  0.78035100  1
  N  38  1  0.69101750  0.54330050  0.21632800  1
  N  75  1  0.25499500  0.76678300  0.45904200  1
  N  112  1  0.67179550  0.20280450  0.43991100  1
  N  319  1  0.38556450  0.73396850  0.28755900  1
  N  320  1  0.54097300  0.90057100  0.27672400  1
  N  321  1  0.55207300  0.70648800  0.24894900  1
  N  322  1  0.37465400  0.69551500  0.08253600  1
  N  357  1  0.23583100  0.16768500  0.42391300  1
  N  394  1  0.69101750  0.18686250  0.85989000  1
  N  431  1  0.25499500  0.41034500  0.10260400  1
  N  468  1  0.67179550  0.84636650  0.08347300  1
  N  675  1  0.38556450  0.37753045  0.93112095  1
  N  676  1  0.54097300  0.54413295  0.92028595  1
  N  677  1  0.55207300  0.35005000  0.89251100  1
  N  678  1  0.37465400  0.33907700  0.72609800  1
  O  35  1  0.32213400  0.59144700  0.06437100  1
  O  36  1  0.34701500  0.65479300  0.64571700  1
  O  37  1  0.97061500  0.30620650  0.57130050  1
  O  72  1  0.60466450  0.74106800  0.19752650  1
  O  73  1  0.57983850  0.29746050  0.23590900  1
  O  74  1  0.95623050  0.59951350  0.26355700  1
  O  109  1  0.47154350  0.78541550  0.39160500  1
  O  110  1  0.98970150  0.74737150  0.32842600  1
  O  111  1  0.26397100  0.71961600  0.67704700  1
  O  146  1  0.45504850  0.91868350  0.24233300  1
  O  147  1  0.93717300  0.33741250  0.68570050  1
  O  148  1  0.66312600  0.41191150  0.38376650  1
  O  391  1  0.32213400  0.23500900  0.70793300  1
  O  392  1  0.34701500  0.29835500  0.28927900  1
  O  393  1  0.97061500  0.94976850  0.21486250  1
  O  428  1  0.60466450  0.38463000  0.84108850  1
  O  429  1  0.57983850  0.94102250  0.87947100  1
  O  430  1  0.95623050  0.24307550  0.90711900  1
  O  465  1  0.47154350  0.42897746  0.03516696  1
  O  466  1  0.98970150  0.39093350  0.97198800  1
  O  467  1  0.26397100  0.36317800  0.32060900  1
  O  502  1  0.45504850  0.56224546  0.88589496  1
  O  503  1  0.93717300  0.98097450  0.32926250  1
  O  504  1  0.66312600  0.05547350  0.02732850  1
