# generated using pymatgen
data_H21(C8N)4
_symmetry_space_group_name_H-M   'P 1'
_cell_length_a   21.88590000
_cell_length_b   21.88590000
_cell_length_c   46.86000000
_cell_angle_alpha   90.87870000
_cell_angle_beta   91.87020000
_cell_angle_gamma   90.00000000
_symmetry_Int_Tables_number   1
_chemical_formula_structural   H21(C8N)4
_chemical_formula_sum   'H84 C128 N16'
_cell_volume   22430.99696242
_cell_formula_units_Z   4
loop_
 _symmetry_equiv_pos_site_id
 _symmetry_equiv_pos_as_xyz
  1  'x, y, z'
loop_
 _atom_site_type_symbol
 _atom_site_label
 _atom_site_symmetry_multiplicity
 _atom_site_fract_x
 _atom_site_fract_y
 _atom_site_fract_z
 _atom_site_occupancy
  C  1  1  0.98656000  0.05288900  0.21784300  1
  C  2  1  0.92226800  0.04332000  0.21432400  1
  C  3  1  0.87827200  0.08932400  0.21890500  1
  C  4  1  0.89774900  0.15099200  0.22241300  1
  C  5  1  0.96204500  0.16294100  0.22186900  1
  C  6  1  0.00485900  0.11478200  0.21968800  1
  C  9  1  0.02942700  0.00325800  0.22016500  1
  C  10  1  0.00727900  0.94372300  0.22454000  1
  C  11  1  0.04355500  0.89074500  0.22372200  1
  C  12  1  0.10794200  0.89579400  0.22174900  1
  C  13  1  0.13329800  0.95578700  0.21926600  1
  C  14  1  0.09425500  0.00790800  0.21903900  1
  C  23  1  0.19470500  0.96302600  0.21166800  1
  C  24  1  0.98556000  0.22188100  0.22654500  1
  C  25  1  0.81664800  0.07067700  0.21883000  1
  C  26  1  0.01369900  0.83416500  0.22513800  1
  C  31  1  0.95245750  0.04015300  0.72157525  1
  C  32  1  0.96097650  0.97617500  0.71683175  1
  C  33  1  0.91260750  0.93343850  0.71719350  1
  C  34  1  0.85129350  0.95388600  0.71900100  1
  C  35  1  0.84163900  0.01806750  0.72297850  1
  C  36  1  0.89137150  0.05944200  0.72483350  1
  C  39  1  0.00322950  0.08315550  0.72438500  1
  C  40  1  0.06240600  0.06098850  0.73093275  1
  C  41  1  0.11455450  0.09755000  0.72853900  1
  C  42  1  0.11056050  0.16181650  0.72520675  1
  C  43  1  0.05053650  0.18748550  0.72120025  1
  C  44  1  0.99892100  0.14727800  0.71974450  1
  C  53  1  0.04359800  0.24863350  0.71302200  1
  C  54  1  0.78512550  0.04092550  0.72952800  1
  C  55  1  0.92602400  0.87506150  0.71772500  1
  C  56  1  0.16408250  0.06620950  0.72505025  1
  C  61  1  0.48239200  0.01533400  0.06990850  1
  C  62  1  0.38839200  0.02775200  0.16518000  1
  C  63  1  0.61691500  0.02245100  0.15806800  1
  C  64  1  0.38716100  0.04985200  0.19397600  1
  C  65  1  0.33300800  0.05022000  0.20963100  1
  C  66  1  0.27937600  0.02277300  0.19793700  1
  C  67  1  0.27967800  0.00081500  0.16943075  1
  C  68  1  0.33238500  0.00403100  0.15342200  1
  C  69  1  0.42917500  0.99005850  0.05601050  1
  C  70  1  0.42387600  0.98393500  0.02606450  1
  C  71  1  0.47181600  0.00301600  0.00896725  1
  C  72  1  0.52481800  0.02884100  0.02217450  1
  C  73  1  0.52950000  0.03561700  0.05209050  1
  C  74  1  0.66935700  0.03356900  0.14154700  1
  C  75  1  0.72882400  0.03725500  0.15362800  1
  C  76  1  0.73806800  0.03589800  0.18339400  1
  C  77  1  0.68768400  0.02545300  0.20065900  1
  C  78  1  0.62886200  0.01693900  0.18806900  1
  C  90  1  0.55637800  0.02036700  0.14510750  1
  C  91  1  0.54680300  0.01411900  0.11499800  1
  C  92  1  0.48903500  0.01887300  0.10073975  1
  C  93  1  0.43811000  0.02619200  0.11824150  1
  C  94  1  0.44225900  0.02661700  0.14857400  1
  C  95  1  0.50225700  0.02525600  0.16110200  1
  C  103  1  0.00221300  0.54605700  0.57119500  1
  C  104  1  0.99407900  0.44383700  0.66534100  1
  C  105  1  0.00881100  0.67420450  0.66038400  1
  C  106  1  0.97636000  0.44075600  0.69431000  1
  C  107  1  0.97414650  0.38482600  0.70894600  1
  C  108  1  0.98822550  0.32955500  0.69477850  1
  C  109  1  0.00660450  0.33161400  0.66623600  1
  C  110  1  0.01184300  0.38759000  0.65240025  1
  C  111  1  0.02167600  0.49192400  0.55691800  1
  C  112  1  0.02027400  0.48673900  0.52691100  1
  C  113  1  0.00148900  0.53646600  0.51003300  1
  C  114  1  0.98267200  0.59093500  0.52373200  1
  C  115  1  0.98243600  0.59523150  0.55371100  1
  C  116  1  0.99132000  0.72778700  0.64523400  1
  C  117  1  0.00385900  0.78684650  0.65626400  1
  C  118  1  0.03234200  0.79410600  0.68345600  1
  C  119  1  0.04293600  0.74238200  0.70040400  1
  C  120  1  0.03178050  0.68341050  0.68890300  1
  C  132  1  0.00513500  0.61405050  0.64687200  1
  C  133  1  0.00976900  0.60725650  0.61681300  1
  C  134  1  0.00155800  0.55078000  0.60202800  1
  C  135  1  0.99211200  0.49894600  0.61900900  1
  C  136  1  0.99575500  0.50025550  0.64935100  1
  C  137  1  0.00026000  0.55912700  0.66250500  1
  C  145  1  0.46886150  0.01043700  0.87532300  1
  C  146  1  0.36526000  0.97919950  0.77985700  1
  C  147  1  0.58886350  0.01986950  0.78728900  1
  C  148  1  0.36745950  0.95219500  0.75208750  1
  C  149  1  0.31753700  0.95559250  0.73258425  1
  C  150  1  0.26480400  0.98712600  0.74057300  1
  C  151  1  0.25823200  0.00635900  0.76920900  1
  C  152  1  0.30832450  0.00296600  0.78857075  1
  C  153  1  0.41569400  0.03060700  0.88932800  1
  C  154  1  0.41500450  0.03690600  0.91927800  1
  C  155  1  0.46767200  0.02317700  0.93606175  1
  C  156  1  0.52063900  0.00222200  0.92265400  1
  C  157  1  0.52082950  0.99520300  0.89277800  1
  C  158  1  0.64290500  0.00120350  0.80243050  1
  C  159  1  0.70038400  0.00339800  0.79011900  1
  C  160  1  0.70552200  0.02337100  0.76194300  1
  C  161  1  0.65236700  0.03856900  0.74575650  1
  C  162  1  0.59508550  0.03787400  0.75846850  1
  C  174  1  0.53042350  0.01536700  0.80046050  1
  C  175  1  0.52525850  0.02101000  0.83045600  1
  C  176  1  0.47086050  0.00729600  0.84464750  1
  C  177  1  0.41900550  0.99059300  0.82739900  1
  C  178  1  0.41982000  0.98936850  0.79716975  1
  C  179  1  0.47610250  0.00215350  0.78437025  1
  C  187  1  0.99010000  0.55246800  0.37522300  1
  C  188  1  0.97079000  0.64602100  0.27868500  1
  C  189  1  0.98766100  0.42176900  0.28780400  1
  C  190  1  0.95076000  0.64179400  0.24943900  1
  C  191  1  0.95092800  0.69230400  0.23142200  1
  C  192  1  0.97094700  0.74933500  0.24209300  1
  C  193  1  0.98802400  0.75572600  0.27142100  1
  C  194  1  0.98863100  0.70484500  0.28919800  1
  C  195  1  0.01114000  0.60677300  0.38937600  1
  C  196  1  0.01338000  0.61208700  0.41936400  1
  C  197  1  0.99675300  0.56240600  0.43624800  1
  C  198  1  0.97596200  0.50791700  0.42260100  1
  C  199  1  0.97185000  0.50354100  0.39266100  1
  C  200  1  0.96555300  0.37104100  0.30307000  1
  C  201  1  0.95855800  0.31327800  0.29012000  1
  C  202  1  0.97631000  0.30401200  0.26188600  1
  C  203  1  0.99933100  0.35280300  0.24622300  1
  C  204  1  0.00353000  0.41112900  0.25890300  1
  C  216  1  0.98893400  0.48108000  0.30075500  1
  C  217  1  0.99454400  0.48950500  0.33072900  1
  C  218  1  0.98745400  0.54690400  0.34450700  1
  C  219  1  0.97703600  0.59787600  0.32672800  1
  C  220  1  0.97597800  0.59370600  0.29643100  1
  C  221  1  0.98193400  0.53438600  0.28434400  1
  H  7  1  0.90560000  0.00083700  0.20922100  1
  H  16  1  0.11334600  0.04928400  0.21492900  1
  H  17  1  0.12603500  0.80382700  0.22570600  1
  H  18  1  0.18762100  0.84625400  0.22616300  1
  H  19  1  0.86777100  0.23987800  0.22018800  1
  H  20  1  0.81214800  0.19009400  0.21972300  1
  H  21  1  0.05019500  0.12531200  0.22242200  1
  H  22  1  0.96296400  0.93799700  0.22991300  1
  H  27  1  0.21511700  0.92604300  0.20234100  1
  H  28  1  0.02838900  0.23332700  0.22015000  1
  H  29  1  0.78574300  0.09363200  0.23094200  1
  H  30  1  0.96604800  0.83916400  0.23057700  1
  H  37  1  0.00364100  0.95939650  0.71316725  1
  H  46  1  0.95723350  0.16497450  0.71391300  1
  H  47  1  0.20343150  0.17661600  0.72913375  1
  H  48  1  0.16393900  0.23977700  0.72678675  1
  H  49  1  0.76128650  0.92633150  0.71572350  1
  H  50  1  0.80992700  0.86938850  0.71452200  1
  H  51  1  0.88276750  0.10424650  0.72991150  1
  H  52  1  0.06839950  0.01602650  0.73620975  1
  H  57  1  0.08062150  0.27016800  0.70668450  1
  H  58  1  0.76534900  0.07340200  0.71782550  1
  H  59  1  0.93413350  0.83375850  0.71879150  1
  H  60  1  0.19492750  0.03782750  0.72241325  1
  H  79  1  0.24094000  0.98250700  0.15987700  1
  H  80  1  0.32970900  0.98379900  0.13361500  1
  H  81  1  0.33464800  0.06472400  0.23053200  1
  H  82  1  0.56842200  0.05540800  0.06065300  1
  H  83  1  0.39410050  0.97350000  0.06754650  1
  H  84  1  0.38522000  0.96472100  0.01684250  1
  H  85  1  0.56062000  0.04196900  0.01011300  1
  H  86  1  0.66555600  0.04344400  0.12036400  1
  H  87  1  0.69377150  0.02236800  0.22234500  1
  H  88  1  0.59508300  0.00657000  0.20167200  1
  H  89  1  0.76420000  0.04834100  0.14083800  1
  H  96  1  0.39672100  0.03429300  0.10834750  1
  H  97  1  0.58279000  0.00283400  0.10273775  1
  H  98  1  0.50617400  0.02664200  0.18274375  1
  H  99  1  0.42540800  0.06801100  0.20389400  1
  H  121  1  0.01999050  0.29246500  0.65589100  1
  H  122  1  0.03014500  0.38602700  0.63261350  1
  H  123  1  0.96325350  0.38469700  0.73003400  1
  H  124  1  0.96612300  0.63478850  0.56251650  1
  H  125  1  0.03764700  0.45522400  0.56816900  1
  H  126  1  0.03373400  0.44659600  0.51747100  1
  H  127  1  0.96771800  0.62739000  0.51197875  1
  H  128  1  0.97093000  0.72479800  0.62530900  1
  H  129  1  0.06161600  0.74705900  0.72066300  1
  H  130  1  0.04448500  0.64741700  0.70136500  1
  H  131  1  0.99386300  0.82413250  0.64398450  1
  H  138  1  0.98125800  0.45879800  0.60871000  1
  H  139  1  0.02058100  0.64462150  0.60520800  1
  H  140  1  0.00000550  0.56211800  0.68418200  1
  H  141  1  0.96451650  0.47925200  0.70539500  1
  H  163  1  0.21965400  0.02875100  0.77537275  1
  H  164  1  0.30420900  0.02439150  0.80798150  1
  H  165  1  0.32311250  0.94286650  0.71169175  1
  H  166  1  0.56002800  0.97925500  0.88395525  1
  H  167  1  0.37730500  0.04323700  0.87784100  1
  H  168  1  0.37634350  0.05263500  0.92870600  1
  H  169  1  0.55960500  0.99294200  0.93451400  1
  H  170  1  0.64125200  0.98341550  0.82244850  1
  H  171  1  0.65475050  0.04863200  0.72455100  1
  H  172  1  0.55807350  0.05032800  0.74603950  1
  H  173  1  0.73808550  0.98851200  0.80158400  1
  H  180  1  0.37971250  0.97844500  0.83709700  1
  H  181  1  0.56234500  0.03616300  0.84236550  1
  H  182  1  0.47760750  0.00135500  0.76265850  1
  H  183  1  0.40710650  0.93396900  0.74474700  1
  H  205  1  0.00174800  0.79718300  0.27981900  1
  H  206  1  0.00597500  0.71147100  0.30952500  1
  H  207  1  0.93662500  0.68707500  0.21046900  1
  H  208  1  0.95432600  0.46394600  0.38387500  1
  H  209  1  0.02594900  0.64323000  0.37807400  1
  H  210  1  0.02820500  0.65221400  0.42879200  1
  H  211  1  0.96248900  0.47149300  0.43433500  1
  H  212  1  0.94945600  0.37603000  0.32321300  1
  H  213  1  0.00944200  0.34722300  0.22515900  1
  H  214  1  0.02034300  0.44502700  0.24663700  1
  H  215  1  0.94078600  0.27813600  0.30146800  1
  H  222  1  0.96698800  0.63874000  0.33624700  1
  H  223  1  0.00668300  0.45280600  0.34286700  1
  H  224  1  0.98043400  0.52955600  0.26277900  1
  H  225  1  0.93346200  0.60224600  0.24063500  1
  N  8  1  0.85568800  0.19754700  0.22224700  1
  N  15  1  0.14353800  0.84421500  0.22346800  1
  N  38  1  0.80358300  0.91307400  0.71709700  1
  N  45  1  0.16361450  0.19554900  0.72593500  1
  N  100  1  0.79503400  0.04993100  0.19323600  1
  N  101  1  0.46831400  0.99274300  0.98115550  1
  N  102  1  0.22965100  0.01423400  0.21408700  1
  N  142  1  0.04886750  0.84605900  0.69237100  1
  N  143  1  0.00025850  0.52902200  0.48195550  1
  N  144  1  0.99220700  0.27606650  0.70803150  1
  N  184  1  0.75932100  0.01701600  0.75078800  1
  N  185  1  0.46902600  0.03398400  0.96379700  1
  N  186  1  0.22699100  0.00752000  0.71945550  1
  N  226  1  0.96576400  0.24845200  0.25050000  1
  N  227  1  0.99922100  0.56989700  0.46431400  1
  N  228  1  0.96898800  0.79583000  0.22360300  1
