# generated using pymatgen
data_H18C22N3
_symmetry_space_group_name_H-M   'P 1'
_cell_length_a   30.99930000
_cell_length_b   30.99930000
_cell_length_c   35.18190000
_cell_angle_alpha   90.00000000
_cell_angle_beta   90.00000000
_cell_angle_gamma   120.00000000
_symmetry_Int_Tables_number   1
_chemical_formula_structural   H18C22N3
_chemical_formula_sum   'H108 C132 N18'
_cell_volume   29278.82849196
_cell_formula_units_Z   6
loop_
 _symmetry_equiv_pos_site_id
 _symmetry_equiv_pos_as_xyz
  1  'x, y, z'
loop_
 _atom_site_type_symbol
 _atom_site_label
 _atom_site_symmetry_multiplicity
 _atom_site_fract_x
 _atom_site_fract_y
 _atom_site_fract_z
 _atom_site_occupancy
  H  7  1  0.49015400  0.49395200  0.04759800  1
  H  16  1  0.45088000  0.52343200  0.94412200  1
  H  17  1  0.31016700  0.54533700  0.01721900  1
  H  18  1  0.33451500  0.57257800  0.97626500  1
  H  19  1  0.54439500  0.37551100  0.97482000  1
  H  20  1  0.56945200  0.40345800  0.01542200  1
  H  21  1  0.42572200  0.42222000  0.94415900  1
  H  22  1  0.38805600  0.45310500  0.04830000  1
  H  33  1  0.91297000  0.43079400  0.38083200  1
  H  42  1  0.98202200  0.47015800  0.27748000  1
  H  43  1  0.14458400  0.61065400  0.35076500  1
  H  44  1  0.14751800  0.58631400  0.30982100  1
  H  45  1  0.74057400  0.37718900  0.30782000  1
  H  46  1  0.74328300  0.35194600  0.34838000  1
  H  47  1  0.90614600  0.49560700  0.27744600  1
  H  48  1  0.97440400  0.53295600  0.38163300  1
  H  59  1  0.42727100  0.00795300  0.71428800  1
  H  68  1  0.39760900  0.93941000  0.61074000  1
  H  69  1  0.37518500  0.77640400  0.68354400  1
  H  70  1  0.34791400  0.77368700  0.64264800  1
  H  71  1  0.54617300  0.18067200  0.64169600  1
  H  72  1  0.51825000  0.17779900  0.68230500  1
  H  73  1  0.49889000  0.01520500  0.61080300  1
  H  74  1  0.46792500  0.94644000  0.71482500  1
  H  85  1  0.55021900  0.18696100  0.79640200  1
  H  92  1  0.43455700  0.18471100  0.90339700  1
  H  93  1  0.42810500  0.23780200  0.94928600  1
  H  94  1  0.46043100  0.34630300  0.86486700  1
  H  95  1  0.39676000  0.10381000  0.77169800  1
  H  97  1  0.33754000  0.12052200  0.79957800  1
  H  98  1  0.36205600  0.18448100  0.80899100  1
  H  99  1  0.35360800  0.14270300  0.84655300  1
  H  100  1  0.53551000  0.23776900  0.83934900  1
  H  102  1  0.44180600  0.27256000  0.78612200  1
  H  103  1  0.50627400  0.30116100  0.79694300  1
  H  104  1  0.47496200  0.33531100  0.80085700  1
  H  107  1  0.51257300  0.10690700  0.75900200  1
  H  108  1  0.42092000  0.31310600  0.96170200  1
  H  115  1  0.54656000  0.37127600  0.12964600  1
  H  122  1  0.66011500  0.48715200  0.23654700  1
  H  123  1  0.71979300  0.49373500  0.28236600  1
  H  124  1  0.79581000  0.46131200  0.19787700  1
  H  125  1  0.61669600  0.52470900  0.10488000  1
  H  127  1  0.69263900  0.58400500  0.13269800  1
  H  128  1  0.73214400  0.55955300  0.14208700  1
  H  129  1  0.69883700  0.56799500  0.17967100  1
  H  130  1  0.61214900  0.38608700  0.17255100  1
  H  132  1  0.74045600  0.47973700  0.11918000  1
  H  133  1  0.70466700  0.41528900  0.13008300  1
  H  134  1  0.77014000  0.44666000  0.13390100  1
  H  137  1  0.50404800  0.40880900  0.09224300  1
  H  138  1  0.80248000  0.50111500  0.29461400  1
  H  145  1  0.73342400  0.37458000  0.46280000  1
  H  152  1  0.73630600  0.26134900  0.56983000  1
  H  153  1  0.68336700  0.20170800  0.61573400  1
  H  154  1  0.57471000  0.12552500  0.53142100  1
  H  155  1  0.81667000  0.30444500  0.43783600  1
  H  157  1  0.80027400  0.22865900  0.46578500  1
  H  158  1  0.73637700  0.18915600  0.47538600  1
  H  159  1  0.77832300  0.22261700  0.51282600  1
  H  160  1  0.68296800  0.30917600  0.50592700  1
  H  162  1  0.64824000  0.18081800  0.45260200  1
  H  163  1  0.61956100  0.21657300  0.46356200  1
  H  164  1  0.58552300  0.15110400  0.46743000  1
  H  167  1  0.81289400  0.41690900  0.42492300  1
  H  168  1  0.60812300  0.11894800  0.62807000  1
  H  175  1  0.34068900  0.77174400  0.79770400  1
  H  182  1  0.45052800  0.76617700  0.90625200  1
  H  183  1  0.45323800  0.71082200  0.95196500  1
  H  184  1  0.41817100  0.60262800  0.86676200  1
  H  185  1  0.49467600  0.84805900  0.77431600  1
  H  187  1  0.55067600  0.82753400  0.80320100  1
  H  188  1  0.52299700  0.76318700  0.81254000  1
  H  189  1  0.53296500  0.80550500  0.85005200  1
  H  190  1  0.35123800  0.71861900  0.84111400  1
  H  192  1  0.44144800  0.67823600  0.78855200  1
  H  193  1  0.37703200  0.65215200  0.79864200  1
  H  194  1  0.40561400  0.61544100  0.80272800  1
  H  197  1  0.38298700  0.85219700  0.76023100  1
  H  198  1  0.45587100  0.63354900  0.96449500  1
  H  205  1  0.34053200  0.57991600  0.13124900  1
  H  212  1  0.22502500  0.47036500  0.23983600  1
  H  213  1  0.16689300  0.46766500  0.28548200  1
  H  214  1  0.09382200  0.50260600  0.20015100  1
  H  215  1  0.26281400  0.42586600  0.10810600  1
  H  217  1  0.18623100  0.36997500  0.13697100  1
  H  218  1  0.14958500  0.39771300  0.14617700  1
  H  219  1  0.18187400  0.38781000  0.18377000  1
  H  220  1  0.27680700  0.56952200  0.17456100  1
  H  222  1  0.14624100  0.47926500  0.12203700  1
  H  223  1  0.18457300  0.54369700  0.13207900  1
  H  224  1  0.11927800  0.51512500  0.13613200  1
  H  227  1  0.37871400  0.53730100  0.09408500  1
  H  228  1  0.08679000  0.46476500  0.29782000  1
  H  235  1  0.14859000  0.58071800  0.46467000  1
  H  242  1  0.15477400  0.69659000  0.57301600  1
  H  243  1  0.21025500  0.75489800  0.61854800  1
  H  244  1  0.31810500  0.82774900  0.53307500  1
  H  245  1  0.07211800  0.65827500  0.44147700  1
  H  247  1  0.09287900  0.73497300  0.47017000  1
  H  248  1  0.15729100  0.77168700  0.47924600  1
  H  249  1  0.11523000  0.73952700  0.51694200  1
  H  250  1  0.20207200  0.64464500  0.50780300  1
  H  252  1  0.24221500  0.77501700  0.45505800  1
  H  253  1  0.26838700  0.73676600  0.46517900  1
  H  254  1  0.30506800  0.80208100  0.46909900  1
  H  257  1  0.06742200  0.54230800  0.42777100  1
  H  258  1  0.28745700  0.83514300  0.63069900  1
  C  1  1  0.45378500  0.46190700  0.99563000  1
  C  2  1  0.48732800  0.47080800  0.02574600  1
  C  3  1  0.51775800  0.44892500  0.02597600  1
  C  4  1  0.51522200  0.41728200  0.99575200  1
  C  5  1  0.48029200  0.40719800  0.96604100  1
  C  6  1  0.45073900  0.43006900  0.96577600  1
  C  9  1  0.42320100  0.48400700  0.99573400  1
  C  10  1  0.39055500  0.47596800  0.02633700  1
  C  11  1  0.36078100  0.49858100  0.02701900  1
  C  12  1  0.36317700  0.53017200  0.99680500  1
  C  13  1  0.39733900  0.53949600  0.96665100  1
  C  14  1  0.42612800  0.51581700  0.96590000  1
  C  27  1  0.91753100  0.46732200  0.32889600  1
  C  28  1  0.89274800  0.43374100  0.35896300  1
  C  29  1  0.84042600  0.40341800  0.35910200  1
  C  30  1  0.81144900  0.40612500  0.32885100  1
  C  31  1  0.83643700  0.44110300  0.29919900  1
  C  32  1  0.88887600  0.47051500  0.29900000  1
  C  35  1  0.97022300  0.49781000  0.32908600  1
  C  36  1  0.99479700  0.53041500  0.35971600  1
  C  37  1  0.04718900  0.56015500  0.36044600  1
  C  38  1  0.07641900  0.55774600  0.33026600  1
  C  39  1  0.05160900  0.52361200  0.30009100  1
  C  40  1  0.99914000  0.49487100  0.29928400  1
  C  53  1  0.45926700  0.00361200  0.66230100  1
  C  54  1  0.45046700  0.02826900  0.69246100  1
  C  55  1  0.47245400  0.08059200  0.69272800  1
  C  56  1  0.50413400  0.10969400  0.66251900  1
  C  57  1  0.51412400  0.08483000  0.63277100  1
  C  58  1  0.49113400  0.03239500  0.63245900  1
  C  61  1  0.43702100  0.95091500  0.66233200  1
  C  62  1  0.44500800  0.92617100  0.69285900  1
  C  63  1  0.42229000  0.87377300  0.69344200  1
  C  64  1  0.39063400  0.84470600  0.66321300  1
  C  65  1  0.38137700  0.86968400  0.63312900  1
  C  66  1  0.40513700  0.92216000  0.63248700  1
  C  79  1  0.47462500  0.14064500  0.78002100  1
  C  80  1  0.42584500  0.13211200  0.78611900  1
  C  81  1  0.41635900  0.16190600  0.81147200  1
  C  82  1  0.45716500  0.20147500  0.83098900  1
  C  83  1  0.50577100  0.20952000  0.82543300  1
  C  84  1  0.51438000  0.17947200  0.80029700  1
  C  86  1  0.45119500  0.23367400  0.85644800  1
  C  87  1  0.43950600  0.21842100  0.89468100  1
  C  88  1  0.43554600  0.24963100  0.92164000  1
  C  89  1  0.44356400  0.29708100  0.91118100  1
  C  90  1  0.45463600  0.31199700  0.87273600  1
  C  91  1  0.45872500  0.28102400  0.84507600  1
  C  96  1  0.36446200  0.15169100  0.81683400  1
  C  101  1  0.47113500  0.29866000  0.80508600  1
  C  105  1  0.44259700  0.32827900  0.93898400  1
  C  106  1  0.48454100  0.11321100  0.75398200  1
  C  109  1  0.57574400  0.44684700  0.11323700  1
  C  110  1  0.61596200  0.49565100  0.11930800  1
  C  111  1  0.65528200  0.50519700  0.14463400  1
  C  112  1  0.65412000  0.46442800  0.16415200  1
  C  113  1  0.61359400  0.41579700  0.15862100  1
  C  114  1  0.57488800  0.40712900  0.13352000  1
  C  116  1  0.69235400  0.47046000  0.18956900  1
  C  117  1  0.68888300  0.48223500  0.22779600  1
  C  118  1  0.72412700  0.48627200  0.25471300  1
  C  119  1  0.76354500  0.47825300  0.24421000  1
  C  120  1  0.76731200  0.46711700  0.20577000  1
  C  121  1  0.73216400  0.46294100  0.17815400  1
  C  126  1  0.69694100  0.55711800  0.14995700  1
  C  131  1  0.73730700  0.45046200  0.13816400  1
  C  135  1  0.79578500  0.47928900  0.27196900  1
  C  136  1  0.53836500  0.43687600  0.08721500  1
  C  139  1  0.77977000  0.34539900  0.44626300  1
  C  140  1  0.78844100  0.30523700  0.45236000  1
  C  141  1  0.75884800  0.26601500  0.47781600  1
  C  142  1  0.71934300  0.26722300  0.49745700  1
  C  143  1  0.71118200  0.30771300  0.49192900  1
  C  144  1  0.74104700  0.34632400  0.46670300  1
  C  146  1  0.68723900  0.22903300  0.52293600  1
  C  147  1  0.70260400  0.23255600  0.56113800  1
  C  148  1  0.67148700  0.19733400  0.58810300  1
  C  149  1  0.62403300  0.15788900  0.57767500  1
  C  150  1  0.60902600  0.15404900  0.53925700  1
  C  151  1  0.63989600  0.18917300  0.51159500  1
  C  156  1  0.76917400  0.22439700  0.48313700  1
  C  161  1  0.62215200  0.18396300  0.47163700  1
  C  165  1  0.59292100  0.12564400  0.60547000  1
  C  166  1  0.80690100  0.38264300  0.42006500  1
  C  169  1  0.41694800  0.81486300  0.78199800  1
  C  170  1  0.46462200  0.82076300  0.78862700  1
  C  171  1  0.47164000  0.78958200  0.81428300  1
  C  172  1  0.42943400  0.75130300  0.83350600  1
  C  173  1  0.38196100  0.74595600  0.82745000  1
  C  174  1  0.37580400  0.77736500  0.80204400  1
  C  176  1  0.43283400  0.71756000  0.85895200  1
  C  177  1  0.44413100  0.73200600  0.89736100  1
  C  178  1  0.44585200  0.69943200  0.92422000  1
  C  179  1  0.43601400  0.65143100  0.91348500  1
  C  180  1  0.42527000  0.63730200  0.87486800  1
  C  181  1  0.42335600  0.66961700  0.84730900  1
  C  186  1  0.52244800  0.79700900  0.82023600  1
  C  191  1  0.41117900  0.65275600  0.80713400  1
  C  195  1  0.43528700  0.61919600  0.94114700  1
  C  196  1  0.40925600  0.84325000  0.75541400  1
  C  199  1  0.30736900  0.50361100  0.11568700  1
  C  200  1  0.26556900  0.45596300  0.12234900  1
  C  201  1  0.22734500  0.44903900  0.14794200  1
  C  202  1  0.23127600  0.49130900  0.16706600  1
  C  203  1  0.27342500  0.53875600  0.16097400  1
  C  204  1  0.31101800  0.54482200  0.13562900  1
  C  206  1  0.19412900  0.48797800  0.19247600  1
  C  207  1  0.19724800  0.47673500  0.23090500  1
  C  208  1  0.16290700  0.47500500  0.25772000  1
  C  209  1  0.12474900  0.48482100  0.24692800  1
  C  210  1  0.12141600  0.49555500  0.20830000  1
  C  211  1  0.15567500  0.49744500  0.18077700  1
  C  216  1  0.18393600  0.39825900  0.15393400  1
  C  221  1  0.15102000  0.50956400  0.14058000  1
  C  225  1  0.09314100  0.48547900  0.27453300  1
  C  226  1  0.34348000  0.51115200  0.08918500  1
  C  229  1  0.10538000  0.61379800  0.44910000  1
  C  230  1  0.09952800  0.65560700  0.45569100  1
  C  231  1  0.13090800  0.69394500  0.48117300  1
  C  232  1  0.16933700  0.69012200  0.50025700  1
  C  233  1  0.17465400  0.64797200  0.49421700  1
  C  234  1  0.14302900  0.61025300  0.46899700  1
  C  236  1  0.20319200  0.72735900  0.52559100  1
  C  237  1  0.18888400  0.72436400  0.56402600  1
  C  238  1  0.22152500  0.75881500  0.59077500  1
  C  239  1  0.26946700  0.79695300  0.57990300  1
  C  240  1  0.28347500  0.80017000  0.54127200  1
  C  241  1  0.25107900  0.76580400  0.51381800  1
  C  246  1  0.12352300  0.73735600  0.48710000  1
  C  251  1  0.26778600  0.77033000  0.47361300  1
  C  255  1  0.30176900  0.82865200  0.60744900  1
  C  256  1  0.07667000  0.57755300  0.42273100  1
  N  8  1  0.54509900  0.39659000  0.99553000  1
  N  15  1  0.33403100  0.55168600  0.99704000  1
  N  23  1  0.40423100  0.57209600  0.93954200  1
  N  24  1  0.33078500  0.49031900  0.05635500  1
  N  25  1  0.47417100  0.37527800  0.93859700  1
  N  26  1  0.54899200  0.45869600  0.05469500  1
  N  34  1  0.76086500  0.37635600  0.32854600  1
  N  41  1  0.12708400  0.58683600  0.33056200  1
  N  49  1  0.07734400  0.51673600  0.27299800  1
  N  50  1  0.06889700  0.59020300  0.38976300  1
  N  51  1  0.81074900  0.44734900  0.27173600  1
  N  52  1  0.81885600  0.37216300  0.38779300  1
  N  60  1  0.52494000  0.16027700  0.66233800  1
  N  67  1  0.36900600  0.79403400  0.66336400  1
  N  75  1  0.34875000  0.84407100  0.60601600  1
  N  76  1  0.43051400  0.85192900  0.72272300  1
  N  77  1  0.54600100  0.11060600  0.60530300  1
  N  78  1  0.46272500  0.10207000  0.72146200  1
