# generated using pymatgen
data_H11C13(N2O)2
_symmetry_space_group_name_H-M   'P 1'
_cell_length_a   16.87477500
_cell_length_b   16.87475000
_cell_length_c   30.55790000
_cell_angle_alpha   90.00000000
_cell_angle_beta   90.00000000
_cell_angle_gamma   119.99985298
_symmetry_Int_Tables_number   1
_chemical_formula_structural   H11C13(N2O)2
_chemical_formula_sum   'H132 C156 N48 O24'
_cell_volume   7535.81310084
_cell_formula_units_Z   12
loop_
 _symmetry_equiv_pos_site_id
 _symmetry_equiv_pos_as_xyz
  1  'x, y, z'
loop_
 _atom_site_type_symbol
 _atom_site_label
 _atom_site_symmetry_multiplicity
 _atom_site_fract_x
 _atom_site_fract_y
 _atom_site_fract_z
 _atom_site_occupancy
  C  1  1  0.99353450  0.28630850  0.53050700  1
  C  11  1  0.95356950  0.70839650  0.19718600  1
  C  19  1  0.91741900  0.76171100  0.21362000  1
  C  25  1  0.65966250  0.58026150  0.01678400  1
  C  26  1  0.63437450  0.49980750  0.04197500  1
  C  27  1  0.63343150  0.49830250  0.08825500  1
  C  28  1  0.65973050  0.58025350  0.11094600  1
  C  29  1  0.68596150  0.66220250  0.08826400  1
  C  30  1  0.68498750  0.66071250  0.04198500  1
  C  34  1  0.65956000  0.58024800  0.96869500  1
  C  35  1  0.62418250  0.49796950  0.94357100  1
  C  36  1  0.62561650  0.49658550  0.89731000  1
  C  37  1  0.65927700  0.58022200  0.87498500  1
  C  38  1  0.69310950  0.66387250  0.89731400  1
  C  39  1  0.69482800  0.66251500  0.94357200  1
  C  43  1  0.72438250  0.74757450  0.86991900  1
  C  46  1  0.59423900  0.41287400  0.86990800  1
  C  49  1  0.71658350  0.74876050  0.11314800  1
  C  52  1  0.60241950  0.41165650  0.11311900  1
  C  55  1  0.15958350  0.58039450  0.35019700  1
  C  56  1  0.10435050  0.60559850  0.37538800  1
  C  57  1  0.10379050  0.60654550  0.42166800  1
  C  58  1  0.15951150  0.58033550  0.44436200  1
  C  59  1  0.21525950  0.55414250  0.42167800  1
  C  60  1  0.21477050  0.55514550  0.37540200  1
  C  64  1  0.15962800  0.58043200  0.30211100  1
  C  65  1  0.11268850  0.61576850  0.27698800  1
  C  66  1  0.10978150  0.61423250  0.23072800  1
  C  67  1  0.15973150  0.58054350  0.20840400  1
  C  68  1  0.20961350  0.54677950  0.23073200  1
  C  69  1  0.20661400  0.54514700  0.27699200  1
  C  73  1  0.26201750  0.51549550  0.20332800  1
  C  76  1  0.05739750  0.64554150  0.20332500  1
  C  79  1  0.27106600  0.52336000  0.44656200  1
  C  82  1  0.04792850  0.63727750  0.44653900  1
  C  85  1  0.65941200  0.08027000  0.68348200  1
  C  86  1  0.73983800  0.13545400  0.70868900  1
  C  87  1  0.74130900  0.13596600  0.75496900  1
  C  88  1  0.65936250  0.08022350  0.77764500  1
  C  89  1  0.57743550  0.02450150  0.75494700  1
  C  90  1  0.57896400  0.02504600  0.70866800  1
  C  94  1  0.65943800  0.08030400  0.63539700  1
  C  95  1  0.74172550  0.12725650  0.61028000  1
  C  96  1  0.74311300  0.13025900  0.56402400  1
  C  97  1  0.65947250  0.08038450  0.54168900  1
  C  98  1  0.57582000  0.03045500  0.56400800  1
  C  99  1  0.57717500  0.03338900  0.61026700  1
  C  103  1  0.49212400  0.97807800  0.53660100  1
  C  106  1  0.82682250  0.18265350  0.53663000  1
  C  109  1  0.49082700  0.96867300  0.77981200  1
  C  112  1  0.82788550  0.19179750  0.77985500  1
  C  115  1  0.46879050  0.09346650  0.80895000  1
  C  117  1  0.47764500  0.15675700  0.88017900  1
  C  118  1  0.53136550  0.24619650  0.86377900  1
  C  120  1  0.52300950  0.18315250  0.79193600  1
  C  122  1  0.54686200  0.20169500  0.74824700  1
  C  130  1  0.86339450  0.77092350  0.14234200  1
  C  134  1  0.89925950  0.71708050  0.12529600  1
  C  135  1  0.89434350  0.69359250  0.08153000  1
  C  143  1  0.14627050  0.37651150  0.47567700  1
  C  145  1  0.08298950  0.32219450  0.54691900  1
  C  146  1  0.05657500  0.34088000  0.45864700  1
  C  148  1  0.03801550  0.34604350  0.41490000  1
  C  153  1  0.84998950  0.06703550  0.80897300  1
  C  155  1  0.84104000  0.00375500  0.88021400  1
  C  156  1  0.78750250  0.91430050  0.86379800  1
  C  158  1  0.79596800  0.97733700  0.79193800  1
  C  160  1  0.77222800  0.95877700  0.74819600  1
  C  168  1  0.45566450  0.38983950  0.14224400  1
  C  170  1  0.40098850  0.39831850  0.21347300  1
  C  171  1  0.36558150  0.45236950  0.19715000  1
  C  173  1  0.42043250  0.44432150  0.12530200  1
  C  175  1  0.42611550  0.46858950  0.08164400  1
  C  183  1  0.17268250  0.78412650  0.47566700  1
  C  185  1  0.23599350  0.83848650  0.54690200  1
  C  186  1  0.32543300  0.87430700  0.53048400  1
  C  188  1  0.26236700  0.81971700  0.45863400  1
  C  190  1  0.28088250  0.81445450  0.41493600  1
  C  721  1  0.99353450  0.28630850  0.03963600  1
  C  731  1  0.95356950  0.70839650  0.70631500  1
  C  739  1  0.91741900  0.76171100  0.72274900  1
  C  745  1  0.65966250  0.58026150  0.52591300  1
  C  746  1  0.63437450  0.49980750  0.55110400  1
  C  747  1  0.63343150  0.49830250  0.59738400  1
  C  748  1  0.65973050  0.58025350  0.62007500  1
  C  749  1  0.68596150  0.66220250  0.59739300  1
  C  750  1  0.68498750  0.66071250  0.55111400  1
  C  754  1  0.65956000  0.58024800  0.47782400  1
  C  755  1  0.62418250  0.49796950  0.45270000  1
  C  756  1  0.62561650  0.49658550  0.40643900  1
  C  757  1  0.65927700  0.58022200  0.38411400  1
  C  758  1  0.69310950  0.66387250  0.40644300  1
  C  759  1  0.69482800  0.66251500  0.45270100  1
  C  763  1  0.72438250  0.74757450  0.37904800  1
  C  766  1  0.59423900  0.41287400  0.37903700  1
  C  769  1  0.71658350  0.74876050  0.62227700  1
  C  772  1  0.60241950  0.41165650  0.62224800  1
  C  775  1  0.15958350  0.58039450  0.85932600  1
  C  776  1  0.10435050  0.60559850  0.88451700  1
  C  777  1  0.10379050  0.60654550  0.93079660  1
  C  778  1  0.15951150  0.58033550  0.95349060  1
  C  779  1  0.21525950  0.55414250  0.93080660  1
  C  780  1  0.21477050  0.55514550  0.88453100  1
  C  784  1  0.15962800  0.58043200  0.81124000  1
  C  785  1  0.11268850  0.61576850  0.78611700  1
  C  786  1  0.10978150  0.61423250  0.73985700  1
  C  787  1  0.15973150  0.58054350  0.71753300  1
  C  788  1  0.20961350  0.54677950  0.73986100  1
  C  789  1  0.20661400  0.54514700  0.78612100  1
  C  793  1  0.26201750  0.51549550  0.71245700  1
  C  796  1  0.05739750  0.64554150  0.71245400  1
  C  799  1  0.27106600  0.52336000  0.95569060  1
  C  802  1  0.04792850  0.63727750  0.95566760  1
  C  805  1  0.65941200  0.08027000  0.19261100  1
  C  806  1  0.73983800  0.13545400  0.21781800  1
  C  807  1  0.74130900  0.13596600  0.26409800  1
  C  808  1  0.65936250  0.08022350  0.28677400  1
  C  809  1  0.57743550  0.02450150  0.26407600  1
  C  810  1  0.57896400  0.02504600  0.21779700  1
  C  814  1  0.65943800  0.08030400  0.14452600  1
  C  815  1  0.74172550  0.12725650  0.11940900  1
  C  816  1  0.74311300  0.13025900  0.07315300  1
  C  817  1  0.65947250  0.08038450  0.05081800  1
  C  818  1  0.57582000  0.03045500  0.07313700  1
  C  819  1  0.57717500  0.03338900  0.11939600  1
  C  823  1  0.49212400  0.97807800  0.04573000  1
  C  826  1  0.82682250  0.18265350  0.04575900  1
  C  829  1  0.49082700  0.96867300  0.28894100  1
  C  832  1  0.82788550  0.19179750  0.28898400  1
  C  835  1  0.46879050  0.09346650  0.31807900  1
  C  837  1  0.47764500  0.15675700  0.38930800  1
  C  838  1  0.53136550  0.24619650  0.37290800  1
  C  840  1  0.52300950  0.18315250  0.30106500  1
  C  842  1  0.54686200  0.20169500  0.25737600  1
  C  850  1  0.86339450  0.77092350  0.65147100  1
  C  854  1  0.89925950  0.71708050  0.63442500  1
  C  855  1  0.89434350  0.69359250  0.59065900  1
  C  863  1  0.14627050  0.37651150  0.98480560  1
  C  865  1  0.08298950  0.32219450  0.05604800  1
  C  866  1  0.05657500  0.34088000  0.96777560  1
  C  868  1  0.03801550  0.34604350  0.92402860  1
  C  873  1  0.84998950  0.06703550  0.31810200  1
  C  875  1  0.84104000  0.00375500  0.38934300  1
  C  876  1  0.78750250  0.91430050  0.37292700  1
  C  878  1  0.79596800  0.97733700  0.30106700  1
  C  880  1  0.77222800  0.95877700  0.25732500  1
  C  888  1  0.45566450  0.38983950  0.65137300  1
  C  890  1  0.40098850  0.39831850  0.72260200  1
  C  891  1  0.36558150  0.45236950  0.70627900  1
  C  893  1  0.42043250  0.44432150  0.63443100  1
  C  895  1  0.42611550  0.46858950  0.59077300  1
  C  903  1  0.17268250  0.78412650  0.98479560  1
  C  905  1  0.23599350  0.83848650  0.05603100  1
  C  906  1  0.32543300  0.87430700  0.03961300  1
  C  908  1  0.26236700  0.81971700  0.96776260  1
  C  910  1  0.28088250  0.81445450  0.92406460  1
  H  7  1  0.98170000  0.61137200  0.43039200  1
  H  9  1  0.95908200  0.39461800  0.41934400  1
  H  14  1  0.95092950  0.62536750  0.24385800  1
  H  20  1  0.92369950  0.77928850  0.24593900  1
  H  31  1  0.61659350  0.43926650  0.02713400  1
  H  32  1  0.70261300  0.72122600  0.02715100  1
  H  33  1  0.65967750  0.58023550  0.14445600  1
  H  40  1  0.59543250  0.43605350  0.95853900  1
  H  41  1  0.65917550  0.58021250  0.84141800  1
  H  42  1  0.72368650  0.72444150  0.95853900  1
  H  44  1  0.78029950  0.75371450  0.84935100  1
  H  45  1  0.66719950  0.73493650  0.84844300  1
  H  47  1  0.65128550  0.42558650  0.84831900  1
  H  48  1  0.53812450  0.40662350  0.84945700  1
  H  50  1  0.68654450  0.73411550  0.14594200  1
  H  51  1  0.69066600  0.78906400  0.09698900  1
  H  53  1  0.63230750  0.42615450  0.14594500  1
  H  54  1  0.62819250  0.37120150  0.09699200  1
  H  61  1  0.06150350  0.62326850  0.36054800  1
  H  62  1  0.25763400  0.53749200  0.36056700  1
  H  63  1  0.15948550  0.58031050  0.47786900  1
  H  70  1  0.07953100  0.64453100  0.29195700  1
  H  71  1  0.15976500  0.58058200  0.17483500  1
  H  72  1  0.23972700  0.51633400  0.29196000  1
  H  74  1  0.21221800  0.45955300  0.18277700  1
  H  75  1  0.30651500  0.57266600  0.18183800  1
  H  77  1  0.01302450  0.58845250  0.18176600  1
  H  78  1  0.10722650  0.70161150  0.18284600  1
  H  80  1  0.28641750  0.55330850  0.47937500  1
  H  81  1  0.33730550  0.54924650  0.43042800  1
  H  83  1  0.03255450  0.60730550  0.47934900  1
  H  91  1  0.80035100  0.17835200  0.69385900  1
  H  92  1  0.51845350  0.98219650  0.69382200  1
  H  93  1  0.65934050  0.08021250  0.81115400  1
  H  100  1  0.80363950  0.16035550  0.62525900  1
  H  101  1  0.65948250  0.08040950  0.50812000  1
  H  102  1  0.51525000  0.00026100  0.62522900  1
  H  104  1  0.48589050  0.02790650  0.51611650  1
  H  105  1  0.50482900  0.93369300  0.51504800  1
  H  107  1  0.81416900  0.22713800  0.51512000  1
  H  108  1  0.83299300  0.13284600  0.51609800  1
  H  110  1  0.50540450  0.95327750  0.81262000  1
  H  111  1  0.45047550  0.90245350  0.76366200  1
  H  113  1  0.81327050  0.20712950  0.81266900  1
  H  114  1  0.86822100  0.25804100  0.76372750  1
  H  121  1  0.45980100  0.14549100  0.91246900  1
  H  125  1  0.67416450  0.28167350  0.75245800  1
  H  127  1  0.61449200  0.32658900  0.91041600  1
  H  129  1  0.40745400  0.01729600  0.75457500  1
  H  138  1  0.84564100  0.56604800  0.08583300  1
  H  142  1  0.84858450  0.83228350  0.08796300  1
  H  147  1  0.09426500  0.31576600  0.57922500  1
  H  150  1  0.91322500  0.28895800  0.57721500  1
  H  152  1  0.22244900  0.39139000  0.42129500  1
  H  159  1  0.85873950  0.01503550  0.91252000  1
  H  163  1  0.64472600  0.87981800  0.75264800  1
  H  165  1  0.70461500  0.83402000  0.91053600  1
  H  167  1  0.91128550  0.14322950  0.75459350  1
  H  174  1  0.39425350  0.38026250  0.24573600  1
  H  178  1  0.47400950  0.59584550  0.08582300  1
  H  180  1  0.36833450  0.53531950  0.24389000  1
  H  182  1  0.47043500  0.32873000  0.08777300  1
  H  189  1  0.22473600  0.84497300  0.57920200  1
  H  193  1  0.36083500  0.76709000  0.41910200  1
  H  195  1  0.40581500  0.87162200  0.57714000  1
  H  197  1  0.09647750  0.76925950  0.42130100  1
  H  727  1  0.98170000  0.61137200  0.93952060  1
  H  729  1  0.95908200  0.39461800  0.92847260  1
  H  734  1  0.95092950  0.62536750  0.75298700  1
  H  740  1  0.92369950  0.77928850  0.75506800  1
  H  751  1  0.61659350  0.43926650  0.53626300  1
  H  752  1  0.70261300  0.72122600  0.53628000  1
  H  753  1  0.65967750  0.58023550  0.65358500  1
  H  760  1  0.59543250  0.43605350  0.46766800  1
  H  761  1  0.65917550  0.58021250  0.35054700  1
  H  762  1  0.72368650  0.72444150  0.46766800  1
  H  764  1  0.78029950  0.75371450  0.35848000  1
  H  765  1  0.66719950  0.73493650  0.35757200  1
  H  767  1  0.65128550  0.42558650  0.35744800  1
  H  768  1  0.53812450  0.40662350  0.35858600  1
  H  770  1  0.68654450  0.73411550  0.65507100  1
  H  771  1  0.69066600  0.78906400  0.60611800  1
  H  773  1  0.63230750  0.42615450  0.65507400  1
  H  774  1  0.62819250  0.37120150  0.60612100  1
  H  781  1  0.06150350  0.62326850  0.86967700  1
  H  782  1  0.25763400  0.53749200  0.86969600  1
  H  783  1  0.15948550  0.58031050  0.98699760  1
  H  790  1  0.07953100  0.64453100  0.80108600  1
  H  791  1  0.15976500  0.58058200  0.68396400  1
  H  792  1  0.23972700  0.51633400  0.80108900  1
  H  794  1  0.21221800  0.45955300  0.69190600  1
  H  795  1  0.30651500  0.57266600  0.69096700  1
  H  797  1  0.01302450  0.58845250  0.69089500  1
  H  798  1  0.10722650  0.70161150  0.69197500  1
  H  800  1  0.28641750  0.55330850  0.98850360  1
  H  801  1  0.33730550  0.54924650  0.93955660  1
  H  803  1  0.03255450  0.60730550  0.98847760  1
  H  811  1  0.80035100  0.17835200  0.20298800  1
  H  812  1  0.51845350  0.98219650  0.20295100  1
  H  813  1  0.65934050  0.08021250  0.32028300  1
  H  820  1  0.80363950  0.16035550  0.13438800  1
  H  821  1  0.65948250  0.08040950  0.01724900  1
  H  822  1  0.51525000  0.00026100  0.13435800  1
  H  824  1  0.48589050  0.02790650  0.02524550  1
  H  825  1  0.50482900  0.93369300  0.02417700  1
  H  827  1  0.81416900  0.22713800  0.02424900  1
  H  828  1  0.83299300  0.13284600  0.02522700  1
  H  830  1  0.50540450  0.95327750  0.32174900  1
  H  831  1  0.45047550  0.90245350  0.27279100  1
  H  833  1  0.81327050  0.20712950  0.32179800  1
  H  834  1  0.86822100  0.25804100  0.27285650  1
  H  841  1  0.45980100  0.14549100  0.42159800  1
  H  845  1  0.67416450  0.28167350  0.26158700  1
  H  847  1  0.61449200  0.32658900  0.41954500  1
  H  849  1  0.40745400  0.01729600  0.26370400  1
  H  858  1  0.84564100  0.56604800  0.59496200  1
  H  862  1  0.84858450  0.83228350  0.59709200  1
  H  867  1  0.09426500  0.31576600  0.08835400  1
  H  870  1  0.91322500  0.28895800  0.08634400  1
  H  872  1  0.22244900  0.39139000  0.93042360  1
  H  879  1  0.85873950  0.01503550  0.42164900  1
  H  883  1  0.64472600  0.87981800  0.26177700  1
  H  885  1  0.70461500  0.83402000  0.41966500  1
  H  887  1  0.91128550  0.14322950  0.26372250  1
  H  894  1  0.39425350  0.38026250  0.75486500  1
  H  898  1  0.47400950  0.59584550  0.59495200  1
  H  900  1  0.36833450  0.53531950  0.75301900  1
  H  902  1  0.47043500  0.32873000  0.59690200  1
  H  909  1  0.22473600  0.84497300  0.08833100  1
  H  913  1  0.36083500  0.76709000  0.92823060  1
  H  915  1  0.40581500  0.87162200  0.08626900  1
  H  917  1  0.09647750  0.76925950  0.93042960  1
  N  2  1  0.98529850  0.29768650  0.48693400  1
  N  12  1  0.94244000  0.68899300  0.15359000  1
  N  21  1  0.91657300  0.23994300  0.55870000  1
  N  116  1  0.44845400  0.08468200  0.85238000  1
  N  119  1  0.55112400  0.25443100  0.82022200  1
  N  126  1  0.56200400  0.32315900  0.89197400  1
  N  128  1  0.43298550  0.01171350  0.78415200  1
  N  131  1  0.87454950  0.79090650  0.18581400  1
  N  139  1  0.99995150  0.67782550  0.22538500  1
  N  141  1  0.81744250  0.80670150  0.11753000  1
  N  144  1  0.15506250  0.36510850  0.51912200  1
  N  151  1  0.22802150  0.42247450  0.45087800  1
  N  154  1  0.87018250  0.07583050  0.85241950  1
  N  157  1  0.76789850  0.90606150  0.82022400  1
  N  164  1  0.75692900  0.83733900  0.89199000  1
  N  166  1  0.88575650  0.14878550  0.78417600  1
  N  169  1  0.44386650  0.36917950  0.18564000  1
  N  172  1  0.37733000  0.47243300  0.15362600  1
  N  179  1  0.31928550  0.48298650  0.22537800  1
  N  181  1  0.50150150  0.35399850  0.11738900  1
  N  184  1  0.16390650  0.79558350  0.51910900  1
  N  187  1  0.33365850  0.86288050  0.48691500  1
  N  194  1  0.40240300  0.92065600  0.55867300  1
  N  196  1  0.09092350  0.73815650  0.45087800  1
  N  722  1  0.98529850  0.29768650  0.99606257  1
  N  732  1  0.94244000  0.68899300  0.66271900  1
  N  741  1  0.91657300  0.23994300  0.06782900  1
  N  836  1  0.44845400  0.08468200  0.36150900  1
  N  839  1  0.55112400  0.25443100  0.32935100  1
  N  846  1  0.56200400  0.32315900  0.40110300  1
  N  848  1  0.43298550  0.01171350  0.29328100  1
  N  851  1  0.87454950  0.79090650  0.69494300  1
  N  859  1  0.99995150  0.67782550  0.73451400  1
  N  861  1  0.81744250  0.80670150  0.62665900  1
  N  864  1  0.15506250  0.36510850  0.02825100  1
  N  871  1  0.22802150  0.42247450  0.96000660  1
  N  874  1  0.87018250  0.07583050  0.36154850  1
  N  877  1  0.76789850  0.90606150  0.32935300  1
  N  884  1  0.75692900  0.83733900  0.40111900  1
  N  886  1  0.88575650  0.14878550  0.29330500  1
  N  889  1  0.44386650  0.36917950  0.69476900  1
  N  892  1  0.37733000  0.47243300  0.66275500  1
  N  899  1  0.31928550  0.48298650  0.73450700  1
  N  901  1  0.50150150  0.35399850  0.62651800  1
  N  904  1  0.16390650  0.79558350  0.02823800  1
  N  907  1  0.33365850  0.86288050  0.99604357  1
  N  914  1  0.40240300  0.92065600  0.06780200  1
  N  916  1  0.09092350  0.73815650  0.96000660  1
  O  3  1  0.97755500  0.36279800  0.40357800  1
  O  13  1  0.94414200  0.75520200  0.05664600  1
  O  123  1  0.48575450  0.18966350  0.72296100  1
  O  124  1  0.62375450  0.26249950  0.73670400  1
  O  137  1  0.87761250  0.61641950  0.07014100  1
  O  149  1  0.04991500  0.29646000  0.38991200  1
  O  161  1  0.83370650  0.97069950  0.72319900  1
  O  162  1  0.69501300  0.89829900  0.73687900  1
  O  176  1  0.37515350  0.40712450  0.05693700  1
  O  177  1  0.44197100  0.54538000  0.07021000  1
  O  191  1  0.26887400  0.86359400  0.38968300  1
  O  192  1  0.34167550  0.79836450  0.40336800  1
  O  723  1  0.97755500  0.36279800  0.91270660  1
  O  733  1  0.94414200  0.75520200  0.56577500  1
  O  843  1  0.48575450  0.18966350  0.23209000  1
  O  844  1  0.62375450  0.26249950  0.24583300  1
  O  857  1  0.87761250  0.61641950  0.57927000  1
  O  869  1  0.04991500  0.29646000  0.89904100  1
  O  881  1  0.83370650  0.97069950  0.23232800  1
  O  882  1  0.69501300  0.89829900  0.24600800  1
  O  896  1  0.37515350  0.40712450  0.56606600  1
  O  897  1  0.44197100  0.54538000  0.57933900  1
  O  911  1  0.26887400  0.86359400  0.89881200  1
  O  912  1  0.34167550  0.79836450  0.91249660  1
