# generated using pymatgen
data_AgH8C11N2O
_symmetry_space_group_name_H-M   'P 1'
_cell_length_a   10.19286000
_cell_length_b   10.19286000
_cell_length_c   27.64801000
_cell_angle_alpha   90.00000000
_cell_angle_beta   90.00000000
_cell_angle_gamma   90.00000000
_symmetry_Int_Tables_number   1
_chemical_formula_structural   AgH8C11N2O
_chemical_formula_sum   'Ag8 H64 C88 N16 O8'
_cell_volume   2872.47327134
_cell_formula_units_Z   8
loop_
 _symmetry_equiv_pos_site_id
 _symmetry_equiv_pos_as_xyz
  1  'x, y, z'
loop_
 _atom_site_type_symbol
 _atom_site_label
 _atom_site_symmetry_multiplicity
 _atom_site_fract_x
 _atom_site_fract_y
 _atom_site_fract_z
 _atom_site_occupancy
  Ag  Ag0  1  0.80230000  0.61250000  0.51177000  1
  Ag  Ag1  1  0.19769000  0.38750000  0.01177000  1
  Ag  Ag2  1  0.88750000  0.30230000  0.26177000  1
  Ag  Ag3  1  0.11250000  0.69770000  0.76177000  1
  Ag  Ag4  1  0.69769000  0.11250000  0.23823000  1
  Ag  Ag5  1  0.30230000  0.88750000  0.73823000  1
  Ag  Ag6  1  0.61250000  0.80231000  0.48823000  1
  Ag  Ag7  1  0.38750000  0.19770000  0.98823000  1
  H  H8  1  0.03618000  0.74041000  0.66404000  1
  H  H9  1  0.67125000  0.95141000  0.65260000  1
  H  H10  1  0.69099000  0.00207000  0.74125000  1
  H  H11  1  0.87945000  0.90864000  0.78790000  1
  H  H12  1  0.08428000  0.93500000  0.61605000  1
  H  H13  1  0.26141000  0.96794000  0.55577000  1
  H  H14  1  0.23156000  0.87360000  0.47151000  1
  H  H15  1  0.03947000  0.72829000  0.45628000  1
  H  H16  1  0.96382000  0.25960000  0.16403000  1
  H  H17  1  0.32875000  0.04859000  0.15260000  1
  H  H18  1  0.30901000  0.99793000  0.24125000  1
  H  H19  1  0.12055000  0.09136000  0.28789000  1
  H  H20  1  0.91572000  0.06500000  0.11605000  1
  H  H21  1  0.73858000  0.03206000  0.05577000  1
  H  H22  1  0.76844000  0.12640000  0.97151000  1
  H  H23  1  0.96052000  0.27170000  0.95628000  1
  H  H24  1  0.75959000  0.53618000  0.41404000  1
  H  H25  1  0.54859000  0.17125000  0.40260000  1
  H  H26  1  0.49793000  0.19099000  0.49125000  1
  H  H27  1  0.59136000  0.37945000  0.53790000  1
  H  H28  1  0.56500000  0.58428000  0.36605000  1
  H  H29  1  0.53206000  0.76141000  0.30577000  1
  H  H30  1  0.62640000  0.73156000  0.22151000  1
  H  H31  1  0.77170000  0.53948000  0.20628000  1
  H  H32  1  0.24041000  0.46381000  0.91404000  1
  H  H33  1  0.45142000  0.82874000  0.90260000  1
  H  H34  1  0.50207000  0.80901000  0.99125000  1
  H  H35  1  0.40864000  0.62055000  0.03790000  1
  H  H36  1  0.43500000  0.41572000  0.86605000  1
  H  H37  1  0.46794000  0.23859000  0.80577000  1
  H  H38  1  0.37360000  0.26844000  0.72151000  1
  H  H39  1  0.22830000  0.46053000  0.70628000  1
  H  H40  1  0.46382000  0.24040000  0.08596000  1
  H  H41  1  0.82875000  0.45141000  0.09740000  1
  H  H42  1  0.80900000  0.50206000  0.00875000  1
  H  H43  1  0.62055000  0.40864000  0.96210000  1
  H  H44  1  0.41572000  0.43500000  0.13395000  1
  H  H45  1  0.23859000  0.46794000  0.19423000  1
  H  H46  1  0.26844000  0.37360000  0.27849000  1
  H  H47  1  0.46052000  0.22829000  0.29372000  1
  H  H48  1  0.53618000  0.75959000  0.58596000  1
  H  H49  1  0.17125000  0.54859000  0.59740000  1
  H  H50  1  0.19099000  0.49793000  0.50875000  1
  H  H51  1  0.37945000  0.59136000  0.46210000  1
  H  H52  1  0.58428000  0.56500000  0.63395000  1
  H  H53  1  0.76141000  0.53206000  0.69423000  1
  H  H54  1  0.73156000  0.62640000  0.77849000  1
  H  H55  1  0.53947000  0.77170000  0.79372000  1
  H  H56  1  0.74040000  0.03618000  0.33597000  1
  H  H57  1  0.95141000  0.67125000  0.34740000  1
  H  H58  1  0.00207000  0.69099000  0.25875000  1
  H  H59  1  0.90864000  0.87945000  0.21211000  1
  H  H60  1  0.93500000  0.08428000  0.38395000  1
  H  H61  1  0.96794000  0.26141000  0.44423000  1
  H  H62  1  0.87360000  0.23156000  0.52849000  1
  H  H63  1  0.72829000  0.03948000  0.54372000  1
  H  H64  1  0.25959000  0.96382000  0.83596000  1
  H  H65  1  0.04859000  0.32875000  0.84740000  1
  H  H66  1  0.99793000  0.30901000  0.75875000  1
  H  H67  1  0.09137000  0.12055000  0.71210000  1
  H  H68  1  0.06500000  0.91572000  0.88395000  1
  H  H69  1  0.03206000  0.73858000  0.94423000  1
  H  H70  1  0.12640000  0.76844000  0.02849000  1
  H  H71  1  0.27171000  0.96052000  0.04372000  1
  C  C72  1  0.95736000  0.79832000  0.67969000  1
  C  C73  1  0.85638000  0.84718000  0.65037000  1
  C  C74  1  0.75525000  0.91802000  0.67347000  1
  C  C75  1  0.76549000  0.94428000  0.72271000  1
  C  C76  1  0.86971000  0.89212000  0.74923000  1
  C  C77  1  0.85062000  0.80565000  0.59933000  1
  C  C78  1  0.96666000  0.81222000  0.56915000  1
  C  C79  1  0.07808000  0.88897000  0.58065000  1
  C  C80  1  0.17557000  0.90946000  0.54667000  1
  C  C81  1  0.15993000  0.85621000  0.49993000  1
  C  C82  1  0.05283000  0.77566000  0.49125000  1
  C  C83  1  0.04265000  0.20168000  0.17969000  1
  C  C84  1  0.14362000  0.15282000  0.15037000  1
  C  C85  1  0.24476000  0.08198000  0.17347000  1
  C  C86  1  0.23451000  0.05572000  0.22270000  1
  C  C87  1  0.13029000  0.10788000  0.24922000  1
  C  C88  1  0.14938000  0.19434000  0.09933000  1
  C  C89  1  0.03334000  0.18778000  0.06915000  1
  C  C90  1  0.92192000  0.11103000  0.08065000  1
  C  C91  1  0.82443000  0.09054000  0.04667000  1
  C  C92  1  0.84007000  0.14379000  0.99992000  1
  C  C93  1  0.94717000  0.22434000  0.99125000  1
  C  C94  1  0.70168000  0.45735000  0.42969000  1
  C  C95  1  0.65282000  0.35638000  0.40037000  1
  C  C96  1  0.58198000  0.25525000  0.42347000  1
  C  C97  1  0.55572000  0.26549000  0.47270000  1
  C  C98  1  0.60788000  0.36971000  0.49922000  1
  C  C99  1  0.69434000  0.35062000  0.34933000  1
  C  C100  1  0.68778000  0.46666000  0.31915000  1
  C  C101  1  0.61103000  0.57808000  0.33065000  1
  C  C102  1  0.59054000  0.67556000  0.29667000  1
  C  C103  1  0.64379000  0.65993000  0.24992000  1
  C  C104  1  0.72434000  0.55282000  0.24125000  1
  C  C105  1  0.29833000  0.54264000  0.92969000  1
  C  C106  1  0.34718000  0.64361000  0.90037000  1
  C  C107  1  0.41802000  0.74475000  0.92347000  1
  C  C108  1  0.44428000  0.73451000  0.97271000  1
  C  C109  1  0.39212000  0.63029000  0.99923000  1
  C  C110  1  0.30566000  0.64938000  0.84933000  1
  C  C111  1  0.31222000  0.53334000  0.81915000  1
  C  C112  1  0.38897000  0.42192000  0.83065000  1
  C  C113  1  0.40946000  0.32443000  0.79667000  1
  C  C114  1  0.35621000  0.34008000  0.74992000  1
  C  C115  1  0.27566000  0.44718000  0.74125000  1
  C  C116  1  0.54265000  0.29832000  0.07031000  1
  C  C117  1  0.64362000  0.34718000  0.09963000  1
  C  C118  1  0.74475000  0.41802000  0.07653000  1
  C  C119  1  0.73451000  0.44427000  0.02730000  1
  C  C120  1  0.63029000  0.39212000  0.00078000  1
  C  C121  1  0.64938000  0.30565000  0.15067000  1
  C  C122  1  0.53334000  0.31221000  0.18085000  1
  C  C123  1  0.42192000  0.38896000  0.16935000  1
  C  C124  1  0.32443000  0.40946000  0.20333000  1
  C  C125  1  0.34007000  0.35621000  0.25008000  1
  C  C126  1  0.44717000  0.27566000  0.25875000  1
  C  C127  1  0.45735000  0.70168000  0.57031000  1
  C  C128  1  0.35638000  0.65282000  0.59963000  1
  C  C129  1  0.25525000  0.58198000  0.57653000  1
  C  C130  1  0.26549000  0.55572000  0.52730000  1
  C  C131  1  0.36971000  0.60788000  0.50078000  1
  C  C132  1  0.35062000  0.69434000  0.65067000  1
  C  C133  1  0.46666000  0.68778000  0.68085000  1
  C  C134  1  0.57808000  0.61103000  0.66935000  1
  C  C135  1  0.67556000  0.59054000  0.70333000  1
  C  C136  1  0.65992000  0.64379000  0.75008000  1
  C  C137  1  0.55282000  0.72434000  0.75875000  1
  C  C138  1  0.79832000  0.95735000  0.32031000  1
  C  C139  1  0.84717000  0.85638000  0.34963000  1
  C  C140  1  0.91801000  0.75524000  0.32653000  1
  C  C141  1  0.94427000  0.76548000  0.27730000  1
  C  C142  1  0.89212000  0.86971000  0.25078000  1
  C  C143  1  0.80565000  0.85061000  0.40067000  1
  C  C144  1  0.81221000  0.96666000  0.43085000  1
  C  C145  1  0.88896000  0.07808000  0.41935000  1
  C  C146  1  0.90946000  0.17557000  0.45333000  1
  C  C147  1  0.85621000  0.15993000  0.50008000  1
  C  C148  1  0.77566000  0.05283000  0.50875000  1
  C  C149  1  0.20168000  0.04264000  0.82031000  1
  C  C150  1  0.15282000  0.14362000  0.84963000  1
  C  C151  1  0.08198000  0.24475000  0.82653000  1
  C  C152  1  0.05573000  0.23451000  0.77730000  1
  C  C153  1  0.10789000  0.13029000  0.75078000  1
  C  C154  1  0.19435000  0.14938000  0.90067000  1
  C  C155  1  0.18779000  0.03334000  0.93085000  1
  C  C156  1  0.11104000  0.92192000  0.91935000  1
  C  C157  1  0.09054000  0.82443000  0.95333000  1
  C  C158  1  0.14379000  0.84007000  0.00008000  1
  C  C159  1  0.22434000  0.94717000  0.00875000  1
  N  N160  1  0.96276000  0.81607000  0.72804000  1
  N  N161  1  0.96095000  0.74829000  0.52502000  1
  N  N162  1  0.03724000  0.18393000  0.22804000  1
  N  N163  1  0.03904000  0.25171000  0.02502000  1
  N  N164  1  0.68393000  0.46276000  0.47804000  1
  N  N165  1  0.75171000  0.46096000  0.27502000  1
  N  N166  1  0.31607000  0.53723000  0.97804000  1
  N  N167  1  0.24829000  0.53905000  0.77502000  1
  N  N168  1  0.53723000  0.31607000  0.02196000  1
  N  N169  1  0.53904000  0.24829000  0.22498000  1
  N  N170  1  0.46277000  0.68393000  0.52196000  1
  N  N171  1  0.46096000  0.75171000  0.72498000  1
  N  N172  1  0.81606000  0.96276000  0.27196000  1
  N  N173  1  0.74829000  0.96096000  0.47498000  1
  N  N174  1  0.18393000  0.03724000  0.77196000  1
  N  N175  1  0.25171000  0.03904000  0.97498000  1
  O  O176  1  0.74138000  0.76087000  0.58320000  1
  O  O177  1  0.25862000  0.23912000  0.08320000  1
  O  O178  1  0.73912000  0.24138000  0.33320000  1
  O  O179  1  0.26088000  0.75861000  0.83320000  1
  O  O180  1  0.75862000  0.26088000  0.16680000  1
  O  O181  1  0.24138000  0.73912000  0.66680000  1
  O  O182  1  0.76087000  0.74138000  0.41680000  1
  O  O183  1  0.23913000  0.25862000  0.91680000  1
