# generated using pymatgen
data_AgH6C4N3
_symmetry_space_group_name_H-M   'P 1'
_cell_length_a   11.77893000
_cell_length_b   11.99674000
_cell_length_c   12.31554211
_cell_angle_alpha   106.17935339
_cell_angle_beta   105.32579281
_cell_angle_gamma   115.27754000
_symmetry_Int_Tables_number   1
_chemical_formula_structural   AgH6C4N3
_chemical_formula_sum   'Ag8 H48 C32 N24'
_cell_volume   1356.16911446
_cell_formula_units_Z   8
loop_
 _symmetry_equiv_pos_site_id
 _symmetry_equiv_pos_as_xyz
  1  'x, y, z'
loop_
 _atom_site_type_symbol
 _atom_site_label
 _atom_site_symmetry_multiplicity
 _atom_site_fract_x
 _atom_site_fract_y
 _atom_site_fract_z
 _atom_site_occupancy
  Ag  Ag1  1  0.80113000  0.62910000  0.39316000  1.0
  Ag  Ag2  1  0.84726000  0.39978000  0.12595000  1.0
  Ag  Ag3  1  0.08958000  0.76417000  0.39340000  1.0
  Ag  Ag4  1  0.77655000  0.72609000  0.12354000  1.0
  Ag  Ag5  1  0.19888000  0.37090000  0.60685000  1.0
  Ag  Ag6  1  0.15274000  0.60021000  0.87405000  1.0
  Ag  Ag7  1  0.91042000  0.23582000  0.60660000  1.0
  Ag  Ag8  1  0.22345000  0.27390000  0.87646000  1.0
  H  H1  1  0.50696000  0.24367000  0.90502000  1.0
  H  H2  1  0.53394000  0.62537000  0.26192000  1.0
  H  H3  1  0.36376000  0.50334000  0.13720000  1.0
  H  H4  1  0.36162000  0.50566000  0.34044000  1.0
  H  H5  1  0.49878000  0.47482000  0.37154000  1.0
  H  H6  1  0.33105000  0.34473000  0.24473000  1.0
  H  H7  1  0.78211000  0.02346000  0.29632000  1.0
  H  H8  1  0.94880000  0.04006000  0.70945000  1.0
  H  H9  1  0.92355000  0.87487000  0.64639000  1.0
  H  H10  1  0.76626000  0.88059000  0.75282000  1.0
  H  H11  1  0.68667000  0.92509000  0.64336000  1.0
  H  H12  1  0.66753000  0.76119000  0.59012000  1.0
  H  H13  1  0.89731000  0.65971000  0.90242000  1.0
  H  H14  1  0.22546000  0.63613000  0.26169000  1.0
  H  H15  1  0.27181000  0.63369000  0.13582000  1.0
  H  H16  1  0.47415000  0.83320000  0.33761000  1.0
  H  H17  1  0.36727000  0.89429000  0.36899000  1.0
  H  H18  1  0.40877000  0.89831000  0.24124000  1.0
  H  H19  1  0.01677000  0.27609000  0.29737000  1.0
  H  H20  1  0.26064000  0.66945000  0.71011000  1.0
  H  H21  1  0.22288000  0.77153000  0.64601000  1.0
  H  H22  1  0.48469000  0.86984000  0.74956000  1.0
  H  H23  1  0.45509000  0.71625000  0.64064000  1.0
  H  H24  1  0.42125000  0.82673000  0.58641000  1.0
  H  H25  1  0.49304000  0.75633000  0.09498000  1.0
  H  H26  1  0.46606000  0.37462000  0.73808000  1.0
  H  H27  1  0.63624000  0.49665000  0.86280000  1.0
  H  H28  1  0.63838000  0.49434000  0.65956000  1.0
  H  H29  1  0.50122000  0.52517000  0.62846000  1.0
  H  H30  1  0.66896000  0.65526000  0.75527000  1.0
  H  H31  1  0.21789000  0.97653000  0.70368000  1.0
  H  H32  1  0.05121000  0.95993000  0.29055000  1.0
  H  H33  1  0.07645000  0.12512000  0.35361000  1.0
  H  H34  1  0.23375000  0.11941000  0.24719000  1.0
  H  H35  1  0.31335000  0.07491000  0.35665000  1.0
  H  H36  1  0.33247000  0.23880000  0.40988000  1.0
  H  H37  1  0.10269000  0.34029000  0.09758000  1.0
  H  H38  1  0.77455000  0.36387000  0.73832000  1.0
  H  H39  1  0.72820000  0.36631000  0.86419000  1.0
  H  H40  1  0.52585000  0.16679000  0.66239000  1.0
  H  H41  1  0.63273000  0.10570000  0.63101000  1.0
  H  H42  1  0.59123000  0.10168000  0.75876000  1.0
  H  H43  1  0.98323000  0.72391000  0.70263000  1.0
  H  H44  1  0.73936000  0.33054000  0.28989000  1.0
  H  H45  1  0.77712000  0.22846000  0.35399000  1.0
  H  H46  1  0.51532000  0.13017000  0.25045000  1.0
  H  H47  1  0.54491000  0.28374000  0.35936000  1.0
  H  H48  1  0.57875000  0.17326000  0.41359000  1.0
  C  C1  1  0.50932000  0.44614000  0.13794000  1.0
  C  C2  1  0.52906000  0.31756000  0.99445000  1.0
  C  C3  1  0.45303000  0.51462000  0.20757000  1.0
  C  C4  1  0.40832000  0.45640000  0.29604000  1.0
  C  C5  1  0.84281000  0.92809000  0.51034000  1.0
  C  C6  1  0.79852000  0.97266000  0.35349000  1.0
  C  C7  1  0.87303000  0.93265000  0.63728000  1.0
  C  C8  1  0.74042000  0.87105000  0.65692000  1.0
  C  C9  1  0.12660000  0.69137000  0.13661000  1.0
  C  C10  1  0.96427000  0.67584000  0.99235000  1.0
  C  C11  1  0.25190000  0.69224000  0.20617000  1.0
  C  C12  1  0.38318000  0.83786000  0.29340000  1.0
  C  C13  1  0.16805000  0.58302000  0.51060000  1.0
  C  C14  1  0.05669000  0.38322000  0.35454000  1.0
  C  C15  1  0.26405000  0.70440000  0.63680000  1.0
  C  C16  1  0.41515000  0.78405000  0.65432000  1.0
  C  C17  1  0.49069000  0.55386000  0.86207000  1.0
  C  C18  1  0.47094000  0.68243000  0.00555000  1.0
  C  C19  1  0.54697000  0.48537000  0.79243000  1.0
  C  C20  1  0.59168000  0.54359000  0.70396000  1.0
  C  C21  1  0.15719000  0.07190000  0.48966000  1.0
  C  C22  1  0.20148000  0.02733000  0.64651000  1.0
  C  C23  1  0.12697000  0.06735000  0.36272000  1.0
  C  C24  1  0.25958000  0.12894000  0.34308000  1.0
  C  C25  1  0.87340000  0.30862000  0.86339000  1.0
  C  C26  1  0.03573000  0.32415000  0.00765000  1.0
  C  C27  1  0.74810000  0.30775000  0.79383000  1.0
  C  C28  1  0.61682000  0.16213000  0.70660000  1.0
  C  C29  1  0.83195000  0.41697000  0.48940000  1.0
  C  C30  1  0.94331000  0.61677000  0.64546000  1.0
  C  C31  1  0.73595000  0.29559000  0.36320000  1.0
  C  C32  1  0.58485000  0.21594000  0.34568000  1.0
  N  N1  1  0.63999000  0.47508000  0.18863000  1.0
  N  N2  1  0.65290000  0.39189000  0.09604000  1.0
  N  N3  1  0.43600000  0.34715000  0.01610000  1.0
  N  N4  1  0.81666000  0.82357000  0.41016000  1.0
  N  N5  1  0.78818000  0.85208000  0.30879000  1.0
  N  N6  1  0.83184000  0.02418000  0.47834000  1.0
  N  N7  1  0.04666000  0.71399000  0.18786000  1.0
  N  N8  1  0.94183000  0.70428000  0.09477000  1.0
  N  N9  1  0.07853000  0.66751000  0.01392000  1.0
  N  N10  1  0.09210000  0.58728000  0.41118000  1.0
  N  N11  1  0.02025000  0.45860000  0.31034000  1.0
  N  N12  1  0.14869000  0.45582000  0.47865000  1.0
  N  N13  1  0.36001000  0.52491000  0.81137000  1.0
  N  N14  1  0.34710000  0.60810000  0.90396000  1.0
  N  N15  1  0.56401000  0.65285000  0.98390000  1.0
  N  N16  1  0.18335000  0.17644000  0.58985000  1.0
  N  N17  1  0.21183000  0.14792000  0.69122000  1.0
  N  N18  1  0.16817000  0.97582000  0.52167000  1.0
  N  N19  1  0.95336000  0.28601000  0.81215000  1.0
  N  N20  1  0.05817000  0.29571000  0.90523000  1.0
  N  N21  1  0.92147000  0.33248000  0.98608000  1.0
  N  N22  1  0.90791000  0.41273000  0.58883000  1.0
  N  N23  1  0.97976000  0.54140000  0.68967000  1.0
  N  N24  1  0.85132000  0.54418000  0.52136000  1.0
