# generated using pymatgen
data_Ag3H40C52(SN3)4
_symmetry_space_group_name_H-M   'P 1'
_cell_length_a   7.07736000
_cell_length_b   16.84231000
_cell_length_c   23.31412000
_cell_angle_alpha   90.00000000
_cell_angle_beta   89.99590000
_cell_angle_gamma   90.00000000
_symmetry_Int_Tables_number   1
_chemical_formula_structural   Ag3H40C52(SN3)4
_chemical_formula_sum   'Ag6 H80 C104 S8 N24'
_cell_volume   2779.02190672
_cell_formula_units_Z   2
loop_
 _symmetry_equiv_pos_site_id
 _symmetry_equiv_pos_as_xyz
  1  'x, y, z'
loop_
 _atom_site_type_symbol
 _atom_site_label
 _atom_site_symmetry_multiplicity
 _atom_site_fract_x
 _atom_site_fract_y
 _atom_site_fract_z
 _atom_site_occupancy
  Ag  Ag0  1  0.11049000  0.55962000  0.16220000  1
  Ag  Ag1  1  0.88952000  0.55962000  0.83779000  1
  Ag  Ag2  1  0.39059000  0.05972000  0.66218000  1
  Ag  Ag3  1  0.60941000  0.05972000  0.33782000  1
  Ag  Ag4  1  0.00000000  0.91264000  0.50000000  1
  Ag  Ag5  1  0.50000000  0.41278000  0.00000000  1
  H  H6  1  0.82156000  0.23313000  0.34987000  1
  H  H7  1  0.90966000  0.33709000  0.28050000  1
  H  H8  1  0.81468000  0.23803000  0.09070000  1
  H  H9  1  0.85336000  0.34447000  0.01581000  1
  H  H10  1  0.96684000  0.47932000  0.04537000  1
  H  H11  1  0.00598000  0.40970000  0.21533000  1
  H  H12  1  0.57835000  0.08310000  0.12037000  1
  H  H13  1  0.82517000  0.06258000  0.12061000  1
  H  H14  1  0.90322000  0.90912000  0.14758000  1
  H  H15  1  0.53695000  0.74077000  0.06518000  1
  H  H16  1  0.30943000  0.84922000  0.04322000  1
  H  H17  1  0.37665000  0.98735000  0.07459000  1
  H  H18  1  0.98642000  0.77538000  0.15035000  1
  H  H19  1  0.95963000  0.73870000  0.07926000  1
  H  H20  1  0.67975000  0.56339000  0.32945000  1
  H  H21  1  0.76880000  0.68722000  0.38108000  1
  H  H22  1  0.96065000  0.88083000  0.24548000  1
  H  H23  1  0.07945000  0.00778000  0.29082000  1
  H  H24  1  0.06942000  0.02001000  0.39751000  1
  H  H25  1  0.83267000  0.79630000  0.41571000  1
  H  H26  1  0.17845000  0.23313000  0.65013000  1
  H  H27  1  0.09035000  0.33709000  0.71950000  1
  H  H28  1  0.18532000  0.23803000  0.90930000  1
  H  H29  1  0.14665000  0.34447000  0.98419000  1
  H  H30  1  0.03317000  0.47932000  0.95463000  1
  H  H31  1  0.99403000  0.40970000  0.78466000  1
  H  H32  1  0.42166000  0.08310000  0.87963000  1
  H  H33  1  0.17484000  0.06258000  0.87939000  1
  H  H34  1  0.09679000  0.90912000  0.85242000  1
  H  H35  1  0.46306000  0.74077000  0.93481000  1
  H  H36  1  0.69057000  0.84922000  0.95678000  1
  H  H37  1  0.62336000  0.98735000  0.92541000  1
  H  H38  1  0.01359000  0.77538000  0.84964000  1
  H  H39  1  0.04038000  0.73870000  0.92074000  1
  H  H40  1  0.32026000  0.56339000  0.67055000  1
  H  H41  1  0.23121000  0.68722000  0.61892000  1
  H  H42  1  0.03936000  0.88083000  0.75452000  1
  H  H43  1  0.92056000  0.00778000  0.70917000  1
  H  H44  1  0.93059000  0.02001000  0.60249000  1
  H  H45  1  0.16734000  0.79630000  0.58429000  1
  H  H46  1  0.67752000  0.73308000  0.84984000  1
  H  H47  1  0.59013000  0.83712000  0.78045000  1
  H  H48  1  0.68538000  0.73791000  0.59067000  1
  H  H49  1  0.64696000  0.84434000  0.51573000  1
  H  H50  1  0.53428000  0.97930000  0.54525000  1
  H  H51  1  0.49497000  0.90979000  0.71526000  1
  H  H52  1  0.92130000  0.58310000  0.62060000  1
  H  H53  1  0.67450000  0.56251000  0.62048000  1
  H  H54  1  0.59673000  0.40901000  0.64760000  1
  H  H55  1  0.96338000  0.24082000  0.56521000  1
  H  H56  1  0.19075000  0.34935000  0.54326000  1
  H  H57  1  0.12321000  0.48746000  0.57464000  1
  H  H58  1  0.51386000  0.27525000  0.65033000  1
  H  H59  1  0.54086000  0.23854000  0.57925000  1
  H  H60  1  0.82125000  0.06365000  0.82957000  1
  H  H61  1  0.73114000  0.18738000  0.88112000  1
  H  H62  1  0.53830000  0.38072000  0.74550000  1
  H  H63  1  0.42004000  0.50779000  0.79083000  1
  H  H64  1  0.43074000  0.52016000  0.89749000  1
  H  H65  1  0.66653000  0.29632000  0.91576000  1
  H  H66  1  0.32249000  0.73308000  0.15015000  1
  H  H67  1  0.40987000  0.83712000  0.21954000  1
  H  H68  1  0.31463000  0.73791000  0.40933000  1
  H  H69  1  0.35305000  0.84434000  0.48427000  1
  H  H70  1  0.46573000  0.97930000  0.45475000  1
  H  H71  1  0.50504000  0.90979000  0.28474000  1
  H  H72  1  0.07870000  0.58310000  0.37940000  1
  H  H73  1  0.32551000  0.56251000  0.37952000  1
  H  H74  1  0.40328000  0.40901000  0.35240000  1
  H  H75  1  0.03662000  0.24082000  0.43479000  1
  H  H76  1  0.80926000  0.34935000  0.45674000  1
  H  H77  1  0.87679000  0.48746000  0.42536000  1
  H  H78  1  0.48614000  0.27525000  0.34966000  1
  H  H79  1  0.45915000  0.23854000  0.42075000  1
  H  H80  1  0.17876000  0.06365000  0.17043000  1
  H  H81  1  0.26887000  0.18738000  0.11888000  1
  H  H82  1  0.46171000  0.38072000  0.25449000  1
  H  H83  1  0.57997000  0.50779000  0.20917000  1
  H  H84  1  0.56927000  0.52016000  0.10250000  1
  H  H85  1  0.33348000  0.29632000  0.08424000  1
  C  C86  1  0.75938000  0.13423000  0.22983000  1
  C  C87  1  0.81687000  0.22148000  0.30410000  1
  C  C88  1  0.86574000  0.27911000  0.26500000  1
  C  C89  1  0.85615000  0.26065000  0.20561000  1
  C  C90  1  0.89529000  0.31608000  0.16054000  1
  C  C91  1  0.86153000  0.29746000  0.10175000  1
  C  C92  1  0.88390000  0.35643000  0.06075000  1
  C  C93  1  0.94543000  0.43212000  0.07638000  1
  C  C94  1  0.96560000  0.39297000  0.17197000  1
  C  C95  1  0.68621000  0.04041000  0.13401000  1
  C  C96  1  0.64565000  0.95782000  0.11276000  1
  C  C97  1  0.77389000  0.89618000  0.12405000  1
  C  C98  1  0.73719000  0.81810000  0.10687000  1
  C  C99  1  0.56746000  0.80156000  0.07816000  1
  C  C100  1  0.43876000  0.86228000  0.06660000  1
  C  C101  1  0.47726000  0.94020000  0.08386000  1
  C  C102  1  0.88292000  0.75473000  0.11862000  1
  C  C103  1  0.78121000  0.67642000  0.22086000  1
  C  C104  1  0.72395000  0.61635000  0.30605000  1
  C  C105  1  0.77491000  0.68503000  0.33454000  1
  C  C106  1  0.82834000  0.75183000  0.30142000  1
  C  C107  1  0.89215000  0.82628000  0.32623000  1
  C  C108  1  0.95920000  0.88904000  0.29171000  1
  C  C109  1  0.02366000  0.95883000  0.31648000  1
  C  C110  1  0.01920000  0.96660000  0.37635000  1
  C  C111  1  0.88922000  0.84011000  0.38613000  1
  C  C112  1  0.24063000  0.13423000  0.77017000  1
  C  C113  1  0.18314000  0.22148000  0.69590000  1
  C  C114  1  0.13427000  0.27911000  0.73500000  1
  C  C115  1  0.14385000  0.26065000  0.79439000  1
  C  C116  1  0.10472000  0.31608000  0.83946000  1
  C  C117  1  0.13847000  0.29746000  0.89825000  1
  C  C118  1  0.11611000  0.35643000  0.93925000  1
  C  C119  1  0.05457000  0.43212000  0.92362000  1
  C  C120  1  0.03441000  0.39297000  0.82803000  1
  C  C121  1  0.31379000  0.04041000  0.86598000  1
  C  C122  1  0.35435000  0.95782000  0.88724000  1
  C  C123  1  0.22612000  0.89618000  0.87594000  1
  C  C124  1  0.26282000  0.81810000  0.89312000  1
  C  C125  1  0.43255000  0.80156000  0.92184000  1
  C  C126  1  0.56124000  0.86228000  0.93340000  1
  C  C127  1  0.52275000  0.94020000  0.91614000  1
  C  C128  1  0.11709000  0.75473000  0.88137000  1
  C  C129  1  0.21880000  0.67642000  0.77914000  1
  C  C130  1  0.27605000  0.61635000  0.69395000  1
  C  C131  1  0.22510000  0.68503000  0.66546000  1
  C  C132  1  0.17167000  0.75183000  0.69858000  1
  C  C133  1  0.10786000  0.82628000  0.67377000  1
  C  C134  1  0.04081000  0.88904000  0.70828000  1
  C  C135  1  0.97635000  0.95883000  0.68352000  1
  C  C136  1  0.98081000  0.96660000  0.62365000  1
  C  C137  1  0.11079000  0.84011000  0.61387000  1
  C  C138  1  0.73983000  0.63416000  0.72983000  1
  C  C139  1  0.68274000  0.72150000  0.80407000  1
  C  C140  1  0.63423000  0.77915000  0.76496000  1
  C  C141  1  0.64380000  0.76065000  0.70557000  1
  C  C142  1  0.60504000  0.81607000  0.66047000  1
  C  C143  1  0.63869000  0.79738000  0.60169000  1
  C  C144  1  0.61654000  0.85634000  0.56067000  1
  C  C145  1  0.55531000  0.93208000  0.57628000  1
  C  C146  1  0.53508000  0.89301000  0.67188000  1
  C  C147  1  0.81329000  0.54037000  0.63405000  1
  C  C148  1  0.85419000  0.45782000  0.61278000  1
  C  C149  1  0.72607000  0.39613000  0.62406000  1
  C  C150  1  0.76298000  0.31807000  0.60687000  1
  C  C151  1  0.93278000  0.30161000  0.57817000  1
  C  C152  1  0.06136000  0.36238000  0.56663000  1
  C  C153  1  0.02266000  0.44028000  0.58389000  1
  C  C154  1  0.61745000  0.25463000  0.61862000  1
  C  C155  1  0.71927000  0.17649000  0.72092000  1
  C  C156  1  0.77672000  0.11653000  0.80613000  1
  C  C157  1  0.72542000  0.18519000  0.83458000  1
  C  C158  1  0.67169000  0.25192000  0.80143000  1
  C  C159  1  0.60749000  0.32632000  0.82623000  1
  C  C160  1  0.54014000  0.38902000  0.79173000  1
  C  C161  1  0.47585000  0.45885000  0.81648000  1
  C  C162  1  0.48062000  0.46669000  0.87634000  1
  C  C163  1  0.61027000  0.34013000  0.88614000  1
  C  C164  1  0.26018000  0.63416000  0.27017000  1
  C  C165  1  0.31727000  0.72150000  0.19593000  1
  C  C166  1  0.36578000  0.77915000  0.23503000  1
  C  C167  1  0.35621000  0.76065000  0.29443000  1
  C  C168  1  0.39496000  0.81607000  0.33953000  1
  C  C169  1  0.36132000  0.79738000  0.39831000  1
  C  C170  1  0.38346000  0.85634000  0.43932000  1
  C  C171  1  0.44470000  0.93208000  0.42372000  1
  C  C172  1  0.46493000  0.89301000  0.32812000  1
  C  C173  1  0.18672000  0.54037000  0.36594000  1
  C  C174  1  0.14582000  0.45782000  0.38721000  1
  C  C175  1  0.27393000  0.39613000  0.37594000  1
  C  C176  1  0.23703000  0.31807000  0.39313000  1
  C  C177  1  0.06723000  0.30161000  0.42183000  1
  C  C178  1  0.93865000  0.36238000  0.43337000  1
  C  C179  1  0.97735000  0.44028000  0.41611000  1
  C  C180  1  0.38256000  0.25463000  0.38138000  1
  C  C181  1  0.28074000  0.17649000  0.27908000  1
  C  C182  1  0.22329000  0.11653000  0.19387000  1
  C  C183  1  0.27459000  0.18519000  0.16542000  1
  C  C184  1  0.32831000  0.25192000  0.19856000  1
  C  C185  1  0.39252000  0.32632000  0.17376000  1
  C  C186  1  0.45987000  0.38902000  0.20827000  1
  C  C187  1  0.52415000  0.45885000  0.18352000  1
  C  C188  1  0.51939000  0.46669000  0.12366000  1
  C  C189  1  0.38974000  0.34013000  0.11385000  1
  S  S190  1  0.68703000  0.03668000  0.21257000  1
  S  S191  1  0.78953000  0.66078000  0.14501000  1
  S  S192  1  0.31298000  0.03668000  0.78743000  1
  S  S193  1  0.21047000  0.66078000  0.85499000  1
  S  S194  1  0.81152000  0.53652000  0.71260000  1
  S  S195  1  0.71114000  0.16077000  0.64506000  1
  S  S196  1  0.18848000  0.53652000  0.28740000  1
  S  S197  1  0.28886000  0.16077000  0.35494000  1
  N  N198  1  0.76305000  0.14677000  0.28778000  1
  N  N199  1  0.80309000  0.18498000  0.18921000  1
  N  N200  1  0.99543000  0.44821000  0.13186000  1
  N  N201  1  0.72674000  0.60980000  0.24806000  1
  N  N202  1  0.83096000  0.74575000  0.24260000  1
  N  N203  1  0.95163000  0.90804000  0.41025000  1
  N  N204  1  0.23696000  0.14677000  0.71222000  1
  N  N205  1  0.19692000  0.18498000  0.81079000  1
  N  N206  1  0.00458000  0.44821000  0.86814000  1
  N  N207  1  0.27326000  0.60980000  0.75194000  1
  N  N208  1  0.16905000  0.74575000  0.75740000  1
  N  N209  1  0.04838000  0.90804000  0.58974000  1
  N  N210  1  0.73638000  0.64676000  0.78777000  1
  N  N211  1  0.69615000  0.68488000  0.68920000  1
  N  N212  1  0.50540000  0.94825000  0.63175000  1
  N  N213  1  0.77386000  0.10992000  0.74814000  1
  N  N214  1  0.66915000  0.24581000  0.74261000  1
  N  N215  1  0.54802000  0.40811000  0.91025000  1
  N  N216  1  0.26363000  0.64676000  0.21223000  1
  N  N217  1  0.30386000  0.68488000  0.31080000  1
  N  N218  1  0.49461000  0.94825000  0.36824000  1
  N  N219  1  0.22615000  0.10992000  0.25186000  1
  N  N220  1  0.33086000  0.24581000  0.25738000  1
  N  N221  1  0.45199000  0.40811000  0.08975000  1
