# generated using pymatgen
data_Zn2H3C9IO7
_symmetry_space_group_name_H-M   'P 1'
_cell_length_a   9.64438000
_cell_length_b   10.67499000
_cell_length_c   18.39983000
_cell_angle_alpha   93.22769000
_cell_angle_beta   89.94577000
_cell_angle_gamma   89.75599000
_symmetry_Int_Tables_number   1
_chemical_formula_structural   Zn2H3C9IO7
_chemical_formula_sum   'Zn8 H12 C36 I4 O28'
_cell_volume   1891.30632413
_cell_formula_units_Z   4
loop_
 _symmetry_equiv_pos_site_id
 _symmetry_equiv_pos_as_xyz
  1  'x, y, z'
loop_
 _atom_site_type_symbol
 _atom_site_label
 _atom_site_symmetry_multiplicity
 _atom_site_fract_x
 _atom_site_fract_y
 _atom_site_fract_z
 _atom_site_occupancy
  Zn  Zn1  1  0.94951000  0.87090000  0.03379000  1.0
  Zn  Zn2  1  0.82376000  0.00248000  0.88490000  1.0
  Zn  Zn3  1  0.44798000  0.63378000  0.46648000  1.0
  Zn  Zn4  1  0.31917000  0.49655000  0.61144000  1.0
  Zn  Zn5  1  0.05049000  0.12910000  0.96621000  1.0
  Zn  Zn6  1  0.17623000  0.99752000  0.11510000  1.0
  Zn  Zn7  1  0.55201000  0.36622000  0.53352000  1.0
  Zn  Zn8  1  0.68083000  0.50345000  0.38856000  1.0
  H  H1  1  0.70879000  0.69523000  0.75429000  1.0
  H  H2  1  0.72625000  0.28652000  0.74851000  1.0
  H  H3  1  0.88670000  0.50414000  0.93569000  1.0
  H  H4  1  0.20886000  0.80595000  0.74663000  1.0
  H  H5  1  0.22793000  0.21489000  0.75045000  1.0
  H  H6  1  0.38384000  0.99504000  0.56281000  1.0
  H  H7  1  0.29121000  0.30477000  0.24571000  1.0
  H  H8  1  0.27375000  0.71348000  0.25149000  1.0
  H  H9  1  0.11330000  0.49586000  0.06431000  1.0
  H  H10  1  0.79113000  0.19405000  0.25337000  1.0
  H  H11  1  0.77206000  0.78511000  0.24955000  1.0
  H  H12  1  0.61616000  0.00497000  0.43720000  1.0
  C  C1  1  0.79796000  0.61304000  0.84861000  1.0
  C  C2  1  0.73320000  0.60769000  0.77912000  1.0
  C  C3  1  0.70838000  0.49159000  0.73978000  1.0
  C  C4  1  0.74669000  0.38157000  0.77252000  1.0
  C  C5  1  0.80628000  0.38694000  0.84275000  1.0
  C  C6  1  0.83637000  0.50178000  0.88150000  1.0
  C  C7  1  0.82386000  0.73691000  0.88913000  1.0
  C  C8  1  0.63001000  0.48016000  0.66804000  1.0
  C  C9  1  0.84618000  0.26365000  0.87155000  1.0
  C  C10  1  0.29862000  0.88567000  0.65062000  1.0
  C  C11  1  0.23424000  0.89191000  0.71986000  1.0
  C  C12  1  0.21008000  0.00872000  0.75844000  1.0
  C  C13  1  0.24886000  0.11966000  0.72610000  1.0
  C  C14  1  0.30746000  0.11434000  0.65599000  1.0
  C  C15  1  0.33550000  0.99796000  0.61725000  1.0
  C  C16  1  0.32727000  0.76039000  0.61102000  1.0
  C  C17  1  0.12858000  0.02017000  0.82989000  1.0
  C  C18  1  0.34520000  0.23912000  0.62814000  1.0
  C  C19  1  0.20203000  0.38696000  0.15139000  1.0
  C  C20  1  0.26679000  0.39231000  0.22088000  1.0
  C  C21  1  0.29161000  0.50841000  0.26022000  1.0
  C  C22  1  0.25330000  0.61843000  0.22748000  1.0
  C  C23  1  0.19371000  0.61306000  0.15726000  1.0
  C  C24  1  0.16362000  0.49822000  0.11850000  1.0
  C  C25  1  0.17613000  0.26309000  0.11087000  1.0
  C  C26  1  0.36999000  0.51984000  0.33196000  1.0
  C  C27  1  0.15382000  0.73635000  0.12845000  1.0
  C  C28  1  0.70138000  0.11433000  0.34938000  1.0
  C  C29  1  0.76576000  0.10809000  0.28014000  1.0
  C  C30  1  0.78991000  0.99128000  0.24156000  1.0
  C  C31  1  0.75114000  0.88034000  0.27390000  1.0
  C  C32  1  0.69253000  0.88566000  0.34401000  1.0
  C  C33  1  0.66450000  0.00204000  0.38276000  1.0
  C  C34  1  0.67273000  0.23961000  0.38898000  1.0
  C  C35  1  0.87141000  0.97983000  0.17011000  1.0
  C  C36  1  0.65480000  0.76088000  0.37186000  1.0
  I  I1  1  0.64423000  0.03692000  0.00907000  1.0
  I  I2  1  0.14230000  0.46557000  0.48972000  1.0
  I  I3  1  0.35576000  0.96309000  0.99093000  1.0
  I  I4  1  0.85769000  0.53443000  0.51028000  1.0
  O  O1  1  0.78361000  0.83429000  0.85512000  1.0
  O  O2  1  0.87568000  0.73162000  0.95488000  1.0
  O  O3  1  0.55168000  0.57131000  0.65292000  1.0
  O  O4  1  0.64229000  0.37487000  0.62948000  1.0
  O  O5  1  0.92713000  0.26833000  0.92703000  1.0
  O  O6  1  0.79243000  0.16119000  0.83904000  1.0
  O  O7  1  0.86732000  0.03519000  0.99914000  1.0
  O  O8  1  0.27875000  0.66415000  0.64308000  1.0
  O  O9  1  0.38638000  0.76178000  0.54865000  1.0
  O  O10  1  0.04289000  0.93620000  0.84470000  1.0
  O  O11  1  0.14951000  0.12027000  0.87210000  1.0
  O  O12  1  0.42799000  0.23544000  0.57384000  1.0
  O  O13  1  0.28822000  0.34094000  0.65798000  1.0
  O  O14  1  0.37522000  0.46146000  0.50451000  1.0
  O  O15  1  0.21639000  0.16571000  0.14488000  1.0
  O  O16  1  0.12431000  0.26838000  0.04512000  1.0
  O  O17  1  0.44832000  0.42870000  0.34708000  1.0
  O  O18  1  0.35770000  0.62514000  0.37052000  1.0
  O  O19  1  0.07287000  0.73167000  0.07297000  1.0
  O  O20  1  0.20757000  0.83882000  0.16096000  1.0
  O  O21  1  0.13268000  0.96481000  0.00086000  1.0
  O  O22  1  0.72125000  0.33586000  0.35692000  1.0
  O  O23  1  0.61362000  0.23823000  0.45135000  1.0
  O  O24  1  0.95711000  0.06380000  0.15530000  1.0
  O  O25  1  0.85048000  0.87973000  0.12790000  1.0
  O  O26  1  0.57200000  0.76456000  0.42616000  1.0
  O  O27  1  0.71177000  0.65906000  0.34202000  1.0
  O  O28  1  0.62478000  0.53854000  0.49549000  1.0
