# generated using pymatgen
data_SiH20C36(NO2)4
_symmetry_space_group_name_H-M   'P 1'
_cell_length_a   12.10713333
_cell_length_b   12.10713333
_cell_length_c   48.42930000
_cell_angle_alpha   90.03490000
_cell_angle_beta   89.94760000
_cell_angle_gamma   90.00000000
_symmetry_Int_Tables_number   1
_chemical_formula_structural   SiH20C36(NO2)4
_chemical_formula_sum   'Si4 H80 C144 N16 O32'
_cell_volume   7098.89218020
_cell_formula_units_Z   4
loop_
 _symmetry_equiv_pos_site_id
 _symmetry_equiv_pos_as_xyz
  1  'x, y, z'
loop_
 _atom_site_type_symbol
 _atom_site_label
 _atom_site_symmetry_multiplicity
 _atom_site_fract_x
 _atom_site_fract_y
 _atom_site_fract_z
 _atom_site_occupancy
  C  1  1  0.80631200  0.93443700  0.96479900  1
  C  2  1  0.78262500  0.84069200  0.94849500  1
  C  3  1  0.71468400  0.84942300  0.92504500  1
  C  4  1  0.66770900  0.95198800  0.91717100  1
  C  5  1  0.69085200  0.04533200  0.93386600  1
  C  6  1  0.75833200  0.03652600  0.95741500  1
  C  8  1  0.72049500  0.95241500  0.86518400  1
  C  9  1  0.80250900  0.03592300  0.86631900  1
  C  10  1  0.88545200  0.04292800  0.84611300  1
  C  11  1  0.88831600  0.96776000  0.82377700  1
  C  12  1  0.81375600  0.87778000  0.82418100  1
  C  13  1  0.73257100  0.86886900  0.84493800  1
  C  14  1  0.50795300  0.87520500  0.88035000  1
  C  15  1  0.54514900  0.08077000  0.87939100  1
  C  16  1  0.54298800  0.12307700  0.85209100  1
  C  17  1  0.47306100  0.21054400  0.84490500  1
  C  18  1  0.40534200  0.26073200  0.86505300  1
  C  19  1  0.40357500  0.21643500  0.89202100  1
  C  20  1  0.46870200  0.12425600  0.89869500  1
  C  21  1  0.45318500  0.82102900  0.90232900  1
  C  22  1  0.36944400  0.74350800  0.89700900  1
  C  23  1  0.34031500  0.71763800  0.86944000  1
  C  24  1  0.37759500  0.78777600  0.84810900  1
  C  25  1  0.46195300  0.86421500  0.85354300  1
  C  42  1  0.99441200  0.08493100  0.44419400  1
  C  43  1  0.89237400  0.09899700  0.43052700  1
  C  44  1  0.88777700  0.15227600  0.40472400  1
  C  45  1  0.98440600  0.19859900  0.39296300  1
  C  46  1  0.08750300  0.17051200  0.40486100  1
  C  47  1  0.09246500  0.11518100  0.43031800  1
  C  49  1  0.97129000  0.20195200  0.33899300  1
  C  50  1  0.06666600  0.13993200  0.33209700  1
  C  51  1  0.07260500  0.08074100  0.30721700  1
  C  52  1  0.98286500  0.08077100  0.28862100  1
  C  53  1  0.88398600  0.13412100  0.29642200  1
  C  54  1  0.87763900  0.19213500  0.32162200  1
  C  55  1  0.87642000  0.37876500  0.36880800  1
  C  56  1  0.08128900  0.37299800  0.36496900  1
  C  57  1  0.12518300  0.40880000  0.33938600  1
  C  58  1  0.20962500  0.48809000  0.33846100  1
  C  59  1  0.25241100  0.53309900  0.36315600  1
  C  60  1  0.20059600  0.50702600  0.38844700  1
  C  61  1  0.11455500  0.42961100  0.38921900  1
  C  62  1  0.83534700  0.41326300  0.39483800  1
  C  63  1  0.75486000  0.49640000  0.39676000  1
  C  64  1  0.71433400  0.54751000  0.37257000  1
  C  65  1  0.76899900  0.52770000  0.34730700  1
  C  66  1  0.84928100  0.44445900  0.34554300  1
  C  83  1  0.15301800  0.94090600  0.04355000  1
  C  84  1  0.18886100  0.84634400  0.05796100  1
  C  85  1  0.27054800  0.85526500  0.07848400  1
  C  86  1  0.32029000  0.95833500  0.08480900  1
  C  87  1  0.28652200  0.05188000  0.06938600  1
  C  88  1  0.20488700  0.04309900  0.04884100  1
  C  90  1  0.28978400  0.96255200  0.13752700  1
  C  91  1  0.20939000  0.04770400  0.13824700  1
  C  92  1  0.13020300  0.05276800  0.15938100  1
  C  93  1  0.12961200  0.97391600  0.18088300  1
  C  94  1  0.20353500  0.88373300  0.17899100  1
  C  95  1  0.28093200  0.87689900  0.15729400  1
  C  96  1  0.49424900  0.88146800  0.11716100  1
  C  97  1  0.46095100  0.08708700  0.11851100  1
  C  98  1  0.47630000  0.13013200  0.14547000  1
  C  99  1  0.54931200  0.21766700  0.15036200  1
  C  100  1  0.60720300  0.26694700  0.12826200  1
  C  101  1  0.59672700  0.22107400  0.10156500  1
  C  102  1  0.52808600  0.12932300  0.09701000  1
  C  103  1  0.54253600  0.83131600  0.09366100  1
  C  104  1  0.62908200  0.75483500  0.09653500  1
  C  105  1  0.66681300  0.72543300  0.12315500  1
  C  106  1  0.63521800  0.79140100  0.14588500  1
  C  107  1  0.54874300  0.86767100  0.14285400  1
  C  124  1  0.00796100  0.08519600  0.56108200  1
  C  125  1  0.11118300  0.09833100  0.57424300  1
  C  126  1  0.11814600  0.15244400  0.59992200  1
  C  127  1  0.02289800  0.20042200  0.61199300  1
  C  128  1  0.91863700  0.17335000  0.60057000  1
  C  129  1  0.91117000  0.11698300  0.57528000  1
  C  131  1  0.03825100  0.20842000  0.66593000  1
  C  132  1  0.94164500  0.14997800  0.67362700  1
  C  133  1  0.93654000  0.09211100  0.69869900  1
  C  134  1  0.02846300  0.08913700  0.71661200  1
  C  135  1  0.12806400  0.13898100  0.70799900  1
  C  136  1  0.13342600  0.19607100  0.68267200  1
  C  137  1  0.13589600  0.37999000  0.63499000  1
  C  138  1  0.93105100  0.37963900  0.63902400  1
  C  139  1  0.88660400  0.41775100  0.66434800  1
  C  140  1  0.80242900  0.49744200  0.66469100  1
  C  141  1  0.76153800  0.54119800  0.63967100  1
  C  142  1  0.81495300  0.51407000  0.61466100  1
  C  143  1  0.89958700  0.43505000  0.61445900  1
  C  144  1  0.17542400  0.41271000  0.60868100  1
  C  145  1  0.25682000  0.49461500  0.60616800  1
  C  146  1  0.29948100  0.54683300  0.62995800  1
  C  147  1  0.24731700  0.52793900  0.65561800  1
  C  148  1  0.16579500  0.44616400  0.65797200  1
  C  165  1  0.01165100  0.05815000  0.74457600  1
  C  166  1  0.94585300  0.13004000  0.76049400  1
  C  167  1  0.91105800  0.09984100  0.78689100  1
  C  168  1  0.94233900  0.99769900  0.79862300  1
  C  169  1  0.01336800  0.92627200  0.78340000  1
  C  172  1  0.04837200  0.95673600  0.75611900  1
  C  179  1  0.07647500  0.99907100  0.20645600  1
  C  180  1  0.10772100  0.09913500  0.21926600  1
  C  181  1  0.07097100  0.12584500  0.24573200  1
  C  182  1  0.00311200  0.05240300  0.26061700  1
  C  183  1  0.96690700  0.95278600  0.24801300  1
  C  186  1  0.00394300  0.92588700  0.22065400  1
  C  193  1  0.06232300  0.93492200  0.02513800  1
  C  194  1  0.08450200  0.91254500  0.99712500  1
  C  195  1  0.99858800  0.90986300  0.97776200  1
  C  196  1  0.88828400  0.93011900  0.98581300  1
  C  197  1  0.86425400  0.95187700  0.01402300  1
  C  200  1  0.95131200  0.95361000  0.03385000  1
  C  207  1  0.00498800  0.08469000  0.53180800  1
  C  208  1  0.00330500  0.98411800  0.51712500  1
  C  209  1  0.99916700  0.98403100  0.48812400  1
  C  210  1  0.99604700  0.08450900  0.47345100  1
  C  211  1  0.99726700  0.18680400  0.48793400  1
  C  214  1  0.00259500  0.18689700  0.51731900  1
  C  221  1  0.37605900  0.37272300  0.86150500  1
  C  222  1  0.46647400  0.44574800  0.85965700  1
  C  223  1  0.45014800  0.55905400  0.86027300  1
  C  224  1  0.34300300  0.60338400  0.86348700  1
  C  225  1  0.24989900  0.53176000  0.86434000  1
  C  228  1  0.26647200  0.41550200  0.86307000  1
  C  235  1  0.36741100  0.54955500  0.36448400  1
  C  236  1  0.42980600  0.45123200  0.36400300  1
  C  237  1  0.54353400  0.45455400  0.36701400  1
  C  238  1  0.59850100  0.55619400  0.37084000  1
  C  239  1  0.53755800  0.65668300  0.37139300  1
  C  242  1  0.42065900  0.65320700  0.36850400  1
  C  249  1  0.63573100  0.37951000  0.13053300  1
  C  250  1  0.54483300  0.45138000  0.13333300  1
  C  251  1  0.55977400  0.56483200  0.13250700  1
  C  252  1  0.66583700  0.61046400  0.12829700  1
  C  253  1  0.75943300  0.53985500  0.12620100  1
  C  256  1  0.74433800  0.42336600  0.12746700  1
  C  263  1  0.64625600  0.55508600  0.63781200  1
  C  264  1  0.58599900  0.45542400  0.63735800  1
  C  265  1  0.47227200  0.45669700  0.63423400  1
  C  266  1  0.41519100  0.55762000  0.63131800  1
  C  267  1  0.47400400  0.65940600  0.63165500  1
  C  270  1  0.59090400  0.65804400  0.63462000  1
  H  26  1  0.47967400  0.24397500  0.82554400  1
  H  27  1  0.59189100  0.09125700  0.83679500  1
  H  28  1  0.36025600  0.25459000  0.90747100  1
  H  29  1  0.46298900  0.09303800  0.91828100  1
  H  30  1  0.47868500  0.83010500  0.92231500  1
  H  31  1  0.34730900  0.69145300  0.91274000  1
  H  32  1  0.36304900  0.76709300  0.82792600  1
  H  33  1  0.49572200  0.90409400  0.83695500  1
  H  34  1  0.67732700  0.80542400  0.84350100  1
  H  35  1  0.81039500  0.82404500  0.80789400  1
  H  36  1  0.93643700  0.11041800  0.84621800  1
  H  37  1  0.79808300  0.09866500  0.88047000  1
  H  38  1  0.66614800  0.12270900  0.92815800  1
  H  39  1  0.70466000  0.78036400  0.91306500  1
  H  40  1  0.81896000  0.76636500  0.95282700  1
  H  41  1  0.77820800  0.10688100  0.96804400  1
  H  67  1  0.24976800  0.50080100  0.32011000  1
  H  68  1  0.10015700  0.37469900  0.32110500  1
  H  69  1  0.23332600  0.53359500  0.40678900  1
  H  70  1  0.08211400  0.41008900  0.40812700  1
  H  71  1  0.85846200  0.37492400  0.41271100  1
  H  72  1  0.71394800  0.50554000  0.41515000  1
  H  73  1  0.73827300  0.55930700  0.32926200  1
  H  74  1  0.88202500  0.42816900  0.32648200  1
  H  75  1  0.80570800  0.23254800  0.32609000  1
  H  76  1  0.81902700  0.13830000  0.28295500  1
  H  77  1  0.14635500  0.04554200  0.30172900  1
  H  78  1  0.13664700  0.14364600  0.34392200  1
  H  79  1  0.16008500  0.19906200  0.39673100  1
  H  80  1  0.81155200  0.16885300  0.39657800  1
  H  81  1  0.81985700  0.08330000  0.44067600  1
  H  82  1  0.16701200  0.11100600  0.44024200  1
  H  108  1  0.55088400  0.25262700  0.16962900  1
  H  109  1  0.43436200  0.09932500  0.16212300  1
  H  110  1  0.63309000  0.25823500  0.08489900  1
  H  111  1  0.52411500  0.09754200  0.07744300  1
  H  112  1  0.51088600  0.84323700  0.07432300  1
  H  113  1  0.64691700  0.70569500  0.07988800  1
  H  114  1  0.65675500  0.76875800  0.16554100  1
  H  115  1  0.52040600  0.90558400  0.16036200  1
  H  116  1  0.33486800  0.81205900  0.15733500  1
  H  117  1  0.20815300  0.82711800  0.19462000  1
  H  118  1  0.07942800  0.12031800  0.16032100  1
  H  119  1  0.21139800  0.11184800  0.12448500  1
  H  120  1  0.31431400  0.12926000  0.07417200  1
  H  121  1  0.28828900  0.78609200  0.08982000  1
  H  122  1  0.15101900  0.77176800  0.05484500  1
  H  123  1  0.17842500  0.11324600  0.03908200  1
  H  149  1  0.76126300  0.51141900  0.68284900  1
  H  150  1  0.91035700  0.38447300  0.68281600  1
  H  151  1  0.78274000  0.53881900  0.59611200  1
  H  152  1  0.93189500  0.41314800  0.59569500  1
  H  153  1  0.15035500  0.37400300  0.59101200  1
  H  154  1  0.29601400  0.50340700  0.58754300  1
  H  155  1  0.27941600  0.56047100  0.67342100  1
  H  156  1  0.13400400  0.43145300  0.67721200  1
  H  157  1  0.20631900  0.23337200  0.67754500  1
  H  158  1  0.19505600  0.14025300  0.72086700  1
  H  159  1  0.86250200  0.05894700  0.70469300  1
  H  160  1  0.87058700  0.15550400  0.66225800  1
  H  161  1  0.84704500  0.20320800  0.60896400  1
  H  162  1  0.19511800  0.16848000  0.60769200  1
  H  163  1  0.18281500  0.08153500  0.56380300  1
  H  164  1  0.83603700  0.11332600  0.56562300  1
  H  170  1  0.85710400  0.15159500  0.79683500  1
  H  171  1  0.91718800  0.20289600  0.75242700  1
  H  184  1  0.09904600  0.19756900  0.25455100  1
  H  185  1  0.16237900  0.15208900  0.20999100  1
  H  198  1  0.01801700  0.89594600  0.95745700  1
  H  199  1  0.16382200  0.89960300  0.99045900  1
  H  212  1  0.99865900  0.91017300  0.47780600  1
  H  213  1  0.00513600  0.91031900  0.52743500  1
  H  226  1  0.51896800  0.60855500  0.86049200  1
  H  227  1  0.54643700  0.41764100  0.85944500  1
  H  240  1  0.58578800  0.38109000  0.36636100  1
  H  241  1  0.39310900  0.37533000  0.36175900  1
  H  254  1  0.49059000  0.61370600  0.13338400  1
  H  255  1  0.46544700  0.42221400  0.13480500  1
  H  268  1  0.43153500  0.38234400  0.63437400  1
  H  269  1  0.62428400  0.38012600  0.63915700  1
  N  173  1  0.04681600  0.82807400  0.79696000  1
  N  174  1  0.11529700  0.88992300  0.73884000  1
  N  187  1  0.89800500  0.88423800  0.26432800  1
  N  188  1  0.97111400  0.82982200  0.20604300  1
  N  201  1  0.75203600  0.96944600  0.02134700  1
  N  202  1  0.92181400  0.97458300  0.06173600  1
  N  215  1  0.99237900  0.28503800  0.47191500  1
  N  216  1  0.00696700  0.28527800  0.53331800  1
  N  229  1  0.14010300  0.57123000  0.86691000  1
  N  230  1  0.17110700  0.34744300  0.86304500  1
  N  243  1  0.58822700  0.76122500  0.37502900  1
  N  244  1  0.36234700  0.75467000  0.36940900  1
  N  257  1  0.86823400  0.58070600  0.12253600  1
  N  258  1  0.83998200  0.35603700  0.12587000  1
  N  271  1  0.42122200  0.76329600  0.62883400  1
  N  272  1  0.64716900  0.76071000  0.63455800  1
  O  175  1  0.14863400  0.82505400  0.80170400  1
  O  176  1  0.21006500  0.87292100  0.74838600  1
  O  177  1  0.01672300  0.74128600  0.78497500  1
  O  178  1  0.07038900  0.80042000  0.73217500  1
  O  189  1  0.94167600  0.79348000  0.27039900  1
  O  190  1  0.99999900  0.74129800  0.21737700  1
  O  191  1  0.80402100  0.86928800  0.25410500  1
  O  192  1  0.86972300  0.82779400  0.20070300  1
  O  203  1  0.73633100  0.06349700  0.03162200  1
  O  204  1  0.96358100  0.06201800  0.07099300  1
  O  205  1  0.71702300  0.89707400  0.03774600  1
  O  206  1  0.94498900  0.89543700  0.07745300  1
  O  217  1  0.07677000  0.34474300  0.47359000  1
  O  218  1  0.09299100  0.34120400  0.52972100  1
  O  219  1  0.90605200  0.34052000  0.47548700  1
  O  220  1  0.92225900  0.34451400  0.53162700  1
  O  231  1  0.11424000  0.63373100  0.84725000  1
  O  232  1  0.16264600  0.28911600  0.88433500  1
  O  233  1  0.12441000  0.62109900  0.88932200  1
  O  234  1  0.16686400  0.28651100  0.84205500  1
  O  245  1  0.65435700  0.78325700  0.35580300  1
  O  246  1  0.29650300  0.75906600  0.38943200  1
  O  247  1  0.63820500  0.76765700  0.39770200  1
  O  248  1  0.31023600  0.77239000  0.34742800  1
  O  259  1  0.87916000  0.63202600  0.10016300  1
  O  260  1  0.85041200  0.29561800  0.14679800  1
  O  261  1  0.89692100  0.64252200  0.14211900  1
  O  262  1  0.84195200  0.29700400  0.10456900  1
  O  273  1  0.35485200  0.78188700  0.64824000  1
  O  274  1  0.71359700  0.76838400  0.61471500  1
  O  275  1  0.37095500  0.77133600  0.60623900  1
  O  276  1  0.69822900  0.77704200  0.65676400  1
  Si  7  1  0.61085500  0.96338800  0.88594600  1
  Si  48  1  0.97619900  0.28513700  0.36633200  1
  Si  89  1  0.39085200  0.97076600  0.11416700  1
  Si  130  1  0.03397000  0.28909400  0.63814500  1
