# generated using pymatgen
data_H11C13N6
_symmetry_space_group_name_H-M   'P 1'
_cell_length_a   26.14450000
_cell_length_b   26.14450000
_cell_length_c   26.90520000
_cell_angle_alpha   89.99980000
_cell_angle_beta   89.99960000
_cell_angle_gamma   60.00000000
_symmetry_Int_Tables_number   1
_chemical_formula_structural   H11C13N6
_chemical_formula_sum   'H66 C78 N36'
_cell_volume   15926.76373518
_cell_formula_units_Z   6
loop_
 _symmetry_equiv_pos_site_id
 _symmetry_equiv_pos_as_xyz
  1  'x, y, z'
loop_
 _atom_site_type_symbol
 _atom_site_label
 _atom_site_symmetry_multiplicity
 _atom_site_fract_x
 _atom_site_fract_y
 _atom_site_fract_z
 _atom_site_occupancy
  C  1  1  0.97688900  0.46042650  0.99009400  1
  C  2  1  0.01836500  0.46214450  0.02350800  1
  C  3  1  0.07897000  0.43817250  0.01173700  1
  C  4  1  0.09795000  0.41304900  0.96330800  1
  C  5  1  0.06158800  0.39813900  0.93391100  1
  C  6  1  0.99978700  0.42489650  0.94601800  1
  C  9  1  0.91492900  0.49158200  0.00275000  1
  C  10  1  0.89128700  0.48239700  0.04796400  1
  C  11  1  0.82876800  0.51673500  0.05821100  1
  C  12  1  0.79139700  0.56396000  0.02497600  1
  C  13  1  0.81393600  0.57137050  0.97855700  1
  C  14  1  0.87449600  0.53295850  0.96783100  1
  C  27  1  0.77887300  0.61935150  0.94581800  1
  C  28  1  0.80295900  0.50318200  0.09957100  1
  C  29  1  0.08828000  0.35783300  0.89346900  1
  C  30  1  0.12051700  0.43898500  0.04570800  1
  C  35  1  0.42277000  0.47754900  0.32339400  1
  C  36  1  0.42442600  0.43439950  0.35682700  1
  C  37  1  0.40051100  0.39772750  0.34501500  1
  C  38  1  0.37540700  0.40387100  0.29658200  1
  C  39  1  0.36049200  0.45514950  0.26719700  1
  C  40  1  0.38727200  0.49017750  0.27929500  1
  C  43  1  0.45391800  0.50835800  0.33605700  1
  C  44  1  0.44472500  0.54118850  0.38127200  1
  C  45  1  0.47906400  0.56936850  0.39152300  1
  C  46  1  0.52630400  0.55950700  0.35830200  1
  C  47  1  0.53375100  0.52951000  0.31190200  1
  C  48  1  0.49533500  0.50737450  0.30116500  1
  C  61  1  0.58174600  0.51660800  0.27918000  1
  C  62  1  0.46546100  0.60877100  0.43286000  1
  C  63  1  0.32015500  0.46879400  0.22677400  1
  C  64  1  0.40129600  0.35536200  0.37896000  1
  C  69  1  0.43987800  0.01456650  0.65674800  1
  C  70  1  0.39675400  0.05605650  0.69020200  1
  C  71  1  0.36009600  0.11665700  0.67842300  1
  C  72  1  0.36627900  0.13563700  0.63001000  1
  C  73  1  0.41749500  0.09926350  0.60057500  1
  C  74  1  0.45248800  0.03745050  0.61265100  1
  C  77  1  0.47067500  0.95260800  0.66940200  1
  C  78  1  0.50353400  0.92895800  0.71460300  1
  C  79  1  0.53169500  0.86643800  0.72485600  1
  C  80  1  0.52182300  0.82906700  0.69163900  1
  C  81  1  0.49182000  0.85162000  0.64524650  1
  C  82  1  0.46964100  0.91217950  0.63453100  1
  C  95  1  0.47887300  0.81656050  0.61252800  1
  C  96  1  0.57107700  0.84064200  0.76620500  1
  C  97  1  0.43116000  0.12594350  0.56015900  1
  C  98  1  0.31772300  0.15818800  0.71239400  1
  C  103  1  0.20592900  0.24156650  0.77630900  1
  C  104  1  0.26149000  0.19215400  0.79066000  1
  C  105  1  0.27154600  0.18473200  0.84247500  1
  C  107  1  0.18048000  0.27191600  0.86117000  1
  C  110  1  0.18257400  0.25466100  0.72492600  1
  C  116  1  0.20384200  0.46750700  0.10962500  1
  C  117  1  0.15446700  0.46129000  0.12397600  1
  C  118  1  0.14702900  0.45866950  0.17579100  1
  C  120  1  0.23422600  0.46254250  0.19448300  1
  C  123  1  0.21702400  0.47761900  0.05822600  1
  C  129  1  0.42972100  0.24356400  0.44291000  1
  C  130  1  0.42357300  0.29913400  0.45724200  1
  C  131  1  0.42094900  0.30920600  0.50905400  1
  C  133  1  0.42487500  0.21812950  0.52779400  1
  C  136  1  0.43991500  0.22020550  0.39153000  1
  C  142  1  0.71085400  0.69426850  0.78080300  1
  C  143  1  0.66220400  0.74844800  0.79752300  1
  C  144  1  0.65860100  0.75815250  0.84938100  1
  C  146  1  0.74515200  0.66441150  0.86438300  1
  C  149  1  0.72216200  0.67579900  0.72806300  1
  C  155  1  0.65662100  0.50968900  0.11413700  1
  C  156  1  0.71076600  0.50423250  0.13085900  1
  C  157  1  0.72050800  0.49806950  0.18271200  1
  C  159  1  0.62675600  0.50527450  0.19772400  1
  C  162  1  0.63816200  0.51681750  0.06139700  1
  C  168  1  0.47208500  0.74853400  0.44748600  1
  C  169  1  0.46658700  0.69986350  0.46419300  1
  C  170  1  0.46043400  0.69627150  0.51604500  1
  C  172  1  0.46753600  0.78286900  0.53107600  1
  C  175  1  0.47931100  0.75982650  0.39475600  1
  H  7  1  0.00335300  0.48455800  0.05637200  1
  H  16  1  0.89121400  0.54029900  0.93586600  1
  H  19  1  0.92363900  0.42340100  0.93003100  1
  H  20  1  0.97703300  0.38468750  0.89133100  1
  H  21  1  0.91475700  0.42342700  0.10627300  1
  H  22  1  0.96823200  0.40716200  0.06753700  1
  H  23  1  0.72171100  0.60866050  0.07290000  1
  H  24  1  0.70385900  0.62891650  0.01543900  1
  H  25  1  0.15525400  0.40229000  0.90689000  1
  H  26  1  0.16618000  0.43013200  0.95681000  1
  H  31  1  0.74290400  0.65526150  0.96034300  1
  H  32  1  0.06397400  0.35946650  0.86324250  1
  H  33  1  0.16344600  0.41580850  0.03505200  1
  H  34  1  0.82708600  0.48436350  0.13083300  1
  H  41  1  0.44689300  0.42694250  0.38966800  1
  H  50  1  0.50269400  0.48329950  0.26920400  1
  H  53  1  0.38593000  0.56775100  0.26319000  1
  H  54  1  0.34731700  0.55302650  0.22444700  1
  H  55  1  0.38573600  0.57676150  0.43952400  1
  H  56  1  0.36945200  0.53951950  0.40081800  1
  H  57  1  0.57096300  0.58455500  0.40623000  1
  H  58  1  0.59121000  0.58213400  0.34875400  1
  H  59  1  0.36466600  0.35734050  0.24014300  1
  H  60  1  0.39249900  0.31855500  0.29005900  1
  H  65  1  0.61764400  0.51668450  0.29369800  1
  H  66  1  0.32174100  0.49151650  0.19656800  1
  H  67  1  0.37818400  0.33554150  0.36831100  1
  H  68  1  0.44679800  0.60332700  0.46416300  1
  H  75  1  0.38929800  0.04102700  0.72303400  1
  H  84  1  0.44560200  0.92893850  0.60256000  1
  H  87  1  0.53004100  0.96125150  0.59657600  1
  H  88  1  0.51537200  0.01459700  0.55784000  1
  H  89  1  0.53931900  0.95229350  0.77274800  1
  H  90  1  0.50200600  0.00581750  0.73404400  1
  H  91  1  0.54699300  0.75927800  0.73953650  1
  H  92  1  0.54451600  0.74151900  0.68205900  1
  H  93  1  0.31965200  0.19334750  0.57366600  1
  H  94  1  0.28096400  0.20438600  0.62351900  1
  H  99  1  0.47900500  0.78054350  0.62702000  1
  H  100  1  0.45368300  0.10166900  0.52986800  1
  H  101  1  0.29797600  0.20112250  0.70175450  1
  H  102  1  0.56561800  0.86475050  0.79751100  1
  H  109  1  0.31034100  0.15090900  0.85596500  1
  H  111  1  0.19115400  0.21420500  0.70602400  1
  H  112  1  0.20278000  0.27590700  0.70434100  1
  H  113  1  0.13485300  0.28474600  0.72455800  1
  H  122  1  0.11333000  0.45348800  0.18926800  1
  H  124  1  0.17659900  0.50946100  0.03926300  1
  H  125  1  0.23828600  0.43611200  0.03771700  1
  H  126  1  0.24712300  0.49523550  0.05783600  1
  H  135  1  0.41597600  0.34800500  0.52253100  1
  H  137  1  0.47176800  0.22878000  0.37258600  1
  H  138  1  0.39843500  0.24041500  0.37098400  1
  H  139  1  0.45754600  0.17248500  0.39117300  1
  H  148  1  0.62420700  0.79524850  0.86446800  1
  H  150  1  0.68984900  0.70875200  0.70282200  1
  H  151  1  0.72104300  0.63491100  0.72331500  1
  H  152  1  0.76580100  0.66791450  0.71741900  1
  H  161  1  0.75754200  0.49549050  0.19781300  1
  H  163  1  0.67110500  0.51620000  0.03615600  1
  H  164  1  0.59725500  0.55880400  0.05663600  1
  H  165  1  0.63031800  0.48103400  0.05076300  1
  H  174  1  0.45767300  0.66190800  0.53112800  1
  H  176  1  0.47872400  0.72749100  0.36950800  1
  H  177  1  0.52131300  0.75872800  0.39005400  1
  H  178  1  0.44355900  0.80345200  0.38408500  1
  N  8  1  0.14738500  0.40984050  0.94216100  1
  N  15  1  0.73401500  0.60258650  0.03839400  1
  N  17  1  0.96332800  0.41175450  0.91910900  1
  N  18  1  0.92810800  0.43527000  0.07730800  1
  N  42  1  0.37220700  0.35764700  0.27541500  1
  N  49  1  0.56492600  0.57826650  0.37173100  1
  N  51  1  0.37413500  0.53977450  0.25239700  1
  N  52  1  0.39757100  0.55151450  0.41059300  1
  N  76  1  0.32007700  0.18504950  0.60887100  1
  N  83  1  0.54053700  0.77169450  0.70506150  1
  N  85  1  0.50203800  0.00098050  0.58569700  1
  N  86  1  0.51389100  0.96576450  0.74392700  1
  N  106  1  0.23271100  0.22492500  0.87543400  1
  N  108  1  0.16810000  0.27829000  0.81186600  1
  N  114  1  0.14469400  0.31157500  0.89575500  1
  N  115  1  0.30608000  0.15209250  0.76056300  1
  N  119  1  0.18726800  0.45724250  0.20874000  1
  N  121  1  0.24058200  0.46857450  0.14518400  1
  N  127  1  0.27391300  0.45861500  0.22906300  1
  N  128  1  0.11443000  0.45671700  0.09387700  1
  N  132  1  0.41962400  0.27036900  0.54203300  1
  N  134  1  0.43084300  0.20574750  0.47848700  1
  N  140  1  0.42101500  0.18235400  0.56239700  1
  N  141  1  0.41902200  0.34372600  0.42713700  1
  N  145  1  0.69857900  0.71625300  0.88058500  1
  N  147  1  0.74993600  0.65512750  0.81451000  1
  N  153  1  0.78320700  0.62037850  0.89547300  1
  N  154  1  0.62012800  0.78593000  0.76490700  1
  N  158  1  0.67859400  0.50002450  0.21391700  1
  N  160  1  0.61748700  0.50973550  0.14784800  1
  N  166  1  0.58274500  0.51123800  0.22883300  1
  N  167  1  0.74824500  0.50884650  0.09825200  1
  N  171  1  0.46228900  0.73627650  0.54725800  1
  N  173  1  0.47210700  0.78762600  0.48120800  1
  N  179  1  0.47352000  0.82090800  0.56218100  1
  N  180  1  0.47115300  0.65780400  0.43157100  1
