# generated using pymatgen
data_MnH8(C7O2)2
_symmetry_space_group_name_H-M   'P 1'
_cell_length_a   12.16870000
_cell_length_b   13.94300000
_cell_length_c   18.25010000
_cell_angle_alpha   90.00000000
_cell_angle_beta   90.00000000
_cell_angle_gamma   113.16900000
_symmetry_Int_Tables_number   1
_chemical_formula_structural   MnH8(C7O2)2
_chemical_formula_sum   'Mn6 H48 C84 O24'
_cell_volume   2846.72660467
_cell_formula_units_Z   6
loop_
 _symmetry_equiv_pos_site_id
 _symmetry_equiv_pos_as_xyz
  1  'x, y, z'
loop_
 _atom_site_type_symbol
 _atom_site_label
 _atom_site_symmetry_multiplicity
 _atom_site_fract_x
 _atom_site_fract_y
 _atom_site_fract_z
 _atom_site_occupancy
  Mn  Mn1  1  0.32687000  0.58237000  0.51938000  1.0
  Mn  Mn2  1  0.17313000  0.41763000  0.01938000  1.0
  Mn  Mn3  1  0.67313000  0.41763000  0.48062000  1.0
  Mn  Mn4  1  0.82687000  0.58237000  0.98062000  1.0
  Mn  Mn5  1  0.00000000  0.50000000  0.50000000  1.0
  Mn  Mn6  1  0.50000000  0.50000000  0.00000000  1.0
  H  H1  1  0.34610000  0.79200000  0.70160000  1.0
  H  H2  1  0.36610000  0.93700000  0.77200000  1.0
  H  H3  1  0.05480000  0.93150000  0.69000000  1.0
  H  H4  1  0.03120000  0.78310000  0.62250000  1.0
  H  H5  1  0.06020000  0.01440000  0.80630000  1.0
  H  H6  1  0.09390000  0.16760000  0.87070000  1.0
  H  H7  1  0.44540000  0.27530000  0.82100000  1.0
  H  H8  1  0.41340000  0.12120000  0.75820000  1.0
  H  H9  1  0.24950000  0.24740000  0.41660000  1.0
  H  H10  1  0.15730000  0.06660000  0.42290000  1.0
  H  H11  1  0.91270000  0.08970000  0.56390000  1.0
  H  H12  1  0.99980000  0.27040000  0.55360000  1.0
  H  H13  1  0.15390000  0.20800000  0.20160000  1.0
  H  H14  1  0.13390000  0.06300000  0.27200000  1.0
  H  H15  1  0.44520000  0.06850000  0.19000000  1.0
  H  H16  1  0.46880000  0.21690000  0.12250000  1.0
  H  H17  1  0.43980000  0.98560000  0.30630000  1.0
  H  H18  1  0.40610000  0.83240000  0.37070000  1.0
  H  H19  1  0.05460000  0.72470000  0.32100000  1.0
  H  H20  1  0.08660000  0.87880000  0.25820000  1.0
  H  H21  1  0.25050000  0.75260000  0.91660000  1.0
  H  H22  1  0.34270000  0.93340000  0.92290000  1.0
  H  H23  1  0.58730000  0.91030000  0.06390000  1.0
  H  H24  1  0.50020000  0.72960000  0.05360000  1.0
  H  H25  1  0.65390000  0.20800000  0.29840000  1.0
  H  H26  1  0.63390000  0.06300000  0.22800000  1.0
  H  H27  1  0.94520000  0.06850000  0.31000000  1.0
  H  H28  1  0.96880000  0.21690000  0.37750000  1.0
  H  H29  1  0.93980000  0.98560000  0.19370000  1.0
  H  H30  1  0.90610000  0.83240000  0.12930000  1.0
  H  H31  1  0.55460000  0.72470000  0.17900000  1.0
  H  H32  1  0.58660000  0.87880000  0.24180000  1.0
  H  H33  1  0.75050000  0.75260000  0.58340000  1.0
  H  H34  1  0.84270000  0.93340000  0.57710000  1.0
  H  H35  1  0.08730000  0.91030000  0.43610000  1.0
  H  H36  1  0.00020000  0.72960000  0.44640000  1.0
  H  H37  1  0.84610000  0.79200000  0.79840000  1.0
  H  H38  1  0.86610000  0.93700000  0.72800000  1.0
  H  H39  1  0.55480000  0.93150000  0.81000000  1.0
  H  H40  1  0.53120000  0.78310000  0.87750000  1.0
  H  H41  1  0.56020000  0.01440000  0.69370000  1.0
  H  H42  1  0.59390000  0.16760000  0.62930000  1.0
  H  H43  1  0.94540000  0.27530000  0.67900000  1.0
  H  H44  1  0.91340000  0.12120000  0.74180000  1.0
  H  H45  1  0.74950000  0.24740000  0.08340000  1.0
  H  H46  1  0.65730000  0.06660000  0.07710000  1.0
  H  H47  1  0.41270000  0.08970000  0.93610000  1.0
  H  H48  1  0.49980000  0.27040000  0.94640000  1.0
  C  C1  1  0.18765000  0.77397000  0.65357000  1.0
  C  C2  1  0.28675000  0.82023000  0.69904000  1.0
  C  C3  1  0.29900000  0.90720000  0.74058000  1.0
  C  C4  1  0.21450000  0.95165000  0.73702000  1.0
  C  C5  1  0.11438000  0.90351000  0.69246000  1.0
  C  C6  1  0.10063000  0.81542000  0.65182000  1.0
  C  C7  1  0.23381000  0.05018000  0.77679000  1.0
  C  C8  1  0.13901000  0.06641000  0.80991000  1.0
  C  C9  1  0.15920000  0.15802000  0.84813000  1.0
  C  C10  1  0.27306000  0.23570000  0.85392000  1.0
  C  C11  1  0.36733000  0.22172000  0.81901000  1.0
  C  C12  1  0.34799000  0.12996000  0.78130000  1.0
  C  C13  1  0.17742000  0.68225000  0.60550000  1.0
  C  C14  1  0.29465000  0.33080000  0.90136000  1.0
  C  C15  1  0.13449000  0.27699000  0.48539000  1.0
  C  C16  1  0.18068000  0.21549000  0.44646000  1.0
  C  C17  1  0.12644000  0.10765000  0.45114000  1.0
  C  C18  1  0.02779000  0.05798000  0.49620000  1.0
  C  C19  1  0.98128000  0.12123000  0.53384000  1.0
  C  C20  1  0.03352000  0.22909000  0.52807000  1.0
  C  C21  1  0.19669000  0.39292000  0.48526000  1.0
  C  C22  1  0.31235000  0.22603000  0.15357000  1.0
  C  C23  1  0.21325000  0.17977000  0.19904000  1.0
  C  C24  1  0.20100000  0.09280000  0.24058000  1.0
  C  C25  1  0.28550000  0.04835000  0.23702000  1.0
  C  C26  1  0.38562000  0.09649000  0.19246000  1.0
  C  C27  1  0.39937000  0.18458000  0.15182000  1.0
  C  C28  1  0.26619000  0.94982000  0.27679000  1.0
  C  C29  1  0.36099000  0.93359000  0.30991000  1.0
  C  C30  1  0.34080000  0.84198000  0.34813000  1.0
  C  C31  1  0.22694000  0.76430000  0.35392000  1.0
  C  C32  1  0.13267000  0.77828000  0.31901000  1.0
  C  C33  1  0.15201000  0.87004000  0.28130000  1.0
  C  C34  1  0.32258000  0.31775000  0.10550000  1.0
  C  C35  1  0.20535000  0.66920000  0.40136000  1.0
  C  C36  1  0.36551000  0.72301000  0.98539000  1.0
  C  C37  1  0.31932000  0.78451000  0.94646000  1.0
  C  C38  1  0.37356000  0.89235000  0.95114000  1.0
  C  C39  1  0.47221000  0.94202000  0.99620000  1.0
  C  C40  1  0.51872000  0.87877000  0.03384000  1.0
  C  C41  1  0.46648000  0.77091000  0.02807000  1.0
  C  C42  1  0.30331000  0.60708000  0.98526000  1.0
  C  C43  1  0.81235000  0.22603000  0.34643000  1.0
  C  C44  1  0.71325000  0.17977000  0.30096000  1.0
  C  C45  1  0.70100000  0.09280000  0.25942000  1.0
  C  C46  1  0.78550000  0.04835000  0.26298000  1.0
  C  C47  1  0.88562000  0.09649000  0.30754000  1.0
  C  C48  1  0.89937000  0.18458000  0.34818000  1.0
  C  C49  1  0.76619000  0.94982000  0.22321000  1.0
  C  C50  1  0.86099000  0.93359000  0.19009000  1.0
  C  C51  1  0.84080000  0.84198000  0.15187000  1.0
  C  C52  1  0.72694000  0.76430000  0.14608000  1.0
  C  C53  1  0.63267000  0.77828000  0.18099000  1.0
  C  C54  1  0.65201000  0.87004000  0.21870000  1.0
  C  C55  1  0.82258000  0.31775000  0.39450000  1.0
  C  C56  1  0.70535000  0.66920000  0.09864000  1.0
  C  C57  1  0.86551000  0.72301000  0.51461000  1.0
  C  C58  1  0.81932000  0.78451000  0.55354000  1.0
  C  C59  1  0.87356000  0.89235000  0.54886000  1.0
  C  C60  1  0.97221000  0.94202000  0.50380000  1.0
  C  C61  1  0.01872000  0.87877000  0.46616000  1.0
  C  C62  1  0.96648000  0.77091000  0.47193000  1.0
  C  C63  1  0.80331000  0.60708000  0.51474000  1.0
  C  C64  1  0.68765000  0.77397000  0.84643000  1.0
  C  C65  1  0.78675000  0.82023000  0.80096000  1.0
  C  C66  1  0.79900000  0.90720000  0.75942000  1.0
  C  C67  1  0.71450000  0.95165000  0.76298000  1.0
  C  C68  1  0.61438000  0.90351000  0.80754000  1.0
  C  C69  1  0.60063000  0.81542000  0.84818000  1.0
  C  C70  1  0.73381000  0.05018000  0.72321000  1.0
  C  C71  1  0.63901000  0.06641000  0.69009000  1.0
  C  C72  1  0.65920000  0.15802000  0.65187000  1.0
  C  C73  1  0.77306000  0.23570000  0.64608000  1.0
  C  C74  1  0.86733000  0.22172000  0.68099000  1.0
  C  C75  1  0.84799000  0.12996000  0.71870000  1.0
  C  C76  1  0.67742000  0.68225000  0.89450000  1.0
  C  C77  1  0.79465000  0.33080000  0.59864000  1.0
  C  C78  1  0.63449000  0.27699000  0.01461000  1.0
  C  C79  1  0.68068000  0.21549000  0.05354000  1.0
  C  C80  1  0.62644000  0.10765000  0.04886000  1.0
  C  C81  1  0.52779000  0.05798000  0.00380000  1.0
  C  C82  1  0.48128000  0.12123000  0.96616000  1.0
  C  C83  1  0.53352000  0.22909000  0.97193000  1.0
  C  C84  1  0.69669000  0.39292000  0.01474000  1.0
  O  O1  1  0.27341000  0.67026000  0.59499000  1.0
  O  O2  1  0.07685000  0.62702000  0.58007000  1.0
  O  O3  1  0.20268000  0.33994000  0.92583000  1.0
  O  O4  1  0.40099000  0.39108000  0.91300000  1.0
  O  O5  1  0.29999000  0.43472000  0.45986000  1.0
  O  O6  1  0.14493000  0.44682000  0.51554000  1.0
  O  O7  1  0.22659000  0.32974000  0.09499000  1.0
  O  O8  1  0.42315000  0.37298000  0.08007000  1.0
  O  O9  1  0.29732000  0.66006000  0.42583000  1.0
  O  O10  1  0.09901000  0.60892000  0.41300000  1.0
  O  O11  1  0.20001000  0.56528000  0.95986000  1.0
  O  O12  1  0.35507000  0.55318000  0.01554000  1.0
  O  O13  1  0.72659000  0.32974000  0.40501000  1.0
  O  O14  1  0.92315000  0.37298000  0.41993000  1.0
  O  O15  1  0.79732000  0.66006000  0.07417000  1.0
  O  O16  1  0.59901000  0.60892000  0.08700000  1.0
  O  O17  1  0.70001000  0.56528000  0.54014000  1.0
  O  O18  1  0.85507000  0.55318000  0.48446000  1.0
  O  O19  1  0.77341000  0.67026000  0.90501000  1.0
  O  O20  1  0.57685000  0.62702000  0.91993000  1.0
  O  O21  1  0.70268000  0.33994000  0.57417000  1.0
  O  O22  1  0.90099000  0.39108000  0.58700000  1.0
  O  O23  1  0.79999000  0.43472000  0.04014000  1.0
  O  O24  1  0.64493000  0.44682000  0.98446000  1.0
