# generated using pymatgen
data_AlH3(CO)6
_symmetry_space_group_name_H-M   'P 1'
_cell_length_a   10.66746000
_cell_length_b   15.92147172
_cell_length_c   15.92886256
_cell_angle_alpha   83.59651214
_cell_angle_beta   70.47247901
_cell_angle_gamma   70.50225890
_symmetry_Int_Tables_number   1
_chemical_formula_structural   AlH3(CO)6
_chemical_formula_sum   'Al8 H24 C48 O48'
_cell_volume   2403.55595154
_cell_formula_units_Z   8
loop_
 _symmetry_equiv_pos_site_id
 _symmetry_equiv_pos_as_xyz
  1  'x, y, z'
loop_
 _atom_site_type_symbol
 _atom_site_label
 _atom_site_symmetry_multiplicity
 _atom_site_fract_x
 _atom_site_fract_y
 _atom_site_fract_z
 _atom_site_occupancy
  Al  Al1  1  0.31475500  0.68285000  0.68077000  1.0
  Al  Al2  1  0.68512500  0.31678000  0.31837000  1.0
  Al  Al3  1  0.00172000  0.31798500  0.18339500  1.0
  Al  Al4  1  0.49506500  0.81854000  0.68329000  1.0
  Al  Al5  1  0.50365500  0.18141000  0.31677000  1.0
  Al  Al6  1  0.99776000  0.68231000  0.81601000  1.0
  Al  Al7  1  0.67964500  0.81680500  0.81769500  1.0
  Al  Al8  1  0.32021500  0.18326000  0.18175000  1.0
  C  C1  1  0.83355500  0.42831500  0.34458500  1.0
  C  C2  1  0.82823500  0.50045500  0.39700500  1.0
  C  C3  1  0.91725000  0.55031500  0.38420500  1.0
  C  C4  1  0.60469000  0.65582500  0.57247500  1.0
  C  C5  1  0.72464000  0.60363500  0.50065500  1.0
  C  C6  1  0.85036500  0.61696000  0.45106000  1.0
  C  C7  1  0.39568000  0.34385000  0.42761000  1.0
  C  C8  1  0.27671000  0.39562500  0.49999500  1.0
  C  C9  1  0.15012000  0.38306500  0.54851500  1.0
  C  C10  1  0.16606000  0.57177500  0.65509500  1.0
  C  C11  1  0.17260000  0.49882000  0.60340000  1.0
  C  C12  1  0.08288000  0.44970500  0.61530500  1.0
  C  C13  1  0.39388500  0.92807000  0.84465000  1.0
  C  C14  1  0.27548500  0.00023000  0.89709000  1.0
  C  C15  1  0.14891000  0.04932500  0.88483500  1.0
  C  C16  1  0.16685000  0.15449000  0.07370000  1.0
  C  C17  1  0.17211500  0.10277000  0.00115000  1.0
  C  C18  1  0.08214500  0.11559500  0.95199500  1.0
  C  C19  1  0.83256000  0.84516000  0.92633000  1.0
  C  C20  1  0.82713500  0.89692000  0.99892000  1.0
  C  C21  1  0.91682000  0.88374500  0.04831500  1.0
  C  C22  1  0.60569500  0.07183000  0.15527000  1.0
  C  C23  1  0.72390500  0.99939500  0.10306500  1.0
  C  C24  1  0.85014000  0.94993500  0.11557500  1.0
  C  C25  1  0.67656500  0.92700000  0.65491000  1.0
  C  C26  1  0.72400000  0.99899500  0.60284500  1.0
  C  C27  1  0.80133000  0.04794000  0.61589000  1.0
  C  C28  1  0.67834500  0.15511500  0.42769500  1.0
  C  C29  1  0.72396000  0.10291000  0.50020000  1.0
  C  C30  1  0.80124000  0.11505500  0.54958500  1.0
  C  C31  1  0.73859500  0.65546000  0.92739000  1.0
  C  C32  1  0.67309000  0.60314500  0.00016500  1.0
  C  C33  1  0.53445000  0.61579000  0.04997000  1.0
  C  C34  1  0.74080000  0.42656000  0.15480000  1.0
  C  C35  1  0.67398000  0.49917500  0.10294500  1.0
  C  C36  1  0.53500333  0.54868167  0.11630167  1.0
  C  C49  1  0.27444500  0.89685000  0.49958000  1.0
  C  C50  1  0.19956000  0.88372000  0.44896000  1.0
  C  C51  1  0.27508000  0.00063000  0.39660000  1.0
  C  C52  1  0.19984000  0.95074500  0.38252500  1.0
  C  C53  1  0.31987500  0.84465000  0.57230000  1.0
  C  C54  1  0.32216000  0.07297500  0.34486500  1.0
  C  C55  1  0.25907500  0.57301500  0.84370500  1.0
  C  C56  1  0.26061000  0.34422500  0.07128500  1.0
  C  C57  1  0.32534500  0.49996000  0.89537000  1.0
  C  C58  1  0.46435500  0.45100000  0.88260000  1.0
  C  C59  1  0.32608000  0.39626000  0.99831000  1.0
  C  C60  1  0.46480000  0.38409000  0.94913000  1.0
  H  H1  1  0.12508500  0.78778500  0.78021500  1.0
  H  H2  1  0.91083000  0.78103500  0.71128500  1.0
  H  H3  1  0.40460500  0.71807500  0.78734500  1.0
  H  H4  1  0.69186500  0.71205000  0.71881000  1.0
  H  H5  1  0.59808000  0.27933500  0.21110500  1.0
  H  H6  1  0.30857500  0.28825000  0.27979000  1.0
  H  H7  1  0.08887000  0.22036000  0.28906000  1.0
  H  H8  1  0.87607500  0.21167000  0.22015000  1.0
  H  H17  1  0.11244000  0.03838500  0.83246500  1.0
  H  H18  1  0.98209500  0.16767000  0.96342000  1.0
  H  H19  1  0.11378000  0.33098000  0.53672000  1.0
  H  H20  1  0.98258000  0.46097500  0.66702500  1.0
  H  H21  1  0.15408500  0.96159500  0.32934500  1.0
  H  H22  1  0.15307500  0.83097000  0.45912000  1.0
  H  H25  1  0.88639000  0.66963000  0.46195000  1.0
  H  H26  1  0.01666500  0.53975000  0.33167000  1.0
  H  H27  1  0.01667500  0.83148000  0.03681000  1.0
  H  H28  1  0.88633500  0.96067000  0.16817000  1.0
  H  H29  1  0.84900000  0.03636500  0.66819500  1.0
  H  H30  1  0.84887000  0.16732000  0.53870000  1.0
  H  H37  1  0.55355000  0.33209500  0.96046500  1.0
  H  H38  1  0.55275500  0.46259000  0.83039000  1.0
  H  H39  1  0.44571500  0.66828500  0.03918500  1.0
  H  H40  1  0.44665000  0.53747500  0.16881500  1.0
  O  O1  1  0.62731500  0.24701500  0.26034500  1.0
  O  O2  1  0.49727500  0.37475500  0.39276500  1.0
  O  O3  1  0.70608500  0.22837000  0.40964000  1.0
  O  O4  1  0.65722500  0.40703500  0.22741500  1.0
  O  O5  1  0.87429500  0.26012500  0.25309500  1.0
  O  O6  1  0.73685000  0.39245000  0.37545000  1.0
  O  O7  1  0.93459500  0.40974500  0.27149500  1.0
  O  O8  1  0.71127000  0.53174500  0.46881500  1.0
  O  O9  1  0.50305000  0.62491000  0.60709000  1.0
  O  O10  1  0.61458000  0.72904500  0.59156500  1.0
  O  O11  1  0.38498500  0.27107000  0.40813000  1.0
  O  O12  1  0.29079000  0.46684500  0.53250500  1.0
  O  O13  1  0.26157500  0.60853500  0.62340500  1.0
  O  O14  1  0.06535000  0.59031000  0.72825000  1.0
  O  O15  1  0.86534500  0.74749000  0.75957000  1.0
  O  O16  1  0.73526500  0.87582500  0.89123500  1.0
  O  O17  1  0.65556500  0.72865500  0.90949500  1.0
  O  O18  1  0.61260000  0.76036000  0.75213000  1.0
  O  O19  1  0.49572500  0.89216500  0.87526500  1.0
  O  O20  1  0.38346000  0.90943000  0.77188000  1.0
  O  O21  1  0.28994000  0.03165000  0.96872000  1.0
  O  O22  1  0.70839500  0.90692500  0.72700500  1.0
  O  O23  1  0.26478000  0.12404000  0.10834000  1.0
  O  O24  1  0.06368000  0.22687500  0.09350500  1.0
  O  O25  1  0.93548500  0.77251000  0.90690000  1.0
  O  O26  1  0.70960000  0.96825500  0.03121500  1.0
  O  O27  1  0.50446500  0.10821000  0.12415000  1.0
  O  O28  1  0.61569000  0.09028500  0.22826500  1.0
  O  O29  1  0.60752000  0.89308500  0.62503500  1.0
  O  O30  1  0.67776000  0.03137500  0.53153500  1.0
  O  O31  1  0.61432000  0.12365000  0.39088000  1.0
  O  O33  1  0.37381000  0.75153000  0.73905000  1.0
  O  O34  1  0.38129500  0.87657000  0.61075000  1.0
  O  O35  1  0.87056000  0.62444000  0.89007000  1.0
  O  O36  1  0.75922000  0.53136000  0.03137000  1.0
  O  O37  1  0.87314500  0.39145500  0.12413500  1.0
  O  O39  1  0.12589500  0.74007500  0.74671500  1.0
  O  O40  1  0.12702500  0.60928000  0.87462000  1.0
  O  O45  1  0.13468500  0.25292500  0.23989500  1.0
  O  O46  1  0.12834500  0.37508500  0.10755500  1.0
  O  O50  1  0.38772000  0.23964500  0.24713500  1.0
  O  O51  1  0.38933000  0.10776500  0.37551500  1.0
  O  O53  1  0.29492500  0.77044500  0.58888500  1.0
  O  O54  1  0.29195500  0.09251500  0.27217500  1.0
  O  O55  1  0.31944500  0.96890000  0.46872000  1.0
  O  O57  1  0.23983500  0.46754000  0.96661000  1.0
  O  O59  1  0.34321000  0.59191000  0.77097000  1.0
  O  O60  1  0.34388000  0.27172000  0.09033000  1.0
