# generated using pymatgen
data_H5C6
_symmetry_space_group_name_H-M   'P 1'
_cell_length_a   9.88840000
_cell_length_b   21.44430000
_cell_length_c   21.44430000
_cell_angle_alpha   60.00000000
_cell_angle_beta   89.99890000
_cell_angle_gamma   90.00000000
_symmetry_Int_Tables_number   1
_chemical_formula_structural   H5C6
_chemical_formula_sum   'H90 C108'
_cell_volume   3938.04256564
_cell_formula_units_Z   18
loop_
 _symmetry_equiv_pos_site_id
 _symmetry_equiv_pos_as_xyz
  1  'x, y, z'
loop_
 _atom_site_type_symbol
 _atom_site_label
 _atom_site_symmetry_multiplicity
 _atom_site_fract_x
 _atom_site_fract_y
 _atom_site_fract_z
 _atom_site_occupancy
  C  1  1  0.98160600  0.35602833  0.57746633  1
  C  2  1  0.98145500  0.35564567  0.64431333  1
  C  3  1  0.98024000  0.28916167  0.71095033  1
  C  4  1  0.98063100  0.22387800  0.70963250  1
  C  5  1  0.98115000  0.22260100  0.64433550  1
  C  6  1  0.98159600  0.28918833  0.57784950  1
  C  7  1  0.98201100  0.42259833  0.64227050  1
  C  8  1  0.98205000  0.29115933  0.51093883  1
  C  10  1  0.98159600  0.42301833  0.51045200  1
  C  11  1  0.98151600  0.48986967  0.51004683  1
  C  12  1  0.98106100  0.55645233  0.44353633  1
  C  13  1  0.98057400  0.55513433  0.37825683  1
  C  14  1  0.98026000  0.48983667  0.37697583  1
  C  15  1  0.98149500  0.42337933  0.44361817  1
  C  16  1  0.98192900  0.48788700  0.57696683  1
  C  18  1  0.98213100  0.35643200  0.44564933  1
  C  23  1  0.98162600  0.42304167  0.04393817  1
  C  24  1  0.98148000  0.48988833  0.97747400  1
  C  25  1  0.98026900  0.55652500  0.97731917  1
  C  26  1  0.98063600  0.55520733  0.04391900  1
  C  27  1  0.98115100  0.48991200  0.11049550  1
  C  28  1  0.98160700  0.42342767  0.11039267  1
  C  29  1  0.98204000  0.48784433  0.91256333  1
  C  30  1  0.98206200  0.35651367  0.17533517  1
  C  32  1  0.98161000  0.35602833  0.04396150  1
  C  33  1  0.98152600  0.35561900  0.97751667  1
  C  34  1  0.98107000  0.28911000  0.97744450  1
  C  35  1  0.98058600  0.22383067  0.04404233  1
  C  36  1  0.98027100  0.22255367  0.11062017  1
  C  37  1  0.98151500  0.28919367  0.11043600  1
  C  38  1  0.98193400  0.42254033  0.91258050  1
  C  40  1  0.98216100  0.29122367  0.17535183  1
  C  45  1  0.98162600  0.88951233  0.51045200  1
  C  46  1  0.98148400  0.82304600  0.51007217  1
  C  47  1  0.98028100  0.82289000  0.44359100  1
  C  48  1  0.98064400  0.88949167  0.37830617  1
  C  49  1  0.98115600  0.95606633  0.37702617  1
  C  50  1  0.98160700  0.95596533  0.44361333  1
  C  51  1  0.98204200  0.75813700  0.57702617  1
  C  52  1  0.98206200  0.02090933  0.44558200  1
  C  54  1  0.98161100  0.88953567  0.57744383  1
  C  55  1  0.98153100  0.82309033  0.64429667  1
  C  56  1  0.98106900  0.82301967  0.71087800  1
  C  57  1  0.98058500  0.88961833  0.70955750  1
  C  58  1  0.98027000  0.95619600  0.64425833  1
  C  59  1  0.98151500  0.95601033  0.57780200  1
  C  60  1  0.98193900  0.75815400  0.64231217  1
  C  62  1  0.98215300  0.02092533  0.51085517  1
  C  67  1  0.98093400  0.49375300  0.17501317  1
  C  68  1  0.85556900  0.49368600  0.20835267  1
  C  69  1  0.85565900  0.49372867  0.27519200  1
  C  70  1  0.98100900  0.49362900  0.30854050  1
  C  71  1  0.10621800  0.49294800  0.27560500  1
  C  72  1  0.10618200  0.49304733  0.20869733  1
  C  73  1  0.72673200  0.49328767  0.31282567  1
  C  77  1  0.72310300  0.49278600  0.17447167  1
  C  81  1  0.23910900  0.49170367  0.31046900  1
  C  85  1  0.23926700  0.49189433  0.17515500  1
  C  89  1  0.98092900  0.02058600  0.30866500  1
  C  90  1  0.85557000  0.05392800  0.27539667  1
  C  91  1  0.85566100  0.12076767  0.20851383  1
  C  92  1  0.98101900  0.15411433  0.17526533  1
  C  93  1  0.10622600  0.12118233  0.20888083  1
  C  94  1  0.10618200  0.05427267  0.27568767  1
  C  95  1  0.72674100  0.15840467  0.17132550  1
  C  99  1  0.72310600  0.02004600  0.31017600  1
  C  103  1  0.23911500  0.15604867  0.17526483  1
  C  107  1  0.23926300  0.02073233  0.31038233  1
  C  111  1  0.98092700  0.15423833  0.64817783  1
  C  112  1  0.85556000  0.12096600  0.64811100  1
  C  113  1  0.85566000  0.05408333  0.64815467  1
  C  114  1  0.98101800  0.02083900  0.64805150  1
  C  115  1  0.10622200  0.05445800  0.64736983  1
  C  116  1  0.10617700  0.12126833  0.64746750  1
  C  117  1  0.72674000  0.01689067  0.64771333  1
  C  121  1  0.72310100  0.15574433  0.64721967  1
  C  125  1  0.23911100  0.02084033  0.64612183  1
  C  129  1  0.23926200  0.15596233  0.64631833  1
  C  133  1  0.98085900  0.28519833  0.91295833  1
  C  134  1  0.85551800  0.28509567  0.87968833  1
  C  135  1  0.85563000  0.28505233  0.81284583  1
  C  136  1  0.98098400  0.28530067  0.77942317  1
  C  137  1  0.10617500  0.28572633  0.81250100  1
  C  138  1  0.10611600  0.28564033  0.87940533  1
  C  139  1  0.72671700  0.28522467  0.77533917  1
  C  143  1  0.72304200  0.28570000  0.91371217  1
  C  147  1  0.23907900  0.28661200  0.77782067  1
  C  151  1  0.23920000  0.28644767  0.91312567  1
  C  155  1  0.98086700  0.75853500  0.77927500  1
  C  156  1  0.85552000  0.72526400  0.81265417  1
  C  157  1  0.85564000  0.65841933  0.87953900  1
  C  158  1  0.98099800  0.62499667  0.91270667  1
  C  159  1  0.10618700  0.65807833  0.87919833  1
  C  160  1  0.10612200  0.72498433  0.81238200  1
  C  161  1  0.72673200  0.62090467  0.91687533  1
  C  165  1  0.72304600  0.75927967  0.77802900  1
  C  169  1  0.23909200  0.62340400  0.91298750  1
  C  173  1  0.23920100  0.75870900  0.77784933  1
  C  177  1  0.98085300  0.62485100  0.43962433  1
  C  178  1  0.85551800  0.65823000  0.43951683  1
  C  179  1  0.85564000  0.72511433  0.43947433  1
  C  180  1  0.98099900  0.75827800  0.43973267  1
  C  181  1  0.10618800  0.72477433  0.44015017  1
  C  182  1  0.10611600  0.65795733  0.44006117  1
  C  183  1  0.72673300  0.76245167  0.43965383  1
  C  187  1  0.72304000  0.62360600  0.44012333  1
  C  191  1  0.23909900  0.75856500  0.44102967  1
  C  195  1  0.23919100  0.62342700  0.44086067  1
  H  9  1  0.98051300  0.17600233  0.75749583  1
  H  17  1  0.98044300  0.60299567  0.33037433  1
  H  19  1  0.98193900  0.53431500  0.57943067  1
  H  20  1  0.98193900  0.42509333  0.68868367  1
  H  21  1  0.98209200  0.35392367  0.39924300  1
  H  22  1  0.98212100  0.24473733  0.50846150  1
  H  31  1  0.98051500  0.60307333  0.04393217  1
  H  39  1  0.98045400  0.17594933  0.04406350  1
  H  41  1  0.98195000  0.42500567  0.86368500  1
  H  42  1  0.98195200  0.53425733  0.86365367  1
  H  43  1  0.98210000  0.24481900  0.22426500  1
  H  44  1  0.98212200  0.35404033  0.22423233  1
  H  53  1  0.98051500  0.88950300  0.33042833  1
  H  61  1  0.98045300  0.88964100  0.75741850  1
  H  63  1  0.98195000  0.70926067  0.68874417  1
  H  64  1  0.98195900  0.70922867  0.57952233  1
  H  65  1  0.98209200  0.06983967  0.50834683  1
  H  66  1  0.98212100  0.06980700  0.39915917  1
  H  74  1  0.63348100  0.49404500  0.28566433  1
  H  75  1  0.72375900  0.54058100  0.31941917  1
  H  76  1  0.72288900  0.44492833  0.36593883  1
  H  78  1  0.73021200  0.49262433  0.12390417  1
  H  79  1  0.66460800  0.54059133  0.16292117  1
  H  80  1  0.66644900  0.44447433  0.21137217  1
  H  82  1  0.23175900  0.49208833  0.36091767  1
  H  83  1  0.29881800  0.53894700  0.27425933  1
  H  84  1  0.29523700  0.44312900  0.32242700  1
  H  86  1  0.23226300  0.49246500  0.12422117  1
  H  87  1  0.29529700  0.44326067  0.21173583  1
  H  88  1  0.29895800  0.53907600  0.16434033  1
  H  96  1  0.63348600  0.13124367  0.19773217  1
  H  97  1  0.72376000  0.16500067  0.11743783  1
  H  98  1  0.72290900  0.21151667  0.16657467  1
  H  100  1  0.73021300  0.96947467  0.36090400  1
  H  101  1  0.66460800  0.00849900  0.27391983  1
  H  102  1  0.66645000  0.05694133  0.32159333  1
  H  104  1  0.23176900  0.20649733  0.12443467  1
  H  105  1  0.29883100  0.11984267  0.16422867  1
  H  106  1  0.29523700  0.16800400  0.21188533  1
  H  108  1  0.23226200  0.96979367  0.36074483  1
  H  109  1  0.29529300  0.05731067  0.32243783  1
  H  110  1  0.29895900  0.00992033  0.27401250  1
  H  118  1  0.63348200  0.04329400  0.64847200  1
  H  119  1  0.72376700  0.96300333  0.69500700  1
  H  120  1  0.72289800  0.01213767  0.59935467  1
  H  122  1  0.73021000  0.20647367  0.64705917  1
  H  123  1  0.66460800  0.11948400  0.69502817  1
  H  124  1  0.66643700  0.16715433  0.59891083  1
  H  126  1  0.23176900  0.97000833  0.64650567  1
  H  127  1  0.29882600  0.00980733  0.69336467  1
  H  128  1  0.29524600  0.05746167  0.59754417  1
  H  130  1  0.23225400  0.20632500  0.64688883  1
  H  131  1  0.29530200  0.16801367  0.59768883  1
  H  132  1  0.29894200  0.11959400  0.69350400  1
  H  140  1  0.63346100  0.28437233  0.80254600  1
  H  141  1  0.72402100  0.23786567  0.76884933  1
  H  142  1  0.72261700  0.33351867  0.72218733  1
  H  144  1  0.73014100  0.28586367  0.96427800  1
  H  145  1  0.66492400  0.23776733  0.92531267  1
  H  146  1  0.66600900  0.33388633  0.87688267  1
  H  148  1  0.23173700  0.28627633  0.72734817  1
  H  149  1  0.29829100  0.23918800  0.81410900  1
  H  150  1  0.29571300  0.33501333  0.76596650  1
  H  152  1  0.23217200  0.28594233  0.96402633  1
  H  153  1  0.29573700  0.33490000  0.87660967  1
  H  154  1  0.29839300  0.23907500  0.92406500  1
  H  162  1  0.63347200  0.64810867  0.89052617  1
  H  163  1  0.72403200  0.61441333  0.97072583  1
  H  164  1  0.72263800  0.56775533  0.92172950  1
  H  166  1  0.73014100  0.80984833  0.72729933  1
  H  167  1  0.66492400  0.77087700  0.81436467  1
  H  168  1  0.66601600  0.72244733  0.76667283  1
  H  170  1  0.23175800  0.57292933  0.96379683  1
  H  171  1  0.29831000  0.65969467  0.92412317  1
  H  172  1  0.29572300  0.61155233  0.87643750  1
  H  174  1  0.23217200  0.80961100  0.72745483  1
  H  175  1  0.29573700  0.72219633  0.76590683  1
  H  176  1  0.29840200  0.76964700  0.81428033  1
  H  184  1  0.63347200  0.73610467  0.43879700  1
  H  185  1  0.72404200  0.81630433  0.39229583  1
  H  186  1  0.72263800  0.76730500  0.48795067  1
  H  188  1  0.73013100  0.57287600  0.44028617  1
  H  189  1  0.66492300  0.65994100  0.39218967  1
  H  190  1  0.66600300  0.61225000  0.48831050  1
  H  192  1  0.23176700  0.80937400  0.44069517  1
  H  193  1  0.29830300  0.76970167  0.39360083  1
  H  194  1  0.29573200  0.72201433  0.48942850  1
  H  196  1  0.23216300  0.57303333  0.44035350  1
  H  197  1  0.29574200  0.61148800  0.48931217  1
  H  198  1  0.29839100  0.65985933  0.39348750  1
