# generated using pymatgen
data_H4C8N
_symmetry_space_group_name_H-M   'P 1'
_cell_length_a   21.67840000
_cell_length_b   30.65800000
_cell_length_c   30.65800000
_cell_angle_alpha   90.00000000
_cell_angle_beta   90.00000000
_cell_angle_gamma   90.00000000
_symmetry_Int_Tables_number   1
_chemical_formula_structural   H4C8N
_chemical_formula_sum   'H128 C256 N32'
_cell_volume   20375.80919878
_cell_formula_units_Z   32
loop_
 _symmetry_equiv_pos_site_id
 _symmetry_equiv_pos_as_xyz
  1  'x, y, z'
loop_
 _atom_site_type_symbol
 _atom_site_label
 _atom_site_symmetry_multiplicity
 _atom_site_fract_x
 _atom_site_fract_y
 _atom_site_fract_z
 _atom_site_occupancy
  C  1  1  0.21499600  0.25773200  0.25144700  1
  C  2  1  0.18894700  0.29879900  0.24015300  1
  C  3  1  0.15234300  0.32258600  0.26990400  1
  C  4  1  0.14968700  0.30876000  0.31388500  1
  C  5  1  0.17641800  0.26915200  0.32703700  1
  C  6  1  0.20659000  0.24380900  0.29545900  1
  C  10  1  0.25089000  0.23224800  0.22169700  1
  C  11  1  0.28376600  0.25108700  0.18600900  1
  C  12  1  0.33658700  0.23046000  0.16833100  1
  C  13  1  0.35323100  0.18889400  0.18463100  1
  C  14  1  0.31542400  0.16693300  0.21445500  1
  C  15  1  0.26246700  0.18744100  0.23045100  1
  C  23  1  0.21498200  0.73963300  0.74589600  1
  C  24  1  0.18909900  0.69844000  0.75697000  1
  C  25  1  0.15249600  0.67476300  0.72712100  1
  C  26  1  0.14952200  0.68892600  0.68325300  1
  C  27  1  0.17628500  0.72857600  0.67029100  1
  C  28  1  0.20659100  0.75372100  0.70194300  1
  C  32  1  0.25089400  0.76503900  0.77571900  1
  C  33  1  0.28374200  0.74604900  0.81132700  1
  C  34  1  0.33643000  0.76659200  0.82925800  1
  C  35  1  0.35316500  0.80819900  0.81312800  1
  C  36  1  0.31559400  0.83025200  0.78322700  1
  C  37  1  0.26261000  0.80986600  0.76709800  1
  C  45  1  0.21479700  0.74564200  0.25770800  1
  C  46  1  0.18867500  0.75682000  0.29879700  1
  C  47  1  0.15204300  0.72697400  0.32247100  1
  C  48  1  0.14946100  0.68303500  0.30850200  1
  C  49  1  0.17637600  0.66999400  0.26892700  1
  C  50  1  0.20661900  0.70163700  0.24372600  1
  C  54  1  0.25082300  0.77542500  0.23234000  1
  C  55  1  0.28363100  0.81103400  0.25140200  1
  C  56  1  0.33649400  0.82887300  0.23100200  1
  C  57  1  0.35344100  0.81271000  0.18945400  1
  C  58  1  0.31591600  0.78284600  0.16732200  1
  C  59  1  0.26285300  0.76670300  0.18757200  1
  C  67  1  0.21460300  0.25120200  0.73960100  1
  C  68  1  0.18869800  0.23987000  0.69848600  1
  C  69  1  0.15218600  0.26961000  0.67461300  1
  C  70  1  0.14957100  0.31361000  0.68837100  1
  C  71  1  0.17615400  0.32677900  0.72802500  1
  C  72  1  0.20623200  0.29523500  0.75345400  1
  C  76  1  0.25051900  0.22147800  0.76511400  1
  C  77  1  0.28311400  0.18569600  0.74619900  1
  C  78  1  0.33606500  0.16800400  0.76661500  1
  C  79  1  0.35298600  0.18421300  0.80814400  1
  C  80  1  0.31547000  0.21413200  0.83021600  1
  C  81  1  0.26251700  0.23033000  0.80986300  1
  C  89  1  0.77996400  0.73962000  0.25108600  1
  C  90  1  0.80607600  0.69862000  0.23961700  1
  C  91  1  0.84241800  0.67459000  0.26932100  1
  C  92  1  0.84487200  0.68817200  0.31337900  1
  C  93  1  0.81818200  0.72774700  0.32669100  1
  C  94  1  0.78822400  0.75331000  0.29518100  1
  C  98  1  0.74397400  0.76516700  0.22144300  1
  C  99  1  0.71130100  0.74631300  0.18567000  1
  C  100  1  0.65820700  0.76669300  0.16816200  1
  C  101  1  0.64115600  0.80811100  0.18459700  1
  C  102  1  0.67873900  0.83017400  0.21448200  1
  C  103  1  0.73189800  0.80986900  0.23043800  1
  C  111  1  0.77941500  0.25782600  0.74555300  1
  C  112  1  0.80550100  0.29888800  0.75687200  1
  C  113  1  0.84212300  0.32268400  0.72714400  1
  C  114  1  0.84487200  0.30883100  0.68317800  1
  C  115  1  0.81805000  0.26927200  0.66997500  1
  C  116  1  0.78777800  0.24395000  0.70151900  1
  C  120  1  0.74330800  0.23240800  0.77524200  1
  C  121  1  0.71051300  0.25136000  0.81090000  1
  C  122  1  0.65771800  0.23089200  0.82876200  1
  C  123  1  0.64084400  0.18935400  0.81253100  1
  C  124  1  0.67835200  0.16729600  0.78258800  1
  C  125  1  0.73136000  0.18764800  0.76644900  1
  C  133  1  0.77908300  0.25141600  0.25790800  1
  C  134  1  0.80502600  0.24003000  0.29899100  1
  C  135  1  0.84185500  0.26968800  0.32273700  1
  C  136  1  0.84476100  0.31365800  0.30890100  1
  C  137  1  0.81786800  0.32694200  0.26939700  1
  C  138  1  0.78745100  0.29546200  0.24409200  1
  C  142  1  0.74313500  0.22176000  0.23234800  1
  C  143  1  0.71013200  0.18610100  0.25113500  1
  C  144  1  0.65751100  0.16829000  0.23039300  1
  C  145  1  0.64094600  0.18460400  0.18881600  1
  C  146  1  0.67869000  0.21455800  0.16698800  1
  C  147  1  0.73155400  0.23060900  0.18755800  1
  C  155  1  0.77936900  0.74598400  0.73963300  1
  C  156  1  0.80510200  0.75728300  0.69845700  1
  C  157  1  0.84178400  0.72760400  0.67461900  1
  C  158  1  0.84480300  0.68365800  0.68852400  1
  C  159  1  0.81827600  0.67050300  0.72820100  1
  C  160  1  0.78797400  0.70199600  0.75354800  1
  C  164  1  0.74345300  0.77567300  0.76519300  1
  C  165  1  0.71075700  0.81145500  0.74636600  1
  C  166  1  0.65794200  0.82918200  0.76693800  1
  C  167  1  0.64120400  0.81294500  0.80849900  1
  C  168  1  0.67878800  0.78298300  0.83044800  1
  C  169  1  0.73166500  0.76682400  0.80997100  1
  C  177  1  0.48893700  0.02119900  0.27124500  1
  C  178  1  0.42533900  0.03358300  0.26951200  1
  C  179  1  0.40866700  0.07753500  0.26034100  1
  C  180  1  0.45681300  0.10797100  0.25462800  1
  C  181  1  0.52020800  0.09811900  0.25848300  1
  C  182  1  0.53599300  0.05404700  0.26844500  1
  C  183  1  0.38023100  0.00049700  0.27306100  1
  C  184  1  0.59794900  0.04052600  0.27203600  1
  C  186  1  0.50522400  0.97572200  0.27151600  1
  C  187  1  0.45815500  0.94284900  0.26916200  1
  C  188  1  0.47385100  0.89864900  0.25973700  1
  C  189  1  0.53723000  0.88875600  0.25589000  1
  C  190  1  0.58542000  0.91926300  0.26107800  1
  C  191  1  0.56881600  0.96331400  0.26982000  1
  C  192  1  0.39622600  0.95639900  0.27277400  1
  C  194  1  0.61394600  0.99642700  0.27289500  1
  C  199  1  0.56020200  0.13282900  0.24610300  1
  C  200  1  0.64666400  0.90384200  0.25554300  1
  C  201  1  0.43382200  0.86394700  0.24739200  1
  C  202  1  0.34735400  0.09290000  0.25507200  1
  C  207  1  0.48896500  0.97592100  0.72590100  1
  C  208  1  0.42539400  0.96343400  0.72762000  1
  C  209  1  0.40886600  0.91945600  0.73677900  1
  C  210  1  0.45712600  0.88907500  0.74235000  1
  C  211  1  0.52048500  0.89903700  0.73853400  1
  C  212  1  0.53612700  0.94314300  0.72864100  1
  C  213  1  0.38018300  0.99644700  0.72410700  1
  C  214  1  0.59804100  0.95676700  0.72508600  1
  C  216  1  0.50511900  0.02141800  0.72575100  1
  C  217  1  0.45795200  0.05420500  0.72824300  1
  C  218  1  0.47355300  0.09838100  0.73783600  1
  C  219  1  0.53690200  0.10838100  0.74160700  1
  C  220  1  0.58517800  0.07796400  0.73630300  1
  C  221  1  0.56868200  0.03391300  0.72745400  1
  C  222  1  0.39605200  0.04056900  0.72464900  1
  C  224  1  0.61391600  0.00088800  0.72422100  1
  C  229  1  0.56057100  0.86438000  0.75090900  1
  C  230  1  0.64638900  0.09348600  0.74174400  1
  C  231  1  0.43345700  0.13302000  0.75023700  1
  C  232  1  0.34763000  0.90399800  0.74228500  1
  C  237  1  0.48917700  0.72566300  0.02155500  1
  C  238  1  0.42561000  0.72743100  0.03404100  1
  C  239  1  0.40911500  0.73636800  0.07807400  1
  C  240  1  0.45739300  0.74168200  0.10848700  1
  C  241  1  0.52073900  0.73794400  0.09848600  1
  C  242  1  0.53634400  0.72820700  0.05434200  1
  C  243  1  0.38037800  0.72418900  0.00101500  1
  C  244  1  0.59824000  0.72455400  0.04071300  1
  C  246  1  0.50533600  0.72570600  0.97605800  1
  C  247  1  0.45818100  0.72839300  0.94327000  1
  C  248  1  0.47383200  0.73819800  0.89914100  1
  C  249  1  0.53719500  0.74197900  0.88918600  1
  C  250  1  0.58544600  0.73647900  0.91958600  1
  C  251  1  0.56890800  0.72738200  0.96357500  1
  C  252  1  0.39626300  0.72490300  0.95689500  1
  C  254  1  0.61412000  0.72391500  0.99659100  1
  C  259  1  0.56083600  0.75029900  0.13314200  1
  C  260  1  0.64668400  0.74194600  0.90412200  1
  C  261  1  0.43375300  0.75052800  0.86446900  1
  C  262  1  0.34791200  0.74191700  0.09358200  1
  C  267  1  0.48897600  0.27136600  0.97575100  1
  C  268  1  0.42538600  0.26959800  0.96333300  1
  C  269  1  0.40882000  0.26077000  0.91929600  1
  C  270  1  0.45704300  0.25556700  0.88881100  1
  C  271  1  0.52041100  0.25946100  0.89871100  1
  C  272  1  0.53607000  0.26896200  0.94289500  1
  C  273  1  0.38023400  0.27267600  0.99642700  1
  C  274  1  0.59799000  0.27260600  0.95645100  1
  C  276  1  0.50523000  0.27122500  0.02123600  1
  C  277  1  0.45816300  0.26847600  0.05408500  1
  C  278  1  0.47391100  0.25872200  0.09821300  1
  C  279  1  0.53731300  0.25483100  0.10805400  1
  C  280  1  0.58546900  0.26049100  0.07761200  1
  C  281  1  0.56882800  0.26957700  0.03364000  1
  C  282  1  0.39620800  0.27195500  0.04053400  1
  C  284  1  0.61394800  0.27305300  0.00055600  1
  C  289  1  0.56044200  0.24710600  0.86400500  1
  C  290  1  0.64677800  0.25523600  0.09298000  1
  C  291  1  0.43392300  0.24625000  0.13289600  1
  C  292  1  0.34759800  0.25514700  0.90385800  1
  C  297  1  0.98930600  0.52131200  0.74618000  1
  C  298  1  0.92578000  0.53363200  0.74380500  1
  C  299  1  0.90853000  0.57829900  0.74205400  1
  C  300  1  0.95595900  0.60963200  0.73990700  1
  C  301  1  0.01918800  0.59888700  0.73972500  1
  C  302  1  0.03615400  0.55428500  0.74485500  1
  C  303  1  0.88041200  0.50060600  0.74387700  1
  C  304  1  0.09842800  0.54077500  0.74401400  1
  C  306  1  0.00570900  0.47594400  0.74615000  1
  C  307  1  0.95884200  0.44298300  0.74492400  1
  C  308  1  0.97570700  0.39836900  0.73977700  1
  C  309  1  0.03896000  0.38768000  0.73955200  1
  C  310  1  0.08651000  0.41893800  0.74168500  1
  C  311  1  0.06922000  0.46361100  0.74361900  1
  C  312  1  0.89655900  0.45649700  0.74425900  1
  C  314  1  0.11457300  0.49665900  0.74362600  1
  C  319  1  0.05882600  0.63310000  0.72655400  1
  C  320  1  0.14634700  0.40509500  0.72957700  1
  C  321  1  0.93595100  0.36419800  0.72670700  1
  C  322  1  0.84871400  0.59229800  0.73019000  1
  C  327  1  0.98897200  0.47577100  0.25074100  1
  C  328  1  0.92542700  0.46353900  0.25327700  1
  C  329  1  0.90800600  0.41891100  0.25531700  1
  C  330  1  0.95542400  0.38755900  0.25761100  1
  C  331  1  0.01869500  0.39818300  0.25741200  1
  C  332  1  0.03573900  0.44274200  0.25206600  1
  C  333  1  0.88014700  0.49662700  0.25311500  1
  C  334  1  0.09804900  0.45619000  0.25276800  1
  C  336  1  0.00548400  0.52112000  0.25059500  1
  C  337  1  0.95871800  0.55415200  0.25175500  1
  C  338  1  0.97574900  0.59876000  0.25667800  1
  C  339  1  0.03900900  0.60941600  0.25675400  1
  C  340  1  0.08637900  0.57802500  0.25487400  1
  C  341  1  0.06903000  0.53336800  0.25303700  1
  C  342  1  0.89640200  0.54072000  0.25256900  1
  C  344  1  0.11430900  0.50027700  0.25303100  1
  C  349  1  0.05837500  0.36391800  0.27036800  1
  C  350  1  0.14639300  0.59182200  0.26671200  1
  C  351  1  0.93612900  0.63297900  0.26982300  1
  C  352  1  0.84817000  0.40506800  0.26753000  1
  C  357  1  0.98890000  0.25066900  0.52123100  1
  C  358  1  0.92535000  0.25321300  0.53347200  1
  C  359  1  0.90795600  0.25535900  0.57811900  1
  C  360  1  0.95537200  0.25746200  0.60946200  1
  C  361  1  0.01863900  0.25721800  0.59883500  1
  C  362  1  0.03566600  0.25192900  0.55426300  1
  C  363  1  0.88008400  0.25304400  0.50037500  1
  C  364  1  0.09797600  0.25261500  0.54082100  1
  C  366  1  0.00541500  0.25062300  0.47587500  1
  C  367  1  0.95864900  0.25182500  0.44283300  1
  C  368  1  0.97566100  0.25703000  0.39824500  1
  C  369  1  0.03893100  0.25719300  0.38761800  1
  C  370  1  0.08632500  0.25511000  0.41898000  1
  C  371  1  0.06896700  0.25311800  0.46363100  1
  C  372  1  0.89634200  0.25254500  0.45628800  1
  C  374  1  0.11423800  0.25301400  0.49672800  1
  C  379  1  0.05837600  0.27005400  0.63311600  1
  C  380  1  0.14622100  0.26724400  0.40525800  1
  C  381  1  0.93596500  0.26979300  0.36391400  1
  C  382  1  0.84799000  0.26753300  0.59175400  1
  C  387  1  0.98849600  0.74618300  0.47571600  1
  C  388  1  0.92497900  0.74359000  0.46341500  1
  C  389  1  0.90764200  0.74139500  0.41876800  1
  C  390  1  0.95520300  0.73898400  0.38752000  1
  C  391  1  0.01846400  0.73938900  0.39817600  1
  C  392  1  0.03534800  0.74477700  0.44275500  1
  C  393  1  0.87964400  0.74377900  0.49647700  1
  C  394  1  0.09763500  0.74417000  0.45625900  1
  C  396  1  0.00491100  0.74649000  0.52108000  1
  C  397  1  0.95809300  0.74538700  0.55408000  1
  C  398  1  0.97505400  0.74067400  0.59873100  1
  C  399  1  0.03831700  0.74095800  0.60942600  1
  C  400  1  0.08573700  0.74284900  0.57806400  1
  C  401  1  0.06843200  0.74420300  0.53340000  1
  C  402  1  0.89581200  0.74444400  0.54058600  1
  C  404  1  0.11379300  0.74406300  0.50036800  1
  C  409  1  0.05824500  0.72622100  0.36404200  1
  C  410  1  0.14556800  0.73126000  0.59222000  1
  C  411  1  0.93547800  0.72744700  0.63295300  1
  C  412  1  0.84782900  0.72904900  0.40497700  1
  H  7  1  0.18890700  0.30870000  0.20830900  1
  H  8  1  0.22690200  0.21598600  0.30675100  1
  H  9  1  0.12379900  0.32596100  0.33579500  1
  H  16  1  0.27748200  0.28314700  0.17813500  1
  H  17  1  0.39158500  0.17316700  0.17322500  1
  H  18  1  0.23727500  0.17065900  0.25306100  1
  H  29  1  0.18911700  0.68843600  0.78877500  1
  H  30  1  0.22672700  0.78166500  0.69079800  1
  H  31  1  0.12369300  0.67181400  0.66123300  1
  H  38  1  0.27714900  0.71403500  0.81928600  1
  H  39  1  0.39161700  0.82379700  0.82455400  1
  H  40  1  0.23758500  0.82675600  0.74448400  1
  H  51  1  0.18828400  0.78867400  0.30864600  1
  H  52  1  0.22693300  0.69045200  0.21586100  1
  H  53  1  0.12368900  0.66103400  0.32567500  1
  H  60  1  0.27679000  0.81894000  0.28340000  1
  H  61  1  0.39200600  0.82410100  0.17396700  1
  H  62  1  0.23776100  0.74413800  0.17066000  1
  H  73  1  0.18832900  0.20798400  0.68875300  1
  H  74  1  0.22645900  0.30655700  0.78129300  1
  H  75  1  0.12380400  0.33551700  0.67107400  1
  H  82  1  0.27664800  0.17780900  0.71416200  1
  H  83  1  0.39153500  0.17282200  0.82365700  1
  H  84  1  0.23753300  0.25302600  0.82667100  1
  H  95  1  0.80626700  0.68888300  0.20772400  1
  H  96  1  0.76789700  0.78108100  0.30658200  1
  H  97  1  0.87051200  0.67076100  0.33526300  1
  H  104  1  0.71785800  0.71431500  0.17766400  1
  H  105  1  0.60257400  0.82363400  0.17328900  1
  H  106  1  0.75681900  0.82666100  0.25318600  1
  H  117  1  0.80557500  0.30870000  0.78873600  1
  H  118  1  0.76753000  0.21610400  0.69023400  1
  H  119  1  0.87058600  0.32613700  0.66124600  1
  H  126  1  0.71724000  0.28333600  0.81896000  1
  H  127  1  0.60235200  0.17379400  0.82394100  1
  H  128  1  0.75630900  0.17078600  0.74376900  1
  H  139  1  0.80524000  0.20814300  0.30872800  1
  H  140  1  0.76718600  0.30678400  0.21626200  1
  H  141  1  0.87071100  0.33549500  0.32615300  1
  H  148  1  0.71668900  0.17808700  0.28313600  1
  H  149  1  0.60260800  0.17322400  0.17305100  1
  H  150  1  0.75690200  0.25317500  0.17083300  1
  H  161  1  0.80523600  0.78914400  0.68863900  1
  H  162  1  0.76782800  0.69066400  0.78141000  1
  H  163  1  0.87076000  0.66179400  0.67131200  1
  H  170  1  0.71709800  0.81936500  0.71432500  1
  H  171  1  0.60276500  0.82434900  0.82413000  1
  H  172  1  0.75677100  0.74416700  0.82673900  1
  H  185  1  0.44493800  0.13986100  0.24910500  1
  H  193  1  0.54907800  0.85679700  0.25071200  1
  H  195  1  0.36078100  0.93466900  0.27295300  1
  H  196  1  0.33422000  0.00738200  0.27269200  1
  H  197  1  0.65994800  0.98950600  0.27246900  1
  H  198  1  0.63338500  0.06226300  0.27182000  1
  H  203  1  0.53929200  0.15901000  0.23140300  1
  H  204  1  0.68387600  0.91990600  0.26792100  1
  H  205  1  0.45473700  0.83760800  0.23297100  1
  H  206  1  0.31035800  0.07682200  0.26775800  1
  H  215  1  0.44536300  0.85715900  0.74784000  1
  H  223  1  0.54865100  0.14034200  0.74688400  1
  H  225  1  0.36055200  0.06225200  0.72453800  1
  H  226  1  0.33419300  0.98949900  0.72459300  1
  H  227  1  0.65990200  0.00784800  0.72482200  1
  H  228  1  0.63354200  0.93508600  0.72527200  1
  H  233  1  0.53972300  0.83811700  0.76550600  1
  H  234  1  0.68360100  0.07750600  0.72925400  1
  H  235  1  0.45430700  0.15937000  0.76468100  1
  H  236  1  0.31045600  0.91993800  0.72969100  1
  H  245  1  0.44564600  0.74698200  0.14044400  1
  H  253  1  0.54897600  0.74740300  0.85725700  1
  H  255  1  0.36076400  0.72505000  0.93521000  1
  H  256  1  0.33439700  0.72476000  0.00798900  1
  H  257  1  0.66010800  0.72446600  0.98964600  1
  H  258  1  0.63375000  0.72457700  0.06238900  1
  H  263  1  0.53997000  0.76468400  0.15951800  1
  H  264  1  0.68385000  0.72932000  0.92004600  1
  H  265  1  0.45461600  0.76508500  0.83819200  1
  H  266  1  0.31065800  0.72946000  0.07762700  1
  H  275  1  0.44522500  0.25036200  0.85685200  1
  H  283  1  0.54919600  0.24934800  0.13995000  1
  H  285  1  0.36076300  0.27183200  0.06226600  1
  H  286  1  0.33423400  0.27225400  0.98949000  1
  H  287  1  0.65996000  0.27264600  0.00744100  1
  H  288  1  0.63344200  0.27269400  0.93472400  1
  H  293  1  0.53952700  0.23263100  0.83769900  1
  H  294  1  0.68375800  0.26798200  0.07692900  1
  H  295  1  0.45484700  0.23161500  0.15910700  1
  H  296  1  0.31034400  0.26756500  0.91984400  1
  H  305  1  0.94404000  0.64169800  0.73563400  1
  H  313  1  0.05083600  0.35563000  0.73515200  1
  H  315  1  0.86126600  0.43461400  0.74292400  1
  H  316  1  0.83443800  0.50813400  0.74302900  1
  H  317  1  0.16054600  0.48914800  0.74265700  1
  H  318  1  0.13370700  0.56267200  0.74263400  1
  H  323  1  0.03886800  0.65794500  0.70903800  1
  H  324  1  0.15428500  0.40901500  0.69694000  1
  H  325  1  0.95576100  0.33927200  0.70920100  1
  H  326  1  0.84007000  0.58809400  0.69763500  1
  H  335  1  0.94344900  0.35552500  0.26200900  1
  H  343  1  0.05098900  0.64148300  0.26092100  1
  H  345  1  0.86116900  0.56265800  0.25381200  1
  H  346  1  0.83415400  0.48916700  0.25407400  1
  H  347  1  0.16030200  0.50773300  0.25395900  1
  H  348  1  0.13329800  0.43428400  0.25418900  1
  H  353  1  0.03859900  0.33899100  0.28786600  1
  H  354  1  0.15370000  0.58716400  0.29937100  1
  H  355  1  0.95596900  0.65785700  0.28737200  1
  H  356  1  0.84141700  0.40940700  0.30029200  1
  H  365  1  0.94338700  0.26188100  0.64148600  1
  H  373  1  0.05092100  0.26151600  0.35557700  1
  H  375  1  0.86108800  0.25388900  0.43438200  1
  H  376  1  0.83409000  0.25401600  0.50781800  1
  H  377  1  0.16023200  0.25396500  0.48927800  1
  H  378  1  0.13321900  0.25400800  0.56273700  1
  H  383  1  0.03852600  0.28757900  0.65801400  1
  H  384  1  0.15422100  0.29985100  0.40937100  1
  H  385  1  0.95576600  0.28711800  0.33886400  1
  H  386  1  0.84098800  0.30023700  0.58753900  1
  H  395  1  0.94333400  0.73439500  0.35549900  1
  H  403  1  0.05026000  0.73697500  0.64153200  1
  H  405  1  0.86054700  0.74328300  0.56250500  1
  H  406  1  0.83366700  0.74279400  0.48897800  1
  H  407  1  0.15977000  0.74327000  0.50789300  1
  H  408  1  0.13292300  0.74270300  0.43437900  1
  H  413  1  0.03846100  0.70846400  0.33929400  1
  H  414  1  0.15460400  0.69879900  0.58738900  1
  H  415  1  0.95556700  0.71003300  0.65783100  1
  H  416  1  0.84114000  0.69627800  0.40888800  1
  N  19  1  0.33583100  0.13016800  0.23336700  1
  N  20  1  0.37246900  0.25218000  0.13887300  1
  N  21  1  0.16597100  0.25082100  0.36664100  1
  N  22  1  0.11494200  0.35453700  0.25412300  1
  N  41  1  0.33662400  0.86683700  0.76431200  1
  N  42  1  0.37224900  0.74473500  0.85864300  1
  N  43  1  0.16560100  0.74723700  0.63089500  1
  N  44  1  0.11532900  0.64262500  0.74281000  1
  N  63  1  0.33711300  0.76398900  0.13075200  1
  N  64  1  0.37226200  0.85820600  0.25296400  1
  N  65  1  0.16620600  0.63042500  0.25047100  1
  N  66  1  0.11460600  0.74268000  0.35444200  1
  N  85  1  0.33681300  0.23300400  0.86672900  1
  N  86  1  0.37188500  0.13867600  0.74468600  1
  N  87  1  0.16590700  0.36650100  0.74616300  1
  N  88  1  0.11490100  0.25381200  0.64260200  1
  N  107  1  0.65762400  0.86670600  0.23345200  1
  N  108  1  0.62242000  0.74481000  0.13878100  1
  N  109  1  0.82824000  0.74578500  0.36648500  1
  N  110  1  0.87970200  0.64259800  0.25347500  1
  N  129  1  0.65729200  0.13068400  0.76374100  1
  N  130  1  0.62197800  0.25275600  0.85819600  1
  N  131  1  0.82827200  0.25101500  0.63030500  1
  N  132  1  0.87942700  0.35468400  0.74294700  1
  N  151  1  0.65831800  0.23350200  0.13022700  1
  N  152  1  0.62163400  0.13882200  0.25209400  1
  N  153  1  0.82817600  0.36658300  0.25111300  1
  N  154  1  0.87922000  0.25379100  0.35465100  1
  N  173  1  0.65768400  0.76404100  0.86700000  1
  N  174  1  0.62207600  0.85857800  0.74512900  1
  N  175  1  0.82885800  0.63091500  0.74651600  1
  N  176  1  0.87887400  0.74348900  0.64253300  1
