# generated using pymatgen
data_Cr3H16C24O13
_symmetry_space_group_name_H-M   'P 1'
_cell_length_a   10.90373000
_cell_length_b   11.01191409
_cell_length_c   18.75831000
_cell_angle_alpha   90.90906149
_cell_angle_beta   90.16587000
_cell_angle_gamma   119.59723373
_symmetry_Int_Tables_number   1
_chemical_formula_structural   Cr3H16C24O13
_chemical_formula_sum   'Cr6 H32 C48 O26'
_cell_volume   1958.04571676
_cell_formula_units_Z   2
loop_
 _symmetry_equiv_pos_site_id
 _symmetry_equiv_pos_as_xyz
  1  'x, y, z'
loop_
 _atom_site_type_symbol
 _atom_site_label
 _atom_site_symmetry_multiplicity
 _atom_site_fract_x
 _atom_site_fract_y
 _atom_site_fract_z
 _atom_site_occupancy
  C  C0  1  0.70687000  0.48176000  0.35257000  1
  C  C1  1  0.22510000  0.51876000  0.64736000  1
  C  C2  1  0.09492500  0.55293000  0.46809000  1
  C  C3  1  0.54227000  0.45630000  0.53100000  1
  C  C4  1  0.60957000  0.91548000  0.56062000  1
  C  C5  1  0.69942000  0.08226000  0.43881000  1
  C  C6  1  0.79637500  0.85840000  0.54016000  1
  C  C7  1  0.92044500  0.06758000  0.44266000  1
  C  C8  1  0.92086000  0.88254000  0.50816000  1
  C  C9  1  0.98599000  0.99132000  0.46106000  1
  C  C10  1  0.78519000  0.03182000  0.46848000  1
  C  C11  1  0.73213000  0.93764000  0.52483000  1
  C  C12  1  0.57529000  0.05812000  0.47475000  1
  C  C13  1  0.52116000  0.95950000  0.52839000  1
  C  C14  1  0.50110000  0.12818000  0.45714000  1
  C  C15  1  0.38043000  0.91064000  0.54987000  1
  C  C16  1  0.36921000  0.08994000  0.48510000  1
  C  C17  1  0.30641000  0.97722000  0.52976000  1
  C  C18  1  0.07847500  0.44816000  0.06563500  1
  C  C19  1  0.66021000  0.52556000  0.92857500  1
  C  C20  1  0.13226500  0.48469000  0.91215000  1
  C  C21  1  0.64582500  0.50157000  0.08444000  1
  C  C22  1  0.10007000  0.45404000  0.35312000  1
  C  C23  1  0.64635000  0.54438000  0.64749000  1
  C  C24  1  0.07772000  0.35876000  0.94473000  1
  C  C25  1  0.70528000  0.62481000  0.05096500  1
  C  C26  1  0.02779500  0.34262000  0.01834500  1
  C  C27  1  0.67661500  0.62734000  0.97487000  1
  C  C28  1  0.69292000  0.08131000  0.06732000  1
  C  C29  1  0.68033500  0.03282000  0.91358000  1
  C  C30  1  0.60622000  0.08346000  0.94704000  1
  C  C31  1  0.63355000  0.13021000  0.02180000  1
  C  C32  1  0.71284000  0.12334000  0.36315000  1
  C  C33  1  0.58757000  0.87568000  0.63683000  1
  C  C34  1  0.70193500  0.47808000  0.15021000  1
  C  C35  1  0.22270500  0.52016000  0.84944500  1
  C  C36  1  0.03763000  0.41890000  0.13928000  1
  C  C37  1  0.64593500  0.54828000  0.85401500  1
  C  C38  1  0.70857500  0.12273000  0.14160000  1
  C  C39  1  0.62582000  0.94632000  0.84952000  1
  C  C40  1  0.15270500  0.49452000  0.42573000  1
  C  C41  1  0.65642500  0.50254000  0.57473000  1
  C  C42  1  0.14689000  0.48116000  0.58037000  1
  C  C43  1  0.67000000  0.52124000  0.42001000  1
  C  C44  1  0.11855000  0.56868000  0.54535000  1
  C  C45  1  0.55007000  0.44214000  0.45345000  1
  C  C46  1  0.07354000  0.23007000  0.91153500  1
  C  C47  1  0.80482000  0.76286000  0.08736000  1
  Cr  Cr48  1  0.62260000  0.22794000  0.25208000  1
  Cr  Cr49  1  0.39466000  0.77206000  0.74792000  1
  Cr  Cr50  1  0.93594000  0.53840000  0.25015000  1
  Cr  Cr51  1  0.39754000  0.46160000  0.74985000  1
  Cr  Cr52  1  0.93237000  0.22460000  0.25020000  1
  Cr  Cr53  1  0.70777000  0.77540000  0.74980000  1
  H  H54  1  0.11450000  0.65366000  0.57306000  1
  H  H55  1  0.45878000  0.36314000  0.42421000  1
  H  H56  1  0.96127500  0.23756000  0.03711500  1
  H  H57  1  0.68221500  0.72228000  0.95498500  1
  H  H58  1  0.12050000  0.56883000  0.93585500  1
  H  H59  1  0.56175000  0.40920000  0.05798000  1
  H  H60  1  0.14982000  0.55530000  0.05099000  1
  H  H61  1  0.65410000  0.42874000  0.94517000  1
  H  H62  1  0.51572000  0.08103000  0.92119000  1
  H  H63  1  0.59290000  0.19680000  0.04122000  1
  H  H64  1  0.77495000  0.04175000  0.93730000  1
  H  H65  1  0.73045000  0.01096000  0.05049000  1
  H  H66  1  0.02639000  0.58886000  0.44608000  1
  H  H67  1  0.43952500  0.42966000  0.55218000  1
  H  H68  1  0.13026000  0.38514000  0.55434000  1
  H  H69  1  0.75411000  0.61200000  0.44731000  1
  H  H70  1  0.22228000  0.45918000  0.44685000  1
  H  H71  1  0.75987000  0.52948000  0.55460000  1
  H  H72  1  0.96504000  0.81584000  0.51940000  1
  H  H73  1  0.08409000  0.01330000  0.43656000  1
  H  H74  1  0.74139000  0.76970000  0.57147000  1
  H  H75  1  0.97705000  0.15380000  0.40850000  1
  H  H76  1  0.32893000  0.82384000  0.58453000  1
  H  H77  1  0.54601000  0.21300000  0.42175000  1
  H  H78  1  0.31503000  0.14612000  0.47122000  1
  H  H79  1  0.20274000  0.94400000  0.55071000  1
  H  H80  1  0.01281000  0.13607000  0.94415500  1
  H  H81  1  0.02295500  0.20750000  0.85784000  1
  H  H82  1  0.18130000  0.24379000  0.90880500  1
  H  H83  1  0.82129500  0.85192000  0.05401500  1
  H  H84  1  0.76075500  0.77294000  0.13901500  1
  H  H85  1  0.91001000  0.77240000  0.09577000  1
  O  O86  1  0.59253000  0.08646000  0.33201000  1
  O  O87  1  0.50607000  0.91354000  0.66799000  1
  O  O88  1  0.05152000  0.52584000  0.17558000  1
  O  O89  1  0.52568000  0.47416000  0.82442000  1
  O  O90  1  0.07264000  0.33506000  0.16966000  1
  O  O91  1  0.73758000  0.66494000  0.83034000  1
  O  O92  1  0.80245000  0.10802000  0.17714000  1
  O  O93  1  0.69443000  0.89198000  0.82286000  1
  O  O94  1  0.83031000  0.33032000  0.25081000  1
  O  O95  1  0.49999000  0.66968000  0.74919000  1
  O  O96  1  0.63622000  0.35724000  0.32590000  1
  O  O97  1  0.27898000  0.64276000  0.67410000  1
  O  O98  1  0.82678000  0.56936000  0.33054000  1
  O  O99  1  0.25742000  0.43064000  0.66946000  1
  O  O100  1  0.05325000  0.52572000  0.32335000  1
  O  O101  1  0.52753000  0.47428000  0.67665000  1
  O  O102  1  0.07449000  0.33492000  0.32906000  1
  O  O103  1  0.73957000  0.66508000  0.67094000  1
  O  O104  1  0.80417000  0.10790000  0.32490000  1
  O  O105  1  0.69627000  0.89210000  0.67510000  1
  O  O106  1  0.59067000  0.08660000  0.17261000  1
  O  O107  1  0.50407000  0.91340000  0.82739000  1
  O  O108  1  0.63451000  0.35738000  0.17814000  1
  O  O109  1  0.27713000  0.64262000  0.82186000  1
  O  O110  1  0.82492000  0.56950000  0.17114000  1
  O  O111  1  0.25542000  0.43050000  0.82886000  1
