# generated using pymatgen
data_H11C18(N2O)2
_symmetry_space_group_name_H-M   'P 1'
_cell_length_a   44.07500000
_cell_length_b   44.07500000
_cell_length_c   44.07500000
_cell_angle_alpha   90.00000000
_cell_angle_beta   90.00000000
_cell_angle_gamma   90.00000000
_symmetry_Int_Tables_number   1
_chemical_formula_structural   H11C18(N2O)2
_chemical_formula_sum   'H176 C288 N64 O32'
_cell_volume   85620.34292188
_cell_formula_units_Z   16
loop_
 _symmetry_equiv_pos_site_id
 _symmetry_equiv_pos_as_xyz
  1  'x, y, z'
loop_
 _atom_site_type_symbol
 _atom_site_label
 _atom_site_symmetry_multiplicity
 _atom_site_fract_x
 _atom_site_fract_y
 _atom_site_fract_z
 _atom_site_occupancy
  H  7  1  0.94825400  0.01016800  0.02964100  1
  H  16  1  0.02501900  0.03014200  0.98448800  1
  H  19  1  0.02682400  0.95030500  0.98350500  1
  H  20  1  0.94462600  0.95752500  0.96961500  1
  H  21  1  0.98731700  0.93100600  0.09526600  1
  H  22  1  0.98463700  0.02936900  0.88115000  1
  H  27  1  0.02762800  0.07774200  0.94119600  1
  H  28  1  0.04444600  0.92266400  0.03893300  1
  H  29  1  0.95254700  0.98962700  0.10571600  1
  H  30  1  0.92598500  0.98338500  0.91365400  1
  H  37  1  0.55072300  0.98870600  0.52979700  1
  H  46  1  0.47403300  0.96860800  0.48451700  1
  H  49  1  0.47211800  0.04841000  0.48351000  1
  H  50  1  0.55440300  0.04128300  0.46977200  1
  H  51  1  0.51136200  0.06781700  0.59535100  1
  H  52  1  0.51452100  0.96949300  0.38122700  1
  H  57  1  0.47149900  0.92103000  0.44120200  1
  H  58  1  0.45432300  0.07601600  0.53891100  1
  H  59  1  0.54655900  0.00954800  0.60596200  1
  H  60  1  0.57274200  0.01556800  0.41359700  1
  H  67  1  0.24666100  0.70156100  0.27996400  1
  H  76  1  0.21849800  0.77894900  0.23712100  1
  H  79  1  0.29557800  0.78624200  0.23189600  1
  H  80  1  0.29217700  0.70076500  0.21735400  1
  H  81  1  0.32755300  0.74615300  0.33987700  1
  H  82  1  0.21171100  0.73580500  0.13450900  1
  H  87  1  0.16953700  0.78289500  0.19957800  1
  H  88  1  0.32544700  0.80544100  0.28581300  1
  H  89  1  0.27366800  0.70485100  0.35359300  1
  H  90  1  0.26147500  0.67926900  0.16484200  1
  H  97  1  0.25187500  0.29748600  0.77969800  1
  H  106  1  0.28064700  0.22005900  0.73705000  1
  H  109  1  0.20380300  0.21232600  0.73166400  1
  H  110  1  0.20679300  0.29799700  0.71695700  1
  H  111  1  0.17107300  0.25249000  0.83937400  1
  H  112  1  0.28772100  0.26329400  0.63448900  1
  H  117  1  0.32968600  0.21613600  0.69965300  1
  H  118  1  0.17384100  0.19306900  0.78548100  1
  H  119  1  0.22475900  0.29435100  0.85324300  1
  H  120  1  0.23782200  0.32020600  0.66475500  1
  H  127  1  0.76331900  0.29470200  0.72091900  1
  H  136  1  0.78960200  0.21993200  0.76260900  1
  H  139  1  0.70774800  0.21470400  0.77011900  1
  H  140  1  0.71219100  0.29366500  0.78539500  1
  H  141  1  0.68048800  0.25560300  0.66013200  1
  H  142  1  0.79370600  0.25882000  0.86714500  1
  H  147  1  0.83786000  0.21540100  0.79798100  1
  H  148  1  0.67754500  0.19607200  0.71718400  1
  H  149  1  0.73903300  0.29031900  0.64608500  1
  H  150  1  0.74025400  0.31223800  0.83969100  1
  H  157  1  0.73576800  0.70442000  0.22107600  1
  H  166  1  0.70954500  0.77908100  0.26281800  1
  H  169  1  0.79151400  0.78431100  0.27026700  1
  H  170  1  0.78708100  0.70545700  0.28557700  1
  H  171  1  0.81852500  0.74349600  0.16017100  1
  H  172  1  0.70545200  0.74006600  0.36730600  1
  H  177  1  0.66126600  0.78351000  0.29818900  1
  H  178  1  0.82167200  0.80293400  0.21726600  1
  H  179  1  0.75998200  0.70887100  0.14618900  1
  H  180  1  0.75891500  0.68593800  0.33955500  1
  H  187  1  0.45437300  0.50169500  0.52935000  1
  H  196  1  0.52988500  0.53583000  0.48991300  1
  H  199  1  0.54081000  0.45802800  0.47924200  1
  H  200  1  0.45801500  0.45797800  0.46333700  1
  H  201  1  0.49984100  0.41827600  0.58480500  1
  H  202  1  0.48867800  0.54563800  0.38650700  1
  H  207  1  0.53305300  0.58613700  0.45664000  1
  H  208  1  0.56079600  0.42577400  0.53076600  1
  H  209  1  0.45857700  0.47243300  0.60168800  1
  H  210  1  0.43634700  0.48959300  0.41195200  1
  H  217  1  0.04453200  0.49781700  0.02942100  1
  H  226  1  0.96909800  0.46317000  0.99001900  1
  H  229  1  0.95776300  0.54075800  0.97928500  1
  H  230  1  0.04071600  0.54123600  0.96340100  1
  H  231  1  0.99851800  0.58101400  0.08473800  1
  H  232  1  0.01045600  0.45337300  0.88665700  1
  H  237  1  0.96594400  0.41293500  0.95686000  1
  H  238  1  0.93761300  0.57300300  0.03074700  1
  H  239  1  0.04033300  0.52719400  0.10174300  1
  H  240  1  0.06264900  0.50959900  0.91215400  1
  H  253  1  0.79824400  0.83641300  0.12409100  1
  H  254  1  0.87263500  0.89068800  0.18333100  1
  H  255  1  0.84534800  0.84987200  0.20636000  1
  H  256  1  0.92777500  0.95328600  0.13676900  1
  H  257  1  0.87478800  0.94578800  0.05737000  1
  H  258  1  0.84358900  0.90913700  0.08250100  1
  H  273  1  0.70034700  0.16305500  0.62372300  1
  H  274  1  0.62667500  0.10823100  0.68335300  1
  H  275  1  0.65407600  0.14898600  0.70636000  1
  H  276  1  0.57156400  0.04538000  0.63713000  1
  H  277  1  0.62327400  0.05406100  0.55701200  1
  H  278  1  0.65455900  0.09072000  0.58201500  1
  H  293  1  0.42026500  0.54500500  0.36856900  1
  H  294  1  0.33859800  0.59099000  0.42518700  1
  H  295  1  0.36924100  0.55302100  0.44918400  1
  H  296  1  0.28734900  0.65867900  0.38122300  1
  H  297  1  0.33800600  0.64912300  0.30054900  1
  H  298  1  0.36783900  0.61067500  0.32457900  1
  H  313  1  0.07916400  0.45489300  0.86843300  1
  H  314  1  0.16031500  0.40811600  0.92514800  1
  H  315  1  0.12951700  0.44582400  0.94935900  1
  H  316  1  0.21093200  0.33993600  0.88121100  1
  H  317  1  0.16212000  0.35178700  0.79970700  1
  H  318  1  0.13240100  0.39026200  0.82383700  1
  H  333  1  0.69107200  0.81992300  0.38874400  1
  H  334  1  0.61306600  0.87260100  0.33283500  1
  H  335  1  0.63656300  0.82920900  0.31058000  1
  H  336  1  0.58124100  0.95477900  0.36869400  1
  H  337  1  0.62916600  0.94166800  0.45048200  1
  H  338  1  0.64942300  0.89535100  0.43037800  1
  H  353  1  0.80844500  0.17934000  0.88877800  1
  H  354  1  0.88569000  0.12600900  0.83243300  1
  H  355  1  0.86217800  0.16938300  0.81016200  1
  H  356  1  0.91776700  0.04406100  0.86859200  1
  H  357  1  0.87037100  0.05766900  0.95061100  1
  H  358  1  0.85004900  0.10390000  0.93039400  1
  H  373  1  0.08555300  0.53988900  0.13016500  1
  H  374  1  0.13905800  0.61716600  0.07402000  1
  H  375  1  0.09988000  0.58893000  0.04920200  1
  H  376  1  0.20673100  0.66618300  0.11928100  1
  H  377  1  0.19180000  0.61836600  0.20086100  1
  H  378  1  0.15321700  0.58928400  0.17594800  1
  H  393  1  0.41312500  0.45967300  0.63002100  1
  H  394  1  0.36075100  0.38134100  0.57427100  1
  H  395  1  0.39983900  0.40970200  0.54945200  1
  H  396  1  0.29268100  0.33266200  0.61931200  1
  H  397  1  0.30729900  0.38071000  0.70081200  1
  H  398  1  0.34591000  0.40979000  0.67593900  1
  H  413  1  0.18639200  0.17069600  0.88124100  1
  H  414  1  0.13176900  0.10141300  0.81634000  1
  H  415  1  0.16354500  0.13922100  0.79375100  1
  H  416  1  0.06442400  0.04772000  0.85739800  1
  H  417  1  0.08583200  0.08177100  0.94423400  1
  H  418  1  0.12668700  0.11011400  0.92246200  1
  H  433  1  0.31245600  0.82834700  0.38133200  1
  H  434  1  0.36760500  0.89711400  0.31633100  1
  H  435  1  0.33579300  0.85931900  0.29380100  1
  H  436  1  0.43474300  0.95104900  0.35740700  1
  H  437  1  0.41328400  0.91703900  0.44424300  1
  H  438  1  0.37243100  0.88870300  0.42247100  1
  H  453  1  0.58745300  0.44465100  0.62712400  1
  H  454  1  0.64917500  0.37747500  0.56657700  1
  H  455  1  0.60857800  0.40444700  0.54282500  1
  H  456  1  0.70891900  0.31987300  0.61357900  1
  H  457  1  0.69342200  0.36572400  0.69621300  1
  H  458  1  0.65876100  0.39872900  0.67056100  1
  H  473  1  0.91108800  0.55416900  0.12715100  1
  H  474  1  0.84926100  0.62124600  0.06660100  1
  H  475  1  0.88985400  0.59428700  0.04284000  1
  H  476  1  0.78967400  0.67898100  0.11360900  1
  H  477  1  0.80538400  0.63335200  0.19632300  1
  H  478  1  0.83989100  0.60020600  0.17064900  1
  H  493  1  0.31001900  0.18889800  0.60739000  1
  H  494  1  0.36441700  0.11962100  0.67251900  1
  H  495  1  0.33577500  0.15991100  0.69489300  1
  H  496  1  0.42524300  0.05954200  0.63170700  1
  H  497  1  0.40016800  0.08824200  0.54388200  1
  H  498  1  0.36301800  0.12117200  0.56591900  1
  H  513  1  0.18901000  0.80996900  0.10733800  1
  H  514  1  0.13480100  0.87938500  0.17247700  1
  H  515  1  0.16358600  0.83920100  0.19485400  1
  H  516  1  0.07367000  0.93923300  0.13170300  1
  H  517  1  0.09857500  0.91039100  0.04388100  1
  H  518  1  0.13582300  0.87756300  0.06588400  1
  H  533  1  0.92909100  0.44098000  0.86573600  1
  H  534  1  0.87905600  0.36102500  0.92131400  1
  H  535  1  0.92178500  0.38572900  0.94358900  1
  H  536  1  0.79977300  0.32413400  0.88390000  1
  H  537  1  0.80969000  0.37517000  0.80354400  1
  H  538  1  0.85447700  0.39794900  0.82436500  1
  H  553  1  0.56969500  0.55837500  0.36538600  1
  H  554  1  0.62038100  0.63756300  0.42147000  1
  H  555  1  0.57767900  0.61281000  0.44374100  1
  H  556  1  0.69954200  0.67457700  0.38393400  1
  H  557  1  0.68900500  0.62432000  0.30316700  1
  H  558  1  0.64426300  0.60149300  0.32402900  1
  C  1  1  0.98844700  0.99143900  0.01144300  1
  C  2  1  0.96664300  0.99667400  0.03430500  1
  C  3  1  0.96946100  0.98336200  0.06328800  1
  C  4  1  0.99485600  0.96463500  0.06955000  1
  C  5  1  0.01740200  0.95970000  0.04707200  1
  C  6  1  0.01374400  0.97263700  0.01786600  1
  C  9  1  0.98449400  0.00462100  0.98226400  1
  C  10  1  0.95907400  0.99757700  0.96384600  1
  C  11  1  0.95578900  0.01103700  0.93475700  1
  C  12  1  0.97870900  0.03070900  0.92366900  1
  C  13  1  0.00412200  0.03769100  0.94200600  1
  C  14  1  0.00666900  0.02484400  0.97115600  1
  C  23  1  0.02658600  0.05701300  0.93229700  1
  C  24  1  0.04156200  0.94044000  0.05254300  1
  C  25  1  0.94633200  0.98724200  0.08416200  1
  C  26  1  0.93056100  0.00518400  0.91700300  1
  C  31  1  0.51052500  0.00735300  0.51152300  1
  C  32  1  0.53230200  0.00216800  0.53442300  1
  C  33  1  0.52942700  0.01551800  0.56338500  1
  C  34  1  0.50396800  0.03416900  0.56961300  1
  C  35  1  0.48145400  0.03905200  0.54709500  1
  C  36  1  0.48518200  0.02611400  0.51789900  1
  C  39  1  0.51454300  0.99416000  0.48235700  1
  C  40  1  0.53998600  0.00122300  0.46397700  1
  C  41  1  0.54329700  0.98780000  0.43487700  1
  C  42  1  0.52041100  0.96811300  0.42375000  1
  C  43  1  0.49498800  0.96109300  0.44205800  1
  C  44  1  0.49239700  0.97392600  0.47121300  1
  C  53  1  0.47254900  0.94176300  0.43231300  1
  C  54  1  0.45723400  0.05825000  0.55252900  1
  C  55  1  0.55247400  0.01164600  0.58431800  1
  C  56  1  0.56854900  0.99369700  0.41717100  1
  C  61  1  0.26015700  0.74374400  0.26157500  1
  C  62  1  0.25875900  0.72101200  0.28411300  1
  C  63  1  0.27436000  0.72412000  0.31188900  1
  C  64  1  0.29110400  0.75097900  0.31755900  1
  C  65  1  0.29193400  0.77458200  0.29564800  1
  C  66  1  0.27711400  0.77048400  0.26740300  1
  C  69  1  0.24505000  0.73920800  0.23335200  1
  C  70  1  0.25131000  0.71374700  0.21466100  1
  C  71  1  0.23542800  0.70953100  0.18695400  1
  C  72  1  0.21425800  0.73171600  0.17721900  1
  C  73  1  0.20821800  0.75734100  0.19561100  1
  C  74  1  0.22329000  0.76059000  0.22362100  1
  C  83  1  0.18797000  0.77950300  0.18698700  1
  C  84  1  0.30918000  0.80033800  0.30059700  1
  C  85  1  0.27497900  0.69975700  0.33168700  1
  C  86  1  0.23991400  0.68393900  0.16927300  1
  C  91  1  0.23879300  0.25514200  0.76137000  1
  C  92  1  0.23991400  0.27794900  0.78384800  1
  C  93  1  0.22423900  0.27479100  0.81156900  1
  C  94  1  0.20766700  0.24783900  0.81725200  1
  C  95  1  0.20710400  0.22416000  0.79541000  1
  C  96  1  0.22201100  0.22829000  0.76721300  1
  C  99  1  0.25398100  0.25972100  0.73319300  1
  C  100  1  0.24772300  0.28516600  0.71447800  1
  C  101  1  0.26373500  0.28945900  0.68686100  1
  C  102  1  0.28499800  0.26733300  0.67719300  1
  C  103  1  0.29102200  0.24171100  0.69558900  1
  C  104  1  0.27585500  0.23841400  0.72354400  1
  C  113  1  0.31130800  0.21957400  0.68699300  1
  C  114  1  0.18997900  0.19832000  0.80035600  1
  C  115  1  0.22320000  0.29918800  0.83125100  1
  C  116  1  0.25925800  0.31504000  0.66922100  1
  C  121  1  0.74624800  0.25412800  0.73987300  1
  C  122  1  0.74970600  0.27622700  0.71697600  1
  C  123  1  0.73460000  0.27346600  0.68889400  1
  C  124  1  0.71564800  0.24799300  0.68367500  1
  C  125  1  0.71233100  0.22519000  0.70621700  1
  C  126  1  0.72733100  0.22867800  0.73448200  1
  C  129  1  0.76124100  0.25812400  0.76814100  1
  C  130  1  0.75357500  0.28234100  0.78784300  1
  C  131  1  0.76890500  0.28593800  0.81593600  1
  C  132  1  0.79139900  0.26461000  0.82462200  1
  C  133  1  0.79916500  0.24037000  0.80497800  1
  C  134  1  0.78404100  0.23744800  0.77691200  1
  C  143  1  0.82098500  0.21916100  0.81245100  1
  C  144  1  0.69322700  0.20062100  0.70164000  1
  C  145  1  0.73750200  0.29642200  0.66772100  1
  C  146  1  0.76221000  0.31001000  0.83501300  1
  C  151  1  0.75292600  0.74495100  0.24004500  1
  C  152  1  0.74939300  0.72288400  0.21712700  1
  C  153  1  0.76445600  0.72565800  0.18902100  1
  C  154  1  0.78342400  0.75112000  0.18379800  1
  C  155  1  0.78681100  0.77388500  0.20636500  1
  C  156  1  0.77185700  0.77038400  0.23465200  1
  C  159  1  0.73796900  0.74093500  0.26832700  1
  C  160  1  0.74568100  0.71671500  0.28800900  1
  C  161  1  0.73031400  0.71303700  0.31607000  1
  C  162  1  0.70779100  0.73432800  0.32477800  1
  C  163  1  0.70000200  0.75858400  0.30516400  1
  C  164  1  0.71513500  0.76156500  0.27710700  1
  C  173  1  0.67814600  0.77974800  0.31265100  1
  C  174  1  0.80591900  0.79844600  0.20177700  1
  C  175  1  0.76146800  0.70274100  0.16781900  1
  C  176  1  0.73704400  0.68897600  0.33510600  1
  C  181  1  0.49704100  0.49028500  0.51067700  1
  C  182  1  0.47401900  0.48972900  0.53295100  1
  C  183  1  0.47728200  0.47261700  0.55979300  1
  C  184  1  0.50436500  0.45596800  0.56461300  1
  C  185  1  0.52816800  0.45685500  0.54290000  1
  C  186  1  0.52407900  0.47355400  0.51568900  1
  C  189  1  0.49231100  0.50683400  0.48333100  1
  C  190  1  0.46799500  0.49977300  0.46348000  1
  C  191  1  0.46341700  0.51686900  0.43657900  1
  C  192  1  0.48405000  0.54035200  0.42892800  1
  C  193  1  0.50857200  0.54731900  0.44850100  1
  C  194  1  0.51226300  0.53066600  0.47559600  1
  C  203  1  0.52945200  0.56965400  0.44169000  1
  C  204  1  0.55433000  0.43992100  0.54708100  1
  C  205  1  0.45316600  0.47110100  0.57983400  1
  C  206  1  0.43897400  0.51119900  0.41765600  1
  C  211  1  0.00176200  0.50886700  0.01075600  1
  C  212  1  0.02480100  0.50964500  0.03300800  1
  C  213  1  0.02143300  0.52679100  0.05981600  1
  C  214  1  0.99423500  0.54324700  0.06463000  1
  C  215  1  0.97042300  0.54214200  0.04293700  1
  C  216  1  0.97461100  0.52541800  0.01575700  1
  C  219  1  0.00658000  0.49228800  0.98343700  1
  C  220  1  0.03088700  0.49940600  0.96359400  1
  C  221  1  0.03554600  0.48228700  0.93672100  1
  C  222  1  0.01499600  0.45872900  0.92907800  1
  C  223  1  0.99047700  0.45170700  0.94863700  1
  C  224  1  0.98671600  0.46837400  0.97571400  1
  C  233  1  0.96966300  0.42930700  0.94181700  1
  C  234  1  0.94416100  0.55892900  0.04709300  1
  C  235  1  0.04552200  0.52859900  0.07982000  1
  C  236  1  0.06000300  0.48798600  0.91783100  1
  C  241  1  0.90427200  0.95373300  0.09450700  1
  C  242  1  0.87943300  0.94034200  0.07947700  1
  C  243  1  0.86117500  0.91872300  0.09421700  1
  C  244  1  0.86771600  0.91013700  0.12447400  1
  C  246  1  0.90984400  0.94485500  0.12479300  1
  C  247  1  0.85115800  0.88715100  0.14009900  1
  C  248  1  0.85675800  0.87936000  0.17075800  1
  C  249  1  0.84071700  0.85530100  0.18430400  1
  C  250  1  0.81894300  0.83871800  0.16756800  1
  C  251  1  0.81362400  0.84763900  0.13735000  1
  C  261  1  0.59443000  0.04551600  0.59451800  1
  C  262  1  0.61893600  0.05924300  0.57924400  1
  C  263  1  0.63724100  0.08087100  0.59391000  1
  C  264  1  0.63109200  0.08912400  0.62434300  1
  C  266  1  0.58922500  0.05408800  0.62495500  1
  C  267  1  0.64773400  0.11206900  0.63994100  1
  C  268  1  0.64241600  0.11966000  0.67070200  1
  C  269  1  0.65852100  0.14368600  0.68423400  1
  C  270  1  0.68008800  0.16042600  0.66738700  1
  C  271  1  0.68513900  0.15169700  0.63706900  1
  C  281  1  0.30969900  0.65796900  0.33839600  1
  C  282  1  0.33325900  0.64330800  0.32254100  1
  C  283  1  0.35081100  0.62075500  0.33669400  1
  C  284  1  0.34478300  0.61248100  0.36714700  1
  C  286  1  0.30424300  0.64902300  0.36866000  1
  C  287  1  0.36190400  0.58991900  0.38276600  1
  C  288  1  0.35585200  0.58126100  0.41310300  1
  C  289  1  0.37381100  0.55893600  0.42718800  1
  C  290  1  0.39793300  0.54505000  0.41144400  1
  C  291  1  0.40316700  0.55424600  0.38118400  1
  C  301  1  0.18950300  0.34179700  0.83794900  1
  C  302  1  0.16653000  0.35714800  0.82188300  1
  C  303  1  0.14902800  0.37969800  0.83610200  1
  C  304  1  0.15453600  0.38729900  0.86682500  1
  C  306  1  0.19447700  0.35010800  0.86847600  1
  C  307  1  0.13736800  0.40974500  0.88255000  1
  C  308  1  0.14317600  0.41801900  0.91304100  1
  C  309  1  0.12513800  0.44020200  0.92724700  1
  C  310  1  0.10115700  0.45430300  0.91147800  1
  C  311  1  0.09616300  0.44549100  0.88106600  1
  C  321  1  0.60270200  0.95275300  0.41192300  1
  C  322  1  0.62292700  0.93495200  0.42913700  1
  C  323  1  0.63479100  0.90776200  0.41732500  1
  C  324  1  0.62663000  0.89819200  0.38775900  1
  C  326  1  0.59519900  0.94248900  0.38251200  1
  C  327  1  0.63860200  0.87149600  0.37395600  1
  C  328  1  0.62933900  0.86131400  0.34493000  1
  C  329  1  0.64306500  0.83563000  0.33188200  1
  C  330  1  0.66603100  0.81963500  0.34756000  1
  C  331  1  0.67434400  0.83034400  0.37650100  1
  C  341  1  0.89655400  0.04632600  0.91193200  1
  C  342  1  0.87647000  0.06425100  0.92918400  1
  C  343  1  0.86457200  0.09139800  0.91730900  1
  C  344  1  0.87255600  0.10080000  0.88763900  1
  C  346  1  0.90387500  0.05642100  0.88241600  1
  C  347  1  0.86056700  0.12746800  0.87379700  1
  C  348  1  0.86960900  0.13745600  0.84463300  1
  C  349  1  0.85588400  0.16313800  0.83158000  1
  C  350  1  0.83314600  0.17932800  0.84738700  1
  C  351  1  0.82503000  0.16879300  0.87644900  1
  C  361  1  0.20332700  0.64526800  0.16272400  1
  C  362  1  0.18723400  0.62255900  0.17847000  1
  C  363  1  0.16455700  0.60550400  0.16383500  1
  C  364  1  0.15771200  0.61106500  0.13294200  1
  C  366  1  0.19588900  0.65006200  0.13191300  1
  C  367  1  0.13486800  0.59481600  0.11678300  1
  C  368  1  0.12781700  0.60078900  0.08601300  1
  C  369  1  0.10482100  0.58418400  0.07140500  1
  C  370  1  0.08852300  0.56158600  0.08708000  1
  C  371  1  0.09636800  0.55610400  0.11765700  1
  C  381  1  0.29592100  0.35370200  0.66270700  1
  C  382  1  0.31193400  0.37647200  0.67844300  1
  C  383  1  0.33462700  0.39352500  0.66383200  1
  C  384  1  0.34157500  0.38789100  0.63297600  1
  C  386  1  0.30346200  0.34883000  0.63193400  1
  C  387  1  0.36442000  0.40415700  0.61683500  1
  C  388  1  0.37175000  0.39794400  0.58617800  1
  C  389  1  0.39469500  0.41461800  0.57157100  1
  C  390  1  0.41065900  0.43752900  0.58713500  1
  C  391  1  0.40255200  0.44323100  0.61760200  1
  C  401  1  0.07060500  0.06235600  0.90287700  1
  C  402  1  0.08973600  0.08017000  0.92140700  1
  C  403  1  0.11384800  0.09663600  0.90860600  1
  C  404  1  0.11905000  0.09541300  0.87691900  1
  C  406  1  0.07754000  0.06034300  0.87177100  1
  C  407  1  0.14062900  0.11441200  0.86213300  1
  C  408  1  0.14383900  0.11559300  0.83018500  1
  C  409  1  0.16240500  0.13789300  0.81688200  1
  C  410  1  0.17814400  0.15897900  0.83521000  1
  C  411  1  0.17577900  0.15585700  0.86690200  1
  C  421  1  0.42853500  0.93643100  0.40288600  1
  C  422  1  0.40937500  0.91865200  0.42142000  1
  C  423  1  0.38525700  0.90219400  0.40861700  1
  C  424  1  0.38007900  0.90338700  0.37692300  1
  C  426  1  0.42163400  0.93840300  0.37177100  1
  C  427  1  0.35847300  0.88440800  0.36215500  1
  C  428  1  0.35537100  0.88309900  0.33020300  1
  C  429  1  0.33678700  0.86079600  0.31693000  1
  C  430  1  0.32089800  0.83985000  0.33529000  1
  C  431  1  0.32314000  0.84311700  0.36697700  1
  C  441  1  0.70506200  0.33952400  0.65761300  1
  C  442  1  0.69011200  0.36298600  0.67337700  1
  C  443  1  0.66967900  0.38232100  0.65831400  1
  C  444  1  0.66389600  0.37826700  0.62697700  1
  C  446  1  0.69917200  0.33661900  0.62624600  1
  C  447  1  0.64174700  0.39549200  0.61088800  1
  C  448  1  0.63638300  0.39197300  0.57940800  1
  C  449  1  0.61246500  0.40783700  0.56542500  1
  C  450  1  0.59369900  0.42744200  0.58252500  1
  C  451  1  0.60041100  0.43099000  0.61356300  1
  C  461  1  0.79364700  0.65944900  0.15768300  1
  C  462  1  0.80859000  0.63599300  0.17346100  1
  C  463  1  0.82893700  0.61657800  0.15838400  1
  C  464  1  0.83463600  0.62054200  0.12701900  1
  C  466  1  0.79945100  0.66226700  0.12629200  1
  C  467  1  0.85672100  0.60325100  0.11091700  1
  C  468  1  0.86203700  0.60672300  0.07942400  1
  C  469  1  0.88595300  0.59086300  0.06543300  1
  C  470  1  0.90475100  0.57129000  0.08253300  1
  C  471  1  0.89807400  0.56776600  0.11358000  1
  C  481  1  0.41671000  0.07064700  0.58558600  1
  C  482  1  0.39766500  0.08848800  0.56694700  1
  C  483  1  0.37576400  0.10774800  0.57991100  1
  C  484  1  0.37285300  0.10945400  0.61186200  1
  C  486  1  0.41190200  0.07170800  0.61713700  1
  C  487  1  0.35391700  0.13109800  0.62663200  1
  C  488  1  0.35274000  0.13406000  0.65860500  1
  C  489  1  0.33612700  0.15787800  0.67177800  1
  C  490  1  0.32056900  0.17898500  0.65334800  1
  C  491  1  0.32108000  0.17441500  0.62174200  1
  C  501  1  0.08207500  0.92800700  0.08559300  1
  C  502  1  0.10114000  0.91020300  0.06693700  1
  C  503  1  0.12310400  0.89100400  0.07988500  1
  C  504  1  0.12609100  0.88935200  0.11183200  1
  C  506  1  0.08695500  0.92700200  0.11713400  1
  C  507  1  0.14514100  0.86779600  0.12658300  1
  C  508  1  0.14646900  0.86494100  0.15856000  1
  C  509  1  0.16316300  0.84118200  0.17173600  1
  C  510  1  0.17865400  0.82002700  0.15330500  1
  C  511  1  0.17802200  0.82450800  0.12169000  1
  C  521  1  0.80034700  0.34696300  0.84132500  1
  C  522  1  0.81672800  0.36886400  0.82476700  1
  C  523  1  0.84303800  0.38219800  0.83699600  1
  C  524  1  0.85314300  0.37382000  0.86632500  1
  C  526  1  0.81102000  0.33940100  0.87058000  1
  C  527  1  0.87923100  0.38683600  0.88034700  1
  C  528  1  0.88975100  0.37776500  0.90931800  1
  C  529  1  0.91502400  0.39222200  0.92238900  1
  C  530  1  0.93025100  0.41575500  0.90679500  1
  C  531  1  0.91919700  0.42390700  0.87794000  1
  C  541  1  0.69866600  0.65212700  0.34116400  1
  C  542  1  0.68211900  0.63043400  0.32449500  1
  C  543  1  0.65583200  0.61707800  0.33674400  1
  C  544  1  0.64591900  0.62521800  0.36620500  1
  C  546  1  0.68818600  0.65944900  0.37055000  1
  C  547  1  0.61984800  0.61218100  0.38023800  1
  C  548  1  0.60952700  0.62101400  0.40935200  1
  C  549  1  0.58425900  0.60654300  0.42241600  1
  C  550  1  0.56883500  0.58324000  0.40667300  1
  C  551  1  0.57971400  0.57530600  0.37768800  1
  N  245  1  0.89184300  0.92378000  0.13816900  1
  N  252  1  0.82970400  0.87078200  0.12502700  1
  N  259  1  0.92174700  0.97227400  0.07842200  1
  N  260  1  0.80364100  0.81483600  0.17777600  1
  N  265  1  0.60727400  0.07516600  0.63826400  1
  N  272  1  0.66899600  0.12858900  0.62476200  1
  N  279  1  0.57687800  0.02697400  0.57851400  1
  N  280  1  0.69541200  0.18429900  0.67758400  1
  N  285  1  0.32164500  0.62712900  0.38152500  1
  N  292  1  0.38536400  0.57581200  0.36840800  1
  N  299  1  0.29444100  0.67930800  0.32369600  1
  N  300  1  0.41433900  0.52451500  0.42613300  1
  N  305  1  0.17714500  0.37202500  0.88139300  1
  N  312  1  0.11404300  0.42405900  0.86817200  1
  N  319  1  0.20461600  0.32038800  0.82319900  1
  N  320  1  0.08461800  0.47463400  0.92630500  1
  N  325  1  0.60724000  0.91627400  0.37186200  1
  N  332  1  0.66071900  0.85531000  0.38825400  1
  N  339  1  0.59270300  0.97853400  0.42386600  1
  N  340  1  0.68166800  0.79646500  0.33626300  1
  N  345  1  0.89181600  0.08260600  0.87171200  1
  N  352  1  0.83864800  0.14382500  0.88820600  1
  N  359  1  0.90663400  0.02063100  0.92399300  1
  N  360  1  0.81749100  0.20248300  0.83609500  1
  N  365  1  0.17388600  0.63318000  0.11861800  1
  N  372  1  0.11868400  0.57260600  0.13096700  1
  N  379  1  0.22410800  0.66088300  0.17794600  1
  N  380  1  0.06679000  0.54721700  0.07197800  1
  N  385  1  0.32547900  0.36571300  0.61866100  1
  N  392  1  0.38029700  0.42665200  0.63091500  1
  N  399  1  0.27512000  0.33809400  0.67790800  1
  N  400  1  0.43232200  0.45200000  0.57203200  1
  N  405  1  0.10059100  0.07710500  0.86016600  1
  N  412  1  0.15705000  0.13460100  0.87880900  1
  N  419  1  0.04670300  0.04749800  0.91347200  1
  N  420  1  0.19320500  0.18288200  0.82486900  1
  N  425  1  0.39856400  0.92167000  0.36016600  1
  N  432  1  0.34191700  0.86434900  0.37885600  1
  N  439  1  0.45243300  0.95128700  0.41349100  1
  N  440  1  0.30582400  0.81593900  0.32498900  1
  N  445  1  0.67909700  0.35551700  0.61259000  1
  N  452  1  0.62339900  0.41501800  0.62629400  1
  N  459  1  0.72218900  0.32076000  0.67382200  1
  N  460  1  0.56923600  0.44157700  0.57207900  1
  N  465  1  0.81943300  0.64328300  0.11262100  1
  N  472  1  0.87510400  0.58375700  0.12632200  1
  N  479  1  0.77665100  0.67831600  0.17390900  1
  N  480  1  0.92928200  0.55725500  0.07210300  1
  N  485  1  0.39107700  0.09109000  0.62878000  1
  N  492  1  0.33779900  0.15147800  0.60986000  1
  N  499  1  0.43991600  0.05426300  0.57563700  1
  N  500  1  0.30515300  0.20240100  0.66425900  1
  N  505  1  0.10787300  0.90771200  0.12876200  1
  N  512  1  0.16121100  0.84737800  0.10980900  1
  N  519  1  0.05888900  0.94442200  0.07564500  1
  N  520  1  0.19412300  0.79665300  0.16423600  1
  N  525  1  0.83638300  0.35282800  0.88162400  1
  N  532  1  0.89467300  0.40954100  0.86614900  1
  N  539  1  0.77556200  0.33528800  0.82881400  1
  N  540  1  0.95313400  0.43188400  0.91795300  1
  N  545  1  0.66283400  0.64601200  0.38160400  1
  N  552  1  0.60423800  0.58967700  0.36590600  1
  N  559  1  0.72338700  0.66386800  0.32859400  1
  N  560  1  0.54599000  0.56706500  0.41783300  1
  O  8  1  0.99723900  0.95090200  0.09725400  1
  O  15  1  0.97603800  0.04388800  0.89575500  1
  O  17  1  0.03486700  0.96708300  0.99584100  1
  O  18  1  0.93736100  0.97809900  0.97431400  1
  O  38  1  0.50150600  0.04788600  0.59731800  1
  O  45  1  0.52311700  0.95496500  0.39582500  1
  O  47  1  0.46408400  0.03162400  0.49583900  1
  O  48  1  0.56167200  0.02071200  0.47447500  1
  O  68  1  0.30696100  0.75368100  0.34407700  1
  O  75  1  0.19857500  0.72793000  0.15074200  1
  O  77  1  0.27921500  0.79254900  0.24570800  1
  O  78  1  0.27229000  0.69274600  0.22354600  1
  O  98  1  0.19169500  0.24511900  0.84370300  1
  O  105  1  0.30078000  0.27117400  0.65078400  1
  O  107  1  0.22013600  0.20615500  0.74557200  1
  O  108  1  0.22661700  0.30608500  0.72326300  1
  O  128  1  0.70024500  0.24574900  0.65685300  1
  O  135  1  0.80664300  0.26791600  0.85139900  1
  O  137  1  0.72384300  0.20721700  0.75658500  1
  O  138  1  0.73173200  0.30267700  0.77947400  1
  O  158  1  0.79877500  0.75338800  0.15695000  1
  O  165  1  0.69253500  0.73096800  0.35154200  1
  O  167  1  0.77539600  0.79182100  0.25677400  1
  O  168  1  0.76756000  0.69643100  0.27961200  1
  O  188  1  0.50714900  0.43866600  0.59019800  1
  O  195  1  0.47971900  0.55727700  0.40331000  1
  O  197  1  0.54643200  0.47361500  0.49420100  1
  O  198  1  0.44841700  0.47680300  0.47052500  1
  O  218  1  0.99134600  0.56058500  0.09018000  1
  O  225  1  0.01941300  0.44177600  0.90349400  1
  O  227  1  0.95224500  0.52517300  0.99428500  1
  O  228  1  0.05037900  0.52245500  0.97061600  1
