# generated using pymatgen
data_VH30C28O9
_symmetry_space_group_name_H-M   'P 1'
_cell_length_a   7.24864000
_cell_length_b   20.79432000
_cell_length_c   23.90266000
_cell_angle_alpha   89.99947000
_cell_angle_beta   90.00161000
_cell_angle_gamma   89.99656000
_symmetry_Int_Tables_number   1
_chemical_formula_structural   VH30C28O9
_chemical_formula_sum   'V4 H120 C112 O36'
_cell_volume   3602.86083459
_cell_formula_units_Z   4
loop_
 _symmetry_equiv_pos_site_id
 _symmetry_equiv_pos_as_xyz
  1  'x, y, z'
loop_
 _atom_site_type_symbol
 _atom_site_label
 _atom_site_symmetry_multiplicity
 _atom_site_fract_x
 _atom_site_fract_y
 _atom_site_fract_z
 _atom_site_occupancy
  V  V0  1  0.17390000  0.75733000  0.25000000  1
  V  V1  1  0.82610000  0.24267000  0.75000000  1
  V  V2  1  0.67390000  0.74267000  0.25000000  1
  V  V3  1  0.32610000  0.25733000  0.75000000  1
  H  H4  1  0.78897000  0.72145000  0.60480000  1
  H  H5  1  0.56215000  0.69959000  0.57965000  1
  H  H6  1  0.62319000  0.68601000  0.65190000  1
  H  H7  1  0.63553000  0.58339000  0.60173000  1
  H  H8  1  0.86308000  0.60704000  0.62227000  1
  H  H9  1  0.90780000  0.65528000  0.52405000  1
  H  H10  1  0.68903000  0.62259000  0.50470000  1
  H  H11  1  0.43774000  0.30035000  0.42033000  1
  H  H12  1  0.21091000  0.27855000  0.39515000  1
  H  H13  1  0.37681000  0.31398000  0.34808000  1
  H  H14  1  0.13705000  0.39299000  0.37771000  1
  H  H15  1  0.36462000  0.41657000  0.39827000  1
  H  H16  1  0.31098000  0.37739000  0.49528000  1
  H  H17  1  0.09222000  0.34470000  0.47592000  1
  H  H18  1  0.21102000  0.27855000  0.10483000  1
  H  H19  1  0.43784000  0.30039000  0.07966000  1
  H  H20  1  0.37685000  0.31399000  0.15191000  1
  H  H21  1  0.36453000  0.41660000  0.10173000  1
  H  H22  1  0.13699000  0.39297000  0.12228000  1
  H  H23  1  0.09221000  0.34471000  0.02407000  1
  H  H24  1  0.31096000  0.37740000  0.00471000  1
  H  H25  1  0.56226000  0.69965000  0.92032000  1
  H  H26  1  0.78910000  0.72143000  0.89514000  1
  H  H27  1  0.62318000  0.68601000  0.84807000  1
  H  H28  1  0.86292000  0.60699000  0.87771000  1
  H  H29  1  0.63535000  0.58342000  0.89827000  1
  H  H30  1  0.68901000  0.62260000  0.99528000  1
  H  H31  1  0.90777000  0.65529000  0.97592000  1
  H  H32  1  0.28901000  0.77861000  0.89515000  1
  H  H33  1  0.06228000  0.80023000  0.92053000  1
  H  H34  1  0.12248000  0.81397000  0.84824000  1
  H  H35  1  0.13461000  0.91652000  0.89847000  1
  H  H36  1  0.36215000  0.89309000  0.87776000  1
  H  H37  1  0.40772000  0.84471000  0.97594000  1
  H  H38  1  0.18906000  0.87739000  0.99543000  1
  H  H39  1  0.93771000  0.19976000  0.07942000  1
  H  H40  1  0.71093000  0.22145000  0.10472000  1
  H  H41  1  0.87724000  0.18611000  0.15170000  1
  H  H42  1  0.63763000  0.10699000  0.12220000  1
  H  H43  1  0.86518000  0.08350000  0.10153000  1
  H  H44  1  0.81084000  0.12259000  0.00452000  1
  H  H45  1  0.59217000  0.15528000  0.02399000  1
  H  H46  1  0.71098000  0.22145000  0.39519000  1
  H  H47  1  0.93779000  0.19968000  0.42042000  1
  H  H48  1  0.87703000  0.18605000  0.34815000  1
  H  H49  1  0.86485000  0.08345000  0.39835000  1
  H  H50  1  0.63731000  0.10701000  0.37773000  1
  H  H51  1  0.59221000  0.15530000  0.47594000  1
  H  H52  1  0.81093000  0.12261000  0.49535000  1
  H  H53  1  0.06236000  0.80030000  0.57955000  1
  H  H54  1  0.28918000  0.77856000  0.60479000  1
  H  H55  1  0.12308000  0.81394000  0.65182000  1
  H  H56  1  0.36275000  0.89300000  0.62224000  1
  H  H57  1  0.13518000  0.91654000  0.60163000  1
  H  H58  1  0.18913000  0.87741000  0.50462000  1
  H  H59  1  0.40786000  0.84472000  0.52403000  1
  H  H60  1  0.25215000  0.57757000  0.66681000  1
  H  H61  1  0.74815000  0.42238000  0.33315000  1
  H  H62  1  0.74797000  0.42240000  0.16682000  1
  H  H63  1  0.25191000  0.57762000  0.83317000  1
  H  H64  1  0.75062000  0.92205000  0.83310000  1
  H  H65  1  0.24911000  0.07784000  0.16688000  1
  H  H66  1  0.24871000  0.07779000  0.33313000  1
  H  H67  1  0.75134000  0.92229000  0.66686000  1
  H  H68  1  0.38393000  0.45600000  0.62643000  1
  H  H69  1  0.39702000  0.37547000  0.59633000  1
  H  H70  1  0.48211000  0.39114000  0.66604000  1
  H  H71  1  0.71704000  0.37831000  0.59345000  1
  H  H72  1  0.72877000  0.45628000  0.63019000  1
  H  H73  1  0.55312000  0.50220000  0.54652000  1
  H  H74  1  0.58238000  0.42620000  0.51261000  1
  H  H75  1  0.60291000  0.62452000  0.40353000  1
  H  H76  1  0.61621000  0.54389000  0.37367000  1
  H  H77  1  0.51802000  0.60858000  0.33384000  1
  H  H78  1  0.27122000  0.54364000  0.36978000  1
  H  H79  1  0.28304000  0.62164000  0.40646000  1
  H  H80  1  0.41762000  0.57380000  0.48735000  1
  H  H81  1  0.44690000  0.49778000  0.45348000  1
  H  H82  1  0.61613000  0.54394000  0.12640000  1
  H  H83  1  0.60296000  0.62451000  0.09640000  1
  H  H84  1  0.51795000  0.60873000  0.16609000  1
  H  H85  1  0.28299000  0.62166000  0.09351000  1
  H  H86  1  0.27122000  0.54366000  0.13021000  1
  H  H87  1  0.44690000  0.49780000  0.04651000  1
  H  H88  1  0.41759000  0.57381000  0.01264000  1
  H  H89  1  0.39708000  0.37547000  0.90355000  1
  H  H90  1  0.38381000  0.45608000  0.87364000  1
  H  H91  1  0.48202000  0.39136000  0.83386000  1
  H  H92  1  0.72877000  0.45635000  0.86979000  1
  H  H93  1  0.71698000  0.37835000  0.90648000  1
  H  H94  1  0.58237000  0.42620000  0.98736000  1
  H  H95  1  0.55309000  0.50221000  0.95348000  1
  H  H96  1  0.88333000  0.04330000  0.87396000  1
  H  H97  1  0.89729000  0.12432000  0.90295000  1
  H  H98  1  0.98138000  0.10736000  0.83333000  1
  H  H99  1  0.21668000  0.12131000  0.90596000  1
  H  H100  1  0.22878000  0.04306000  0.86971000  1
  H  H101  1  0.05294000  0.99781000  0.95370000  1
  H  H102  1  0.08269000  0.07404000  0.98718000  1
  H  H103  1  0.10290000  0.87575000  0.09676000  1
  H  H104  1  0.11627000  0.95653000  0.12631000  1
  H  H105  1  0.01824000  0.89204000  0.16642000  1
  H  H106  1  0.77113000  0.95676000  0.13026000  1
  H  H107  1  0.78316000  0.87859000  0.09386000  1
  H  H108  1  0.91734000  0.92601000  0.01277000  1
  H  H109  1  0.94695000  0.00219000  0.04635000  1
  H  H110  1  0.11638000  0.95640000  0.37376000  1
  H  H111  1  0.10286000  0.87562000  0.40327000  1
  H  H112  1  0.01827000  0.89196000  0.33361000  1
  H  H113  1  0.78318000  0.87853000  0.40622000  1
  H  H114  1  0.77120000  0.95665000  0.36974000  1
  H  H115  1  0.94696000  0.00222000  0.45358000  1
  H  H116  1  0.91749000  0.92609000  0.48726000  1
  H  H117  1  0.89706000  0.12436000  0.59661000  1
  H  H118  1  0.88381000  0.04368000  0.62636000  1
  H  H119  1  0.98191000  0.10831000  0.66627000  1
  H  H120  1  0.22885000  0.04343000  0.63024000  1
  H  H121  1  0.21690000  0.12152000  0.59370000  1
  H  H122  1  0.08251000  0.07390000  0.51271000  1
  H  H123  1  0.05308000  0.99780000  0.54643000  1
  C  C124  1  0.45248000  0.82890000  0.32597000  1
  C  C125  1  0.54752000  0.17110000  0.67403000  1
  C  C126  1  0.54752000  0.17110000  0.82596000  1
  C  C127  1  0.45248000  0.82890000  0.17403000  1
  C  C128  1  0.95248000  0.67110000  0.17403000  1
  C  C129  1  0.04752000  0.32890000  0.82597000  1
  C  C130  1  0.04752000  0.32890000  0.67403000  1
  C  C131  1  0.95248000  0.67110000  0.32597000  1
  C  C132  1  0.09570000  0.53065000  0.53994000  1
  C  C133  1  0.90433000  0.46934000  0.46004000  1
  C  C134  1  0.90431000  0.46935000  0.03995000  1
  C  C135  1  0.09567000  0.53066000  0.96005000  1
  C  C136  1  0.59558000  0.96930000  0.96004000  1
  C  C137  1  0.40433000  0.03068000  0.03994000  1
  C  C138  1  0.40435000  0.03068000  0.46004000  1
  C  C139  1  0.59570000  0.96934000  0.53994000  1
  C  C140  1  0.90567000  0.55205000  0.51680000  1
  C  C141  1  0.09435000  0.44793000  0.48318000  1
  C  C142  1  0.09433000  0.44794000  0.01681000  1
  C  C143  1  0.90564000  0.55206000  0.98318000  1
  C  C144  1  0.40556000  0.94794000  0.98320000  1
  C  C145  1  0.59434000  0.05204000  0.01677000  1
  C  C146  1  0.59436000  0.05207000  0.48319000  1
  C  C147  1  0.40568000  0.94795000  0.51679000  1
  C  C148  1  0.95298000  0.62455000  0.37111000  1
  C  C149  1  0.04704000  0.37544000  0.62889000  1
  C  C150  1  0.04703000  0.37544000  0.87111000  1
  C  C151  1  0.95296000  0.62455000  0.12889000  1
  C  C152  1  0.45296000  0.87545000  0.12890000  1
  C  C153  1  0.54700000  0.12454000  0.87110000  1
  C  C154  1  0.54704000  0.12455000  0.62889000  1
  C  C155  1  0.45299000  0.87545000  0.37110000  1
  C  C156  1  0.16524000  0.51846000  0.47935000  1
  C  C157  1  0.83478000  0.48152000  0.52063000  1
  C  C158  1  0.83476000  0.48153000  0.97936000  1
  C  C159  1  0.16522000  0.51848000  0.02064000  1
  C  C160  1  0.66519000  0.98151000  0.02062000  1
  C  C161  1  0.33473000  0.01848000  0.97936000  1
  C  C162  1  0.33479000  0.01849000  0.52063000  1
  C  C163  1  0.66525000  0.98153000  0.47935000  1
  C  C164  1  0.97458000  0.53964000  0.45634000  1
  C  C165  1  0.02545000  0.46034000  0.54364000  1
  C  C166  1  0.02542000  0.46035000  0.95635000  1
  C  C167  1  0.97455000  0.53965000  0.04365000  1
  C  C168  1  0.47454000  0.96037000  0.04366000  1
  C  C169  1  0.52536000  0.03961000  0.95632000  1
  C  C170  1  0.52544000  0.03965000  0.54365000  1
  C  C171  1  0.47460000  0.96037000  0.45633000  1
  C  C172  1  0.95383000  0.58584000  0.40933000  1
  C  C173  1  0.04619000  0.41415000  0.59066000  1
  C  C174  1  0.04618000  0.41415000  0.90933000  1
  C  C175  1  0.95381000  0.58585000  0.09067000  1
  C  C176  1  0.45383000  0.91417000  0.09068000  1
  C  C177  1  0.54609000  0.08583000  0.90931000  1
  C  C178  1  0.54617000  0.08585000  0.59067000  1
  C  C179  1  0.45387000  0.91417000  0.40932000  1
  C  C180  1  0.80947000  0.61542000  0.53246000  1
  C  C181  1  0.74718000  0.61856000  0.59379000  1
  C  C182  1  0.67593000  0.68561000  0.60828000  1
  C  C183  1  0.19056000  0.38457000  0.46752000  1
  C  C184  1  0.25289000  0.38144000  0.40620000  1
  C  C185  1  0.32402000  0.31437000  0.39169000  1
  C  C186  1  0.19054000  0.38458000  0.03247000  1
  C  C187  1  0.25286000  0.38144000  0.09380000  1
  C  C188  1  0.32408000  0.31438000  0.10830000  1
  C  C189  1  0.80943000  0.61542000  0.96752000  1
  C  C190  1  0.74708000  0.61855000  0.90620000  1
  C  C191  1  0.67598000  0.68562000  0.89168000  1
  C  C192  1  0.30929000  0.88457000  0.96760000  1
  C  C193  1  0.24656000  0.88144000  0.90631000  1
  C  C194  1  0.17566000  0.81435000  0.89180000  1
  C  C195  1  0.69060000  0.11542000  0.03236000  1
  C  C196  1  0.75327000  0.11859000  0.09365000  1
  C  C197  1  0.82421000  0.18569000  0.10812000  1
  C  C198  1  0.69059000  0.11543000  0.46756000  1
  C  C199  1  0.75307000  0.11858000  0.40625000  1
  C  C200  1  0.82415000  0.18565000  0.39175000  1
  C  C201  1  0.30947000  0.88458000  0.53242000  1
  C  C202  1  0.24700000  0.88143000  0.59373000  1
  C  C203  1  0.17597000  0.81434000  0.60822000  1
  C  C204  1  0.19189000  0.56837000  0.58490000  1
  C  C205  1  0.80817000  0.43161000  0.41508000  1
  C  C206  1  0.80814000  0.43161000  0.08491000  1
  C  C207  1  0.19183000  0.56839000  0.91509000  1
  C  C208  1  0.69149000  0.93150000  0.91507000  1
  C  C209  1  0.30837000  0.06846000  0.08491000  1
  C  C210  1  0.30829000  0.06845000  0.41508000  1
  C  C211  1  0.69178000  0.93159000  0.58491000  1
  C  C212  1  0.64426000  0.46000000  0.54287000  1
  C  C213  1  0.65259000  0.42608000  0.59953000  1
  C  C214  1  0.46562000  0.41153000  0.62343000  1
  C  C215  1  0.35575000  0.53998000  0.45711000  1
  C  C216  1  0.34744000  0.57386000  0.40042000  1
  C  C217  1  0.53444000  0.58836000  0.37651000  1
  C  C218  1  0.35574000  0.53999000  0.04288000  1
  C  C219  1  0.34742000  0.57388000  0.09956000  1
  C  C220  1  0.53440000  0.58840000  0.12346000  1
  C  C221  1  0.64424000  0.46001000  0.95711000  1
  C  C222  1  0.65256000  0.42613000  0.90043000  1
  C  C223  1  0.46557000  0.41161000  0.87652000  1
  C  C224  1  0.14426000  0.03999000  0.95708000  1
  C  C225  1  0.15245000  0.07346000  0.90019000  1
  C  C226  1  0.96532000  0.08775000  0.87624000  1
  C  C227  1  0.85568000  0.96001000  0.04290000  1
  C  C228  1  0.84744000  0.92642000  0.09972000  1
  C  C229  1  0.03450000  0.91205000  0.12366000  1
  C  C230  1  0.85575000  0.96003000  0.45709000  1
  C  C231  1  0.84749000  0.92635000  0.40031000  1
  C  C232  1  0.03454000  0.91194000  0.37638000  1
  C  C233  1  0.14429000  0.03999000  0.54290000  1
  C  C234  1  0.15257000  0.07372000  0.59965000  1
  C  C235  1  0.96555000  0.08815000  0.62358000  1
  O  O236  1  0.61527000  0.80654000  0.19226000  1
  O  O237  1  0.38473000  0.19346000  0.80774000  1
  O  O238  1  0.38473000  0.19346000  0.69226000  1
  O  O239  1  0.61527000  0.80654000  0.30774000  1
  O  O240  1  0.11527000  0.69346000  0.30774000  1
  O  O241  1  0.88473000  0.30654000  0.69226000  1
  O  O242  1  0.88473000  0.30654000  0.80774000  1
  O  O243  1  0.11527000  0.69346000  0.19226000  1
  O  O244  1  0.28550000  0.81397000  0.30734000  1
  O  O245  1  0.71450000  0.18603000  0.69266000  1
  O  O246  1  0.71450000  0.18603000  0.80734000  1
  O  O247  1  0.28550000  0.81397000  0.19266000  1
  O  O248  1  0.78550000  0.68603000  0.19266000  1
  O  O249  1  0.21450000  0.31397000  0.80734000  1
  O  O250  1  0.21450000  0.31397000  0.69266000  1
  O  O251  1  0.78550000  0.68603000  0.30734000  1
  O  O252  1  0.44876000  0.71046000  0.25000000  1
  O  O253  1  0.55124000  0.28954000  0.75000000  1
  O  O254  1  0.94876000  0.78954000  0.25000000  1
  O  O255  1  0.05124000  0.21046000  0.75000000  1
  O  O256  1  0.26413000  0.61977000  0.57340000  1
  O  O257  1  0.18568000  0.54733000  0.64034000  1
  O  O258  1  0.73580000  0.38024000  0.42658000  1
  O  O259  1  0.81460000  0.45262000  0.35963000  1
  O  O260  1  0.73586000  0.38023000  0.07340000  1
  O  O261  1  0.81442000  0.45264000  0.14035000  1
  O  O262  1  0.26414000  0.61977000  0.92659000  1
  O  O263  1  0.18548000  0.54738000  0.85964000  1
  O  O264  1  0.76427000  0.88021000  0.92663000  1
  O  O265  1  0.68429000  0.95232000  0.85957000  1
  O  O266  1  0.23569000  0.11977000  0.07338000  1
  O  O267  1  0.31542000  0.04758000  0.14039000  1
  O  O268  1  0.23573000  0.11978000  0.42661000  1
  O  O269  1  0.31510000  0.04753000  0.35960000  1
  O  O270  1  0.76441000  0.88027000  0.57339000  1
  O  O271  1  0.68494000  0.95253000  0.64038000  1
