# generated using pymatgen
data_H9C20(N3O2)2
_symmetry_space_group_name_H-M   'P 1'
_cell_length_a   26.69400000
_cell_length_b   26.69400000
_cell_length_c   41.77800000
_cell_angle_alpha   90.00000000
_cell_angle_beta   90.00000000
_cell_angle_gamma   120.00000000
_symmetry_Int_Tables_number   1
_chemical_formula_structural   H9C20(N3O2)2
_chemical_formula_sum   'H108 C240 N72 O48'
_cell_volume   25781.34612684
_cell_formula_units_Z   12
loop_
 _symmetry_equiv_pos_site_id
 _symmetry_equiv_pos_as_xyz
  1  'x, y, z'
loop_
 _atom_site_type_symbol
 _atom_site_label
 _atom_site_symmetry_multiplicity
 _atom_site_fract_x
 _atom_site_fract_y
 _atom_site_fract_z
 _atom_site_occupancy
  C  1  1  0.41829400  0.44793100  0.01224700  1
  C  2  1  0.38019750  0.46093850  0.02969100  1
  C  3  1  0.37477250  0.45269650  0.06341200  1
  C  4  1  0.40727000  0.43184100  0.07928400  1
  C  5  1  0.44571100  0.41955300  0.06259600  1
  C  6  1  0.45102350  0.42706750  0.02882500  1
  C  7  1  0.34888650  0.48223550  0.01272800  1
  C  8  1  0.48865450  0.41486850  0.01097100  1
  C  10  1  0.42343500  0.45551100  0.97824100  1
  C  11  1  0.39126650  0.47703250  0.96169300  1
  C  12  1  0.39646200  0.48425400  0.92791600  1
  C  13  1  0.43237000  0.46882000  0.91098100  1
  C  14  1  0.46406850  0.44705350  0.92681000  1
  C  15  1  0.46044000  0.44116300  0.96069400  1
  C  16  1  0.35446950  0.49032650  0.97955600  1
  C  18  1  0.49299750  0.42142450  0.97771400  1
  C  23  1  0.47690700  0.40077500  0.08036400  1
  C  24  1  0.49316900  0.42777300  0.90761100  1
  C  25  1  0.36961300  0.50761800  0.91004700  1
  C  26  1  0.33553000  0.45978700  0.08163000  1
  C  31  1  0.93964400  0.50080000  0.34555100  1
  C  32  1  0.99073600  0.53894100  0.36299300  1
  C  33  1  0.98792900  0.54434200  0.39671700  1
  C  34  1  0.93457900  0.51182900  0.41258600  1
  C  35  1  0.88386150  0.47334250  0.39590500  1
  C  36  1  0.88606500  0.46802100  0.36213400  1
  C  37  1  0.04333050  0.57031150  0.34602500  1
  C  38  1  0.83625150  0.43032650  0.34428500  1
  C  40  1  0.94208250  0.49565750  0.31154500  1
  C  41  1  0.99575950  0.52788550  0.29499100  1
  C  42  1  0.99778800  0.52268100  0.26121500  1
  C  43  1  0.94645800  0.48671900  0.24428200  1
  C  44  1  0.89301100  0.45496300  0.26012100  1
  C  45  1  0.89074150  0.45858950  0.29400200  1
  C  46  1  0.04583400  0.56474500  0.31285000  1
  C  48  1  0.83846150  0.42598050  0.31102800  1
  C  53  1  0.83389300  0.44213800  0.41367800  1
  C  54  1  0.84463350  0.42573450  0.24092900  1
  C  55  1  0.04799250  0.54961550  0.24334400  1
  C  56  1  0.03424150  0.58362650  0.41493200  1
  C  61  1  0.47122200  0.97944200  0.67890500  1
  C  62  1  0.45825150  0.92833850  0.69633800  1
  C  63  1  0.46650600  0.93114300  0.73005900  1
  C  64  1  0.48730950  0.98447550  0.74594300  1
  C  65  1  0.49956600  0.03520500  0.72926700  1
  C  66  1  0.49205400  0.03302200  0.69549600  1
  C  67  1  0.43699650  0.87574750  0.67936300  1
  C  68  1  0.50420750  0.08285250  0.67765400  1
  C  70  1  0.46362650  0.97702050  0.64490000  1
  C  71  1  0.44213250  0.92334550  0.62834100  1
  C  72  1  0.43487600  0.92133100  0.59456500  1
  C  73  1  0.45028800  0.97267700  0.57764200  1
  C  74  1  0.47202250  0.02612550  0.59348500  1
  C  75  1  0.47792950  0.02837950  0.62736600  1
  C  76  1  0.42889350  0.87325550  0.64619200  1
  C  78  1  0.49764950  0.08065850  0.64439700  1
  C  83  1  0.51829250  0.08516250  0.74703700  1
  C  84  1  0.49118800  0.07451100  0.57430000  1
  C  85  1  0.41160850  0.87113650  0.57668700  1
  C  86  1  0.45932750  0.88476650  0.74827000  1
  C  91  1  0.48411050  0.33963850  0.88715500  1
  C  92  1  0.45845200  0.28100100  0.89577500  1
  C  94  1  0.48947100  0.25746000  0.84702400  1
  C  95  1  0.51744100  0.31632000  0.83728900  1
  C  96  1  0.51407750  0.35689650  0.85772600  1
  C  98  1  0.48612100  0.21215500  0.82767700  1
  C  99  1  0.43447000  0.15817300  0.82362000  1
  C  100  1  0.43582000  0.11682800  0.80298100  1
  C  101  1  0.48667200  0.12842400  0.78666400  1
  C  102  1  0.53679100  0.18247100  0.79196300  1
  C  115  1  0.76557550  0.43482150  0.22043700  1
  C  116  1  0.73262000  0.46051000  0.22904500  1
  C  118  1  0.67812050  0.42955950  0.18027000  1
  C  119  1  0.70899000  0.40156100  0.17054500  1
  C  120  1  0.75288600  0.40487300  0.19100100  1
  C  122  1  0.63618550  0.43293150  0.16091800  1
  C  123  1  0.63386050  0.48458750  0.15687000  1
  C  124  1  0.59114450  0.48324650  0.13625400  1
  C  125  1  0.55185900  0.43239200  0.11994700  1
  C  126  1  0.55578900  0.38227200  0.12522900  1
  C  139  1  0.57933850  0.15354550  0.55379900  1
  C  140  1  0.63799200  0.18647800  0.56239700  1
  C  142  1  0.66153050  0.24099750  0.51363200  1
  C  143  1  0.60265650  0.21015550  0.50391900  1
  C  144  1  0.56207400  0.16626000  0.52437500  1
  C  146  1  0.70683600  0.28292900  0.49427500  1
  C  147  1  0.76080350  0.28523650  0.49021300  1
  C  148  1  0.80217250  0.32795250  0.46959200  1
  C  149  1  0.79060850  0.36724550  0.45329400  1
  C  150  1  0.73656950  0.36333750  0.45859600  1
  C  163  1  0.38275200  0.59858400  0.89235500  1
  C  164  1  0.40638800  0.65573100  0.90344600  1
  C  166  1  0.38697600  0.68707600  0.85353100  1
  C  167  1  0.36095450  0.62988150  0.84125300  1
  C  168  1  0.35942550  0.58609750  0.86109000  1
  C  170  1  0.39783400  0.73556000  0.83455000  1
  C  171  1  0.45295650  0.78659450  0.83318700  1
  C  172  1  0.46050200  0.83079200  0.81172100  1
  C  173  1  0.41491300  0.82438400  0.79188800  1
  C  174  1  0.36071400  0.77390100  0.79509900  1
  C  187  1  0.12581050  0.53642150  0.22565300  1
  C  188  1  0.15923650  0.51268250  0.23673300  1
  C  190  1  0.21003700  0.53210700  0.18683600  1
  C  191  1  0.17895400  0.55823200  0.17456600  1
  C  192  1  0.13671750  0.55980450  0.19440000  1
  C  194  1  0.24764950  0.52122550  0.16785900  1
  C  195  1  0.24345900  0.46606400  0.16645200  1
  C  196  1  0.28013800  0.45851400  0.14501000  1
  C  197  1  0.31944250  0.50414250  0.12523900  1
  C  198  1  0.32324550  0.55837450  0.12849000  1
  C  211  1  0.32060050  0.79334350  0.55897400  1
  C  212  1  0.26343350  0.75991150  0.57004700  1
  C  214  1  0.23207850  0.70914450  0.52013500  1
  C  215  1  0.28928950  0.74023750  0.50787300  1
  C  216  1  0.33309150  0.78246250  0.52771800  1
  C  218  1  0.18359550  0.67153850  0.50115200  1
  C  219  1  0.13261600  0.67571700  0.49974700  1
  C  220  1  0.08839600  0.63904100  0.47829800  1
  C  221  1  0.09473600  0.59974900  0.45852400  1
  C  222  1  0.14517250  0.59596050  0.46177500  1
  C  937  1  0.11860200  0.78508700  0.89256700  1
  C  938  1  0.08050550  0.79809450  0.91001080  1
  C  939  1  0.07508050  0.78985250  0.94373180  1
  C  940  1  0.10757800  0.76899700  0.95960380  1
  C  941  1  0.14601900  0.75670900  0.94291580  1
  C  942  1  0.15133150  0.76422350  0.90914480  1
  C  943  1  0.04919450  0.81939150  0.89304800  1
  C  944  1  0.18896250  0.75202450  0.89129100  1
  C  946  1  0.12374300  0.79266700  0.85856100  1
  C  947  1  0.09157450  0.81418850  0.84201300  1
  C  948  1  0.09677000  0.82141000  0.80823600  1
  C  949  1  0.13267800  0.80597600  0.79130100  1
  C  950  1  0.16437650  0.78420950  0.80713000  1
  C  951  1  0.16074800  0.77831900  0.84101400  1
  C  952  1  0.05477750  0.82748250  0.85987600  1
  C  954  1  0.19330550  0.75858050  0.85803400  1
  C  959  1  0.17721500  0.73793100  0.96068380  1
  C  960  1  0.19347700  0.76492900  0.78793100  1
  C  961  1  0.06992100  0.84477400  0.79036700  1
  C  962  1  0.03583800  0.79694300  0.96194980  1
  C  967  1  0.63995200  0.83795560  0.22587100  1
  C  968  1  0.69104400  0.87609660  0.24331300  1
  C  969  1  0.68823700  0.88149760  0.27703700  1
  C  970  1  0.63488700  0.84898500  0.29290600  1
  C  971  1  0.58416950  0.81049850  0.27622500  1
  C  972  1  0.58637300  0.80517700  0.24245400  1
  C  973  1  0.74363850  0.90746710  0.22634500  1
  C  974  1  0.53655950  0.76748250  0.22460500  1
  C  976  1  0.64239050  0.83281310  0.19186500  1
  C  977  1  0.69606750  0.86504110  0.17531100  1
  C  978  1  0.69809600  0.85983660  0.14153500  1
  C  979  1  0.64676600  0.82387460  0.12460200  1
  C  980  1  0.59331900  0.79211860  0.14044100  1
  C  981  1  0.59104950  0.79574550  0.17432200  1
  C  982  1  0.74614200  0.90190060  0.19317000  1
  C  984  1  0.53876950  0.76313650  0.19134800  1
  C  989  1  0.53420100  0.77929400  0.29399800  1
  C  990  1  0.54494150  0.76289050  0.12124900  1
  C  991  1  0.74830050  0.88677110  0.12366400  1
  C  992  1  0.73454950  0.92078210  0.29525200  1
  C  997  1  0.17153000  0.31659760  0.55922500  1
  C  998  1  0.15855950  0.26549410  0.57665800  1
  C  999  1  0.16681400  0.26829860  0.61037900  1
  C  1000  1  0.18761750  0.32163110  0.62626300  1
  C  1001  1  0.19987400  0.37236060  0.60958700  1
  C  1002  1  0.19236200  0.37017760  0.57581600  1
  C  1003  1  0.13730450  0.21290310  0.55968300  1
  C  1004  1  0.20451550  0.42000850  0.55797400  1
  C  1006  1  0.16393450  0.31417610  0.52522000  1
  C  1007  1  0.14244050  0.26050110  0.50866100  1
  C  1008  1  0.13518400  0.25848660  0.47488500  1
  C  1009  1  0.15059600  0.30983260  0.45796200  1
  C  1010  1  0.17233050  0.36328110  0.47380500  1
  C  1011  1  0.17823750  0.36553510  0.50768600  1
  C  1012  1  0.12920150  0.21041110  0.52651200  1
  C  1014  1  0.19795750  0.41781450  0.52471700  1
  C  1019  1  0.21860050  0.42231850  0.62735700  1
  C  1020  1  0.19149600  0.41166700  0.45462000  1
  C  1021  1  0.11191650  0.20829210  0.45700700  1
  C  1022  1  0.15963550  0.22192210  0.62859000  1
  C  1027  1  0.18441850  0.67679450  0.76747500  1
  C  1028  1  0.15876000  0.61815700  0.77609500  1
  C  1030  1  0.18977900  0.59461600  0.72734400  1
  C  1031  1  0.21774900  0.65347600  0.71760900  1
  C  1032  1  0.21438550  0.69405250  0.73804600  1
  C  1034  1  0.18642900  0.54931100  0.70799700  1
  C  1035  1  0.13477800  0.49532900  0.70394000  1
  C  1036  1  0.13612800  0.45398400  0.68330100  1
  C  1037  1  0.18698000  0.46558000  0.66698400  1
  C  1038  1  0.23709900  0.51962700  0.67228300  1
  C  1051  1  0.46588350  0.77197750  0.10075700  1
  C  1052  1  0.43292800  0.79766600  0.10936500  1
  C  1054  1  0.37842850  0.76671550  0.06059000  1
  C  1055  1  0.40929800  0.73871700  0.05086500  1
  C  1056  1  0.45319400  0.74202900  0.07132100  1
  C  1058  1  0.33649350  0.77008750  0.04123800  1
  C  1059  1  0.33416850  0.82174350  0.03719000  1
  C  1060  1  0.29145250  0.82040250  0.01657400  1
  C  1061  1  0.25216700  0.76954800  0.00026700  1
  C  1062  1  0.25609700  0.71942800  0.00554900  1
  C  1075  1  0.27964650  0.49070150  0.43411900  1
  C  1076  1  0.33830000  0.52363360  0.44271700  1
  C  1078  1  0.36183850  0.57815350  0.39395200  1
  C  1079  1  0.30296450  0.54731150  0.38423900  1
  C  1080  1  0.26238200  0.50341600  0.40469500  1
  C  1082  1  0.40714400  0.62008500  0.37459500  1
  C  1083  1  0.46111150  0.62239210  0.37053300  1
  C  1084  1  0.50248050  0.66510810  0.34991200  1
  C  1085  1  0.49091650  0.70440150  0.33361400  1
  C  1086  1  0.43687750  0.70049350  0.33891600  1
  C  1099  1  0.08306000  0.93574000  0.77267500  1
  C  1100  1  0.10669600  0.99288700  0.78376600  1
  C  1102  1  0.08728400  0.02423200  0.73385100  1
  C  1103  1  0.06126250  0.96703750  0.72157300  1
  C  1104  1  0.05973350  0.92325350  0.74141000  1
  C  1106  1  0.09814200  0.07271600  0.71487000  1
  C  1107  1  0.15326450  0.12375050  0.71350700  1
  C  1108  1  0.16081000  0.16794762  0.69204100  1
  C  1109  1  0.11522100  0.16153960  0.67220800  1
  C  1110  1  0.06102200  0.11105660  0.67541900  1
  C  1123  1  0.82611810  0.87357670  0.10597300  1
  C  1124  1  0.85954410  0.84983810  0.11705300  1
  C  1126  1  0.91034460  0.86926260  0.06715600  1
  C  1127  1  0.87926160  0.89538722  0.05488600  1
  C  1128  1  0.83702510  0.89695970  0.07472000  1
  C  1130  1  0.94795710  0.85838110  0.04817900  1
  C  1131  1  0.94376660  0.80321960  0.04677200  1
  C  1132  1  0.98044559  0.79566959  0.02533000  1
  C  1133  1  0.01975050  0.84129850  0.00555900  1
  C  1134  1  0.02355350  0.89553050  0.00881000  1
  C  1147  1  0.02090850  0.13049910  0.43929400  1
  C  1148  1  0.96374110  0.09706670  0.45036700  1
  C  1150  1  0.93238610  0.04629970  0.40045500  1
  C  1151  1  0.98959709  0.07739269  0.38819300  1
  C  1152  1  0.03339950  0.11961810  0.40803800  1
  C  1154  1  0.88390310  0.00869370  0.38147200  1
  C  1155  1  0.83292360  0.01287220  0.38006700  1
  C  1156  1  0.78870400  0.97619660  0.35861800  1
  C  1157  1  0.79504400  0.93690460  0.33884400  1
  C  1158  1  0.84548010  0.93311570  0.34209500  1
  H  9  1  0.40254950  0.42501450  0.10359800  1
  H  17  1  0.43510800  0.47305100  0.88646500  1
  H  19  1  0.33043450  0.50555750  0.96860400  1
  H  20  1  0.32153300  0.49261200  0.02433200  1
  H  21  1  0.52101900  0.41191000  0.96616000  1
  H  22  1  0.51346400  0.40051800  0.02187900  1
  H  27  1  0.47150450  0.36171550  0.07634300  1
  H  28  1  0.52419650  0.45524450  0.89303800  1
  H  29  1  0.33877800  0.48265700  0.89463800  1
  H  30  1  0.29352350  0.43346950  0.07756100  1
  H  39  1  0.93247550  0.51654450  0.43690300  1
  H  47  1  0.94795700  0.48395900  0.21977000  1
  H  49  1  0.08509950  0.58879650  0.30189600  1
  H  50  1  0.08105700  0.59768000  0.35762700  1
  H  51  1  0.80094200  0.39789700  0.29948100  1
  H  52  1  0.79710600  0.40547300  0.35519700  1
  H  57  1  0.80018350  0.44744050  0.40962000  1
  H  58  1  0.84119450  0.39489750  0.22624400  1
  H  59  1  0.05381150  0.58030150  0.22784300  1
  H  60  1  0.04988050  0.62562750  0.41087200  1
  H  69  1  0.49410800  0.98656300  0.77026000  1
  H  77  1  0.44602550  0.97119150  0.55312600  1
  H  79  1  0.41367050  0.83399550  0.63523200  1
  H  80  1  0.42664100  0.83801600  0.69095700  1
  H  81  1  0.50711500  0.11819400  0.63285700  1
  H  82  1  0.51854600  0.12200300  0.68857100  1
  H  87  1  0.55744000  0.11875600  0.74311900  1
  H  88  1  0.46379150  0.07797650  0.55962500  1
  H  89  1  0.43648200  0.86531700  0.56119100  1
  H  90  1  0.48574800  0.86917100  0.74427700  1
  H  97  1  0.53135850  0.39876750  0.85018900  1
  H  104  1  0.39861700  0.07812000  0.79939800  1
  H  105  1  0.57500300  0.19341400  0.78088900  1
  H  106  1  0.43503500  0.26585000  0.91643200  1
  H  121  1  0.77745100  0.38755900  0.18347500  1
  H  128  1  0.58963050  0.52044750  0.13268600  1
  H  129  1  0.52848700  0.34405400  0.11416900  1
  H  130  1  0.74086550  0.48390450  0.24970600  1
  H  145  1  0.52018750  0.14171250  0.51685600  1
  H  152  1  0.84087900  0.32945200  0.46601400  1
  H  153  1  0.72566050  0.39065050  0.44754700  1
  H  154  1  0.65314600  0.17821700  0.58305400  1
  H  169  1  0.34448550  0.54569150  0.85171100  1
  H  176  1  0.50016400  0.86750800  0.81004500  1
  H  177  1  0.32633100  0.76746400  0.78133800  1
  H  178  1  0.42569250  0.66766150  0.92542500  1
  H  193  1  0.11132600  0.57483600  0.18502600  1
  H  200  1  0.27713200  0.41882900  0.14330600  1
  H  201  1  0.35128400  0.59278500  0.11477700  1
  H  202  1  0.15181700  0.49334800  0.25870600  1
  H  217  1  0.37351800  0.80786400  0.51835000  1
  H  224  1  0.05171000  0.64203400  0.47659600  1
  H  225  1  0.15155200  0.56792800  0.44805900  1
  H  226  1  0.25150750  0.76731250  0.59202000  1
  H  945  1  0.10285750  0.76217050  0.98391780  1
  H  953  1  0.13541600  0.81020700  0.76678500  1
  H  955  1  0.03074250  0.84271350  0.84892400  1
  H  956  1  0.02184100  0.82976800  0.90465180  1
  H  957  1  0.22132700  0.74906600  0.84648000  1
  H  958  1  0.21377200  0.73767400  0.90219880  1
  H  963  1  0.17181250  0.69887150  0.95666280  1
  H  964  1  0.22450450  0.79240050  0.77335800  1
  H  965  1  0.03908600  0.81981300  0.77495800  1
  H  966  1  0.99383109  0.77062509  0.95788080  1
  H  975  1  0.63278350  0.85370050  0.31722300  1
  H  983  1  0.64826500  0.82111460  0.10009000  1
  H  985  1  0.78540750  0.92595210  0.18221600  1
  H  986  1  0.78136500  0.93483560  0.23794700  1
  H  987  1  0.50125000  0.73505300  0.17980100  1
  H  988  1  0.49741400  0.74262900  0.23551700  1
  H  993  1  0.50049150  0.78459650  0.28994000  1
  H  994  1  0.54150250  0.73205310  0.10656400  1
  H  995  1  0.75411950  0.91745710  0.10816300  1
  H  996  1  0.75018850  0.96278350  0.29119200  1
  H  1005  1  0.19441600  0.32371860  0.65058000  1
  H  1013  1  0.14633350  0.30834710  0.43344600  1
  H  1015  1  0.11397850  0.17115110  0.51555200  1
  H  1016  1  0.12694900  0.17517160  0.57127700  1
  H  1017  1  0.20742300  0.45535000  0.51317700  1
  H  1018  1  0.21885400  0.45915900  0.56889100  1
  H  1023  1  0.25774800  0.45591160  0.62343900  1
  H  1024  1  0.16409950  0.41513250  0.43994500  1
  H  1025  1  0.13679000  0.20247260  0.44151100  1
  H  1026  1  0.18605600  0.20632660  0.62459700  1
  H  1033  1  0.23166650  0.73592350  0.73050900  1
  H  1040  1  0.09892500  0.41527600  0.67971800  1
  H  1041  1  0.27531100  0.53057000  0.66120900  1
  H  1042  1  0.13534300  0.60300600  0.79675200  1
  H  1057  1  0.47775900  0.72471500  0.06379500  1
  H  1064  1  0.28993850  0.85760350  0.01300600  1
  H  1065  1  0.22879500  0.68121000  0.99448879  1
  H  1066  1  0.44117350  0.82106050  0.13002600  1
  H  1081  1  0.22049550  0.47886850  0.39717600  1
  H  1088  1  0.54118700  0.66660760  0.34633400  1
  H  1089  1  0.42596850  0.72780650  0.32786700  1
  H  1090  1  0.35345400  0.51537260  0.46337400  1
  H  1105  1  0.04479350  0.88284750  0.73203100  1
  H  1112  1  0.20047200  0.20466362  0.69036500  1
  H  1113  1  0.02663900  0.10461960  0.66165800  1
  H  1114  1  0.12600050  0.00481750  0.80574500  1
  H  1129  1  0.81163360  0.91199120  0.06534600  1
  H  1136  1  0.97743960  0.75598460  0.02362600  1
  H  1137  1  0.05159200  0.92994100  0.99509679  1
  H  1138  1  0.85212460  0.83050360  0.13902600  1
  H  1153  1  0.07382600  0.14501960  0.39867000  1
  H  1160  1  0.75201800  0.97919000  0.35691600  1
  H  1161  1  0.85185960  0.90508320  0.32837900  1
  H  1162  1  0.95181510  0.10446770  0.47234000  1
  N  93  1  0.46174700  0.24296200  0.87573300  1
  N  103  1  0.53450500  0.22144800  0.81176700  1
  N  107  1  0.38241750  0.14720550  0.83867600  1
  N  108  1  0.54446250  0.33289450  0.80694600  1
  N  113  1  0.48325150  0.08778950  0.76708100  1
  N  114  1  0.47225800  0.37294200  0.90538000  1
  N  117  1  0.69132400  0.45726000  0.20898600  1
  N  127  1  0.59706850  0.38454650  0.14501700  1
  N  131  1  0.67496800  0.53663900  0.17192100  1
  N  132  1  0.69855550  0.37455250  0.14020100  1
  N  137  1  0.51458050  0.43579850  0.10041300  1
  N  138  1  0.81067450  0.44660250  0.23869600  1
  N  141  1  0.67603450  0.22777350  0.54233900  1
  N  151  1  0.69757100  0.32206000  0.47838600  1
  N  155  1  0.77174250  0.24411750  0.50525400  1
  N  156  1  0.58607050  0.22061150  0.47358200  1
  N  161  1  0.83128800  0.40452500  0.43375500  1
  N  162  1  0.54601650  0.10844650  0.57205700  1
  N  165  1  0.40817400  0.69701000  0.88390000  1
  N  175  1  0.35459100  0.73177200  0.81556700  1
  N  179  1  0.49984900  0.79179000  0.85161500  1
  N  180  1  0.34155700  0.61836800  0.80913100  1
  N  185  1  0.42233550  0.86517450  0.77124800  1
  N  186  1  0.39248950  0.56283150  0.90977000  1
  N  189  1  0.19871200  0.51085600  0.21719200  1
  N  199  1  0.28721550  0.56450350  0.14893600  1
  N  203  1  0.20164900  0.41914200  0.18482100  1
  N  204  1  0.18691200  0.57769300  0.14245400  1
  N  209  1  0.35286650  0.49673350  0.10463300  1
  N  210  1  0.08035750  0.52676550  0.24307800  1
  N  213  1  0.22213900  0.72044700  0.55049600  1
  N  223  1  0.18732150  0.63198650  0.48222600  1
  N  227  1  0.12748900  0.71751000  0.51812200  1
  N  228  1  0.30080900  0.73230600  0.47576300  1
  N  233  1  0.05390700  0.56631400  0.43791500  1
  N  234  1  0.35639150  0.83878450  0.57640900  1
  N  1029  1  0.16205500  0.58011800  0.75605300  1
  N  1039  1  0.23481300  0.55860400  0.69208700  1
  N  1043  1  0.08272550  0.48436150  0.71899600  1
  N  1044  1  0.24477050  0.67005050  0.68726600  1
  N  1049  1  0.18355950  0.42494550  0.64740100  1
  N  1050  1  0.17256600  0.71009800  0.78570000  1
  N  1053  1  0.39163200  0.79441600  0.08930600  1
  N  1063  1  0.29737650  0.72170250  0.02533700  1
  N  1067  1  0.37527600  0.87379500  0.05224100  1
  N  1068  1  0.39886350  0.71170850  0.02052100  1
  N  1073  1  0.21488850  0.77295450  0.98073280  1
  N  1074  1  0.51098250  0.78375850  0.11901600  1
  N  1077  1  0.37634250  0.56492910  0.42265900  1
  N  1087  1  0.39787900  0.65921600  0.35870600  1
  N  1091  1  0.47205050  0.58127310  0.38557400  1
  N  1092  1  0.28637850  0.55776750  0.35390200  1
  N  1097  1  0.53159600  0.74168100  0.31407500  1
  N  1098  1  0.24632450  0.44560210  0.45237700  1
  N  1101  1  0.10848200  0.03416600  0.76422000  1
  N  1111  1  0.05489900  0.06892762  0.69588700  1
  N  1115  1  0.20015700  0.12894600  0.73193500  1
  N  1116  1  0.04186500  0.95552400  0.68945100  1
  N  1121  1  0.12264350  0.20233010  0.65156800  1
  N  1122  1  0.09279750  0.89998750  0.79009000  1
  N  1125  1  0.89901960  0.84801160  0.09751200  1
  N  1135  1  0.98752309  0.90165909  0.02925600  1
  N  1139  1  0.90195660  0.75629760  0.06514100  1
  N  1140  1  0.88721960  0.91484820  0.02277400  1
  N  1145  1  0.05317450  0.83388950  0.98495280  1
  N  1146  1  0.78066550  0.86392110  0.12339800  1
  N  1149  1  0.92244660  0.05760220  0.43081600  1
  N  1159  1  0.88762910  0.96914170  0.36254600  1
  N  1163  1  0.82779660  0.05466560  0.39844200  1
  N  1164  1  0.00111700  0.06946160  0.35608300  1
  N  1169  1  0.75421500  0.90346960  0.31823500  1
  N  1170  1  0.05669950  0.17594010  0.45672900  1
  O  109  1  0.36327850  0.10400950  0.85686700  1
  O  110  1  0.59709800  0.37019100  0.80956500  1
  O  111  1  0.52039700  0.35282600  0.78932700  1
  O  112  1  0.34403950  0.13892150  0.81854600  1
  O  133  1  0.65093400  0.55577900  0.19013000  1
  O  134  1  0.68317000  0.32190300  0.14281500  1
  O  135  1  0.74257050  0.39859350  0.12259900  1
  O  136  1  0.70504500  0.57501600  0.15178900  1
  O  157  1  0.81492800  0.26814100  0.52345300  1
  O  158  1  0.54882600  0.23601700  0.47621300  1
  O  159  1  0.56606700  0.17660000  0.45597300  1
  O  160  1  0.78002200  0.21403700  0.48511200  1
  O  181  1  0.51905900  0.83447300  0.87019000  1
  O  182  1  0.28876400  0.58105600  0.80764000  1
  O  183  1  0.36967350  0.60106950  0.79296000  1
  O  184  1  0.54047000  0.79682500  0.83417200  1
  O  205  1  0.22500050  0.39980850  0.20340000  1
  O  206  1  0.20248350  0.63051150  0.14099400  1
  O  207  1  0.14151000  0.54967100  0.12626300  1
  O  208  1  0.16608200  0.37861000  0.16732600  1
  O  229  1  0.08480000  0.69414000  0.53669700  1
  O  230  1  0.33805800  0.71673900  0.47429800  1
  O  231  1  0.31819150  0.77771750  0.45958000  1
  O  232  1  0.12251800  0.75307900  0.50063200  1
  O  1045  1  0.06358650  0.44116550  0.73718700  1
  O  1046  1  0.29740600  0.70734700  0.68988500  1
  O  1047  1  0.22070500  0.68998200  0.66964700  1
  O  1048  1  0.04434750  0.47607750  0.69886600  1
  O  1069  1  0.35124200  0.89293500  0.07045000  1
  O  1070  1  0.38347800  0.65905900  0.02313500  1
  O  1071  1  0.44287850  0.73574950  0.00291900  1
  O  1072  1  0.40535300  0.91217200  0.03210900  1
  O  1093  1  0.51523600  0.60529660  0.40377300  1
  O  1094  1  0.24913400  0.57317300  0.35653300  1
  O  1095  1  0.26637500  0.51375600  0.33629300  1
  O  1096  1  0.48033000  0.55119260  0.36543200  1
  O  1117  1  0.21936700  0.17162900  0.75051000  1
  O  1118  1  0.98907159  0.91821159  0.68796000  1
  O  1119  1  0.06998150  0.93822550  0.67328000  1
  O  1120  1  0.24077800  0.13398100  0.71449200  1
  O  1141  1  0.92530810  0.73696410  0.08372000  1
  O  1142  1  0.90279110  0.96766670  0.02131400  1
  O  1143  1  0.84181760  0.88682620  0.00658300  1
  O  1144  1  0.86638960  0.71576560  0.04764600  1
  O  1165  1  0.78510800  0.03129600  0.41701700  1
  O  1166  1  0.03836600  0.05389462  0.35461800  1
  O  1167  1  0.01849950  0.11487310  0.33990000  1
  O  1168  1  0.82282560  0.09023460  0.38095200  1
