# generated using pymatgen
data_Cr3H24C66O25
_symmetry_space_group_name_H-M   'P 1'
_cell_length_a   12.82668000
_cell_length_b   12.82660000
_cell_length_c   26.74865000
_cell_angle_alpha   89.47702000
_cell_angle_beta   89.47061000
_cell_angle_gamma   60.20071000
_symmetry_Int_Tables_number   1
_chemical_formula_structural   Cr3H24C66O25
_chemical_formula_sum   'Cr6 H48 C132 O50'
_cell_volume   3818.63937521
_cell_formula_units_Z   2
loop_
 _symmetry_equiv_pos_site_id
 _symmetry_equiv_pos_as_xyz
  1  'x, y, z'
loop_
 _atom_site_type_symbol
 _atom_site_label
 _atom_site_symmetry_multiplicity
 _atom_site_fract_x
 _atom_site_fract_y
 _atom_site_fract_z
 _atom_site_occupancy
  Cr  Cr0  1  0.75882000  0.48763000  0.75000000  1
  Cr  Cr1  1  0.48763000  0.75355000  0.75000000  1
  Cr  Cr2  1  0.75355000  0.75882000  0.75000000  1
  Cr  Cr3  1  0.51237000  0.24118000  0.25000000  1
  Cr  Cr4  1  0.24645000  0.51237000  0.25000000  1
  Cr  Cr5  1  0.24118000  0.24645000  0.25000000  1
  H  H6  1  0.30882000  0.05134000  0.12355000  1
  H  H7  1  0.04542000  0.63679000  0.37714000  1
  H  H8  1  0.64126000  0.31004000  0.12326000  1
  H  H9  1  0.29325000  0.08007000  0.37989000  1
  H  H10  1  0.05172000  0.64074000  0.12218000  1
  H  H11  1  0.62697000  0.30554000  0.37959000  1
  H  H12  1  0.92102000  0.70633000  0.62024000  1
  H  H13  1  0.38078000  0.91021000  0.88174000  1
  H  H14  1  0.69444000  0.37272000  0.62047000  1
  H  H15  1  0.91063000  0.70791000  0.88037000  1
  H  H16  1  0.36281000  0.95560000  0.62296000  1
  H  H17  1  0.70694000  0.37994000  0.88044000  1
  H  H18  1  0.24984000  0.98302000  0.04914000  1
  H  H19  1  0.98324000  0.76219000  0.45058000  1
  H  H20  1  0.76808000  0.25213000  0.04796000  1
  H  H21  1  0.21418000  0.05535000  0.45929000  1
  H  H22  1  0.98281000  0.76781000  0.04671000  1
  H  H23  1  0.73681000  0.23130000  0.45674000  1
  H  H24  1  0.94651000  0.78509000  0.54088000  1
  H  H25  1  0.27091000  0.94222000  0.95951000  1
  H  H26  1  0.76838000  0.26276000  0.54331000  1
  H  H27  1  0.94212000  0.78652000  0.95705000  1
  H  H28  1  0.23689000  0.01920000  0.54961000  1
  H  H29  1  0.78568000  0.27174000  0.95785000  1
  H  H30  1  0.70829000  0.93202000  0.17444000  1
  H  H31  1  0.91464000  0.34034000  0.34447000  1
  H  H32  1  0.36340000  0.70817000  0.17520000  1
  H  H33  1  0.69321000  0.90204000  0.31750000  1
  H  H34  1  0.92843000  0.36393000  0.17643000  1
  H  H35  1  0.24855000  0.75137000  0.35646000  1
  H  H36  1  0.09796000  0.30661000  0.68249000  1
  H  H37  1  0.61369000  0.08475000  0.82112000  1
  H  H38  1  0.24887000  0.75009000  0.64432000  1
  H  H39  1  0.08254000  0.30118000  0.82293000  1
  H  H40  1  0.66044000  0.08477000  0.65551000  1
  H  H41  1  0.30076000  0.61429000  0.82294000  1
  H  H42  1  0.74014000  0.09762000  0.08451000  1
  H  H43  1  0.87962000  0.26606000  0.43360000  1
  H  H44  1  0.16443000  0.73791000  0.08701000  1
  H  H45  1  0.87563000  0.96901000  0.44321000  1
  H  H46  1  0.09888000  0.16428000  0.08779000  1
  H  H47  1  0.25426000  0.86779000  0.42808000  1
  H  H48  1  0.02905000  0.12495000  0.55635000  1
  H  H49  1  0.81359000  0.95349000  0.90710000  1
  H  H50  1  0.13212000  0.74713000  0.57236000  1
  H  H51  1  0.95574000  0.23036000  0.91016000  1
  H  H52  1  0.73540000  0.11899000  0.56647000  1
  H  H53  1  0.23333000  0.81354000  0.90863000  1
  C  C54  1  0.54282000  0.55703000  0.82155000  1
  C  C55  1  0.55958000  0.89864000  0.67771000  1
  C  C56  1  0.89946000  0.54303000  0.82164000  1
  C  C57  1  0.54214000  0.55768000  0.67860000  1
  C  C58  1  0.55700000  0.89968000  0.82158000  1
  C  C59  1  0.90188000  0.54290000  0.67921000  1
  C  C60  1  0.44224000  0.45785000  0.32144000  1
  C  C61  1  0.09969000  0.44292000  0.17855000  1
  C  C62  1  0.45706000  0.09816000  0.32080000  1
  C  C63  1  0.44292000  0.45793000  0.17863000  1
  C  C64  1  0.10137000  0.44044000  0.32230000  1
  C  C65  1  0.45771000  0.09992000  0.17850000  1
  C  C66  1  0.50450000  0.99389000  0.97405000  1
  C  C67  1  0.00028000  0.49794000  0.52867000  1
  C  C68  1  0.50172000  0.50488000  0.97430000  1
  C  C69  1  0.50942000  0.99465000  0.52381000  1
  C  C70  1  0.99308000  0.50190000  0.97432000  1
  C  C71  1  0.49308000  0.51012000  0.52638000  1
  C  C72  1  0.00575000  0.49047000  0.47623000  1
  C  C73  1  0.50144000  0.00249000  0.02643000  1
  C  C74  1  0.48944000  0.50660000  0.47378000  1
  C  C75  1  0.00161000  0.49696000  0.02670000  1
  C  C76  1  0.50186000  0.00013000  0.47138000  1
  C  C77  1  0.49716000  0.50232000  0.02671000  1
  C  C78  1  0.33291000  0.96240000  0.97764000  1
  C  C79  1  0.96757000  0.70148000  0.52336000  1
  C  C80  1  0.70418000  0.33369000  0.97659000  1
  C  C81  1  0.31049000  0.01444000  0.52805000  1
  C  C82  1  0.96214000  0.70465000  0.97597000  1
  C  C83  1  0.68732000  0.32762000  0.52502000  1
  C  C84  1  0.98724000  0.68887000  0.47210000  1
  C  C85  1  0.32147000  0.98493000  0.02864000  1
  C  C86  1  0.67189000  0.31228000  0.47507000  1
  C  C87  1  0.98461000  0.69417000  0.02698000  1
  C  C88  1  0.29793000  0.03395000  0.47678000  1
  C  C89  1  0.69429000  0.32306000  0.02783000  1
  C  C90  1  0.43381000  0.94468000  0.89886000  1
  C  C91  1  0.95507000  0.61901000  0.60333000  1
  C  C92  1  0.61998000  0.43332000  0.89823000  1
  C  C93  1  0.42876000  0.96952000  0.60284000  1
  C  C94  1  0.94441000  0.62079000  0.89818000  1
  C  C95  1  0.60978000  0.43229000  0.60249000  1
  C  C96  1  0.03118000  0.57102000  0.39723000  1
  C  C97  1  0.39108000  0.03236000  0.10429000  1
  C  C98  1  0.56733000  0.39012000  0.39761000  1
  C  C99  1  0.03207000  0.57777000  0.10362000  1
  C  C100  1  0.38066000  0.04566000  0.39676000  1
  C  C101  1  0.57833000  0.39234000  0.10425000  1
  C  C102  1  0.48304000  0.03672000  0.13005000  1
  C  C103  1  0.04173000  0.47153000  0.37231000  1
  C  C104  1  0.48223000  0.48390000  0.13036000  1
  C  C105  1  0.47861000  0.03059000  0.36791000  1
  C  C106  1  0.03576000  0.48188000  0.13027000  1
  C  C107  1  0.47847000  0.48426000  0.37009000  1
  C  C108  1  0.96963000  0.52120000  0.63213000  1
  C  C109  1  0.51689000  0.96052000  0.87037000  1
  C  C110  1  0.51571000  0.52118000  0.63004000  1
  C  C111  1  0.95960000  0.52203000  0.87058000  1
  C  C112  1  0.52854000  0.95838000  0.62770000  1
  C  C113  1  0.52143000  0.51672000  0.87045000  1
  C  C114  1  0.42179000  0.96928000  0.94989000  1
  C  C115  1  0.97760000  0.60564000  0.55205000  1
  C  C116  1  0.60817000  0.42192000  0.94944000  1
  C  C117  1  0.41563000  0.99379000  0.55179000  1
  C  C118  1  0.96883000  0.60874000  0.94920000  1
  C  C119  1  0.59647000  0.42236000  0.55156000  1
  C  C120  1  0.00714000  0.58405000  0.44830000  1
  C  C121  1  0.40488000  0.00504000  0.05339000  1
  C  C122  1  0.57717000  0.40324000  0.44857000  1
  C  C123  1  0.00454000  0.59101000  0.05271000  1
  C  C124  1  0.39397000  0.02327000  0.44804000  1
  C  C125  1  0.59137000  0.40624000  0.05319000  1
  C  C126  1  0.57749000  0.01457000  0.89274000  1
  C  C127  1  0.02475000  0.40679000  0.61042000  1
  C  C128  1  0.40739000  0.57758000  0.89366000  1
  C  C129  1  0.60999000  0.98617000  0.60162000  1
  C  C130  1  0.01306000  0.40784000  0.89382000  1
  C  C131  1  0.40189000  0.59206000  0.60700000  1
  C  C132  1  0.01362000  0.39030000  0.39837000  1
  C  C133  1  0.59404000  0.99862000  0.10524000  1
  C  C134  1  0.40740000  0.59803000  0.39320000  1
  C  C135  1  0.99671000  0.40945000  0.10638000  1
  C  C136  1  0.59304000  0.97519000  0.38959000  1
  C  C137  1  0.40973000  0.59486000  0.10586000  1
  C  C138  1  0.58926000  0.00931000  0.94577000  1
  C  C139  1  0.01552000  0.39949000  0.55799000  1
  C  C140  1  0.40148000  0.58940000  0.94668000  1
  C  C141  1  0.60695000  0.99472000  0.54811000  1
  C  C142  1  0.00823000  0.40159000  0.94700000  1
  C  C143  1  0.39420000  0.59855000  0.55366000  1
  C  C144  1  0.00516000  0.39326000  0.45188000  1
  C  C145  1  0.59482000  0.00615000  0.05209000  1
  C  C146  1  0.40106000  0.60563000  0.44656000  1
  C  C147  1  0.00482000  0.40043000  0.05335000  1
  C  C148  1  0.60043000  0.98442000  0.44201000  1
  C  C149  1  0.40076000  0.59557000  0.05288000  1
  C  C150  1  0.68469000  0.01645000  0.02437000  1
  C  C151  1  0.99470000  0.30548000  0.48213000  1
  C  C152  1  0.30034000  0.68478000  0.02586000  1
  C  C153  1  0.69516000  0.99281000  0.46492000  1
  C  C154  1  0.01564000  0.29984000  0.02675000  1
  C  C155  1  0.30801000  0.70320000  0.47391000  1
  C  C156  1  0.00672000  0.30502000  0.53503000  1
  C  C157  1  0.68309000  0.01619000  0.97091000  1
  C  C158  1  0.29682000  0.69195000  0.52640000  1
  C  C159  1  0.01555000  0.30093000  0.97327000  1
  C  C160  1  0.69492000  0.00479000  0.51781000  1
  C  C161  1  0.30147000  0.68312000  0.97241000  1
  C  C162  1  0.70689000  0.92584000  0.13414000  1
  C  C163  1  0.99276000  0.30563000  0.36846000  1
  C  C164  1  0.36967000  0.70756000  0.13479000  1
  C  C165  1  0.69922000  0.89639000  0.35795000  1
  C  C166  1  0.92340000  0.36970000  0.13603000  1
  C  C167  1  0.34550000  0.70510000  0.36040000  1
  C  C168  1  0.10342000  0.30055000  0.64204000  1
  C  C169  1  0.60348000  0.09570000  0.86129000  1
  C  C170  1  0.29483000  0.65328000  0.63985000  1
  C  C171  1  0.09404000  0.30104000  0.86301000  1
  C  C172  1  0.69492000  0.00669000  0.63149000  1
  C  C173  1  0.30020000  0.60381000  0.86316000  1
  C  C174  1  0.77099000  0.03954000  0.05207000  1
  C  C175  1  0.95231000  0.22742000  0.46011000  1
  C  C176  1  0.19133000  0.76988000  0.05440000  1
  C  C177  1  0.78186000  0.01078000  0.43341000  1
  C  C178  1  0.03973000  0.19079000  0.05573000  1
  C  C179  1  0.22148000  0.81676000  0.44869000  1
  C  C180  1  0.98844000  0.21839000  0.56646000  1
  C  C181  1  0.78509000  0.00800000  0.94063000  1
  C  C182  1  0.18382000  0.77918000  0.55179000  1
  C  C183  1  0.00838000  0.20606000  0.94417000  1
  C  C184  1  0.77349000  0.04668000  0.53977000  1
  C  C185  1  0.20774000  0.78504000  0.94266000  1
  O  O186  1  0.87907000  0.46087000  0.80524000  1
  O  O187  1  0.46087000  0.66006000  0.69476000  1
  O  O188  1  0.66006000  0.87907000  0.80524000  1
  O  O189  1  0.87907000  0.46087000  0.69476000  1
  O  O190  1  0.46087000  0.66006000  0.80524000  1
  O  O191  1  0.66006000  0.87907000  0.69476000  1
  O  O192  1  0.53913000  0.12093000  0.30524000  1
  O  O193  1  0.33994000  0.53913000  0.19476000  1
  O  O194  1  0.12093000  0.33994000  0.30524000  1
  O  O195  1  0.53913000  0.12093000  0.19476000  1
  O  O196  1  0.33994000  0.53913000  0.30524000  1
  O  O197  1  0.12093000  0.33994000  0.19476000  1
  O  O198  1  0.64953000  0.49891000  0.80187000  1
  O  O199  1  0.49891000  0.85156000  0.69813000  1
  O  O200  1  0.85156000  0.64953000  0.80187000  1
  O  O201  1  0.64953000  0.49891000  0.69813000  1
  O  O202  1  0.49891000  0.85156000  0.80187000  1
  O  O203  1  0.85156000  0.64953000  0.69813000  1
  O  O204  1  0.50109000  0.35047000  0.30187000  1
  O  O205  1  0.14844000  0.50109000  0.19813000  1
  O  O206  1  0.35047000  0.14844000  0.30187000  1
  O  O207  1  0.50109000  0.35047000  0.19813000  1
  O  O208  1  0.14844000  0.50109000  0.30187000  1
  O  O209  1  0.35047000  0.14844000  0.19813000  1
  O  O210  1  0.66666667  0.66666667  0.75000000  1
  O  O211  1  0.33333333  0.33333333  0.25000000  1
  O  O212  1  0.79818000  0.84966000  0.11362000  1
  O  O213  1  0.06599000  0.19834000  0.36812000  1
  O  O214  1  0.35313000  0.79963000  0.11409000  1
  O  O215  1  0.79237000  0.81876000  0.37668000  1
  O  O216  1  0.84815000  0.35276000  0.11592000  1
  O  O217  1  0.40393000  0.73902000  0.33591000  1
  O  O218  1  0.18074000  0.20726000  0.62329000  1
  O  O219  1  0.60444000  0.18215000  0.87955000  1
  O  O220  1  0.26048000  0.59438000  0.66374000  1
  O  O221  1  0.18097000  0.21459000  0.88161000  1
  O  O222  1  0.80214000  0.93325000  0.63178000  1
  O  O223  1  0.21294000  0.60466000  0.88226000  1
  O  O224  1  0.87752000  0.98876000  0.04149000  1
  O  O225  1  0.99864000  0.12051000  0.46976000  1
  O  O226  1  0.13540000  0.87660000  0.04426000  1
  O  O227  1  0.74848000  0.07465000  0.39616000  1
  O  O228  1  0.98850000  0.13472000  0.04674000  1
  O  O229  1  0.11379000  0.85327000  0.45003000  1
  O  O230  1  0.92541000  0.25150000  0.60393000  1
  O  O231  1  0.83527000  0.06428000  0.95097000  1
  O  O232  1  0.14853000  0.88663000  0.55064000  1
  O  O233  1  0.06310000  0.10048000  0.95615000  1
  O  O234  1  0.88021000  0.00055000  0.52974000  1
  O  O235  1  0.10184000  0.83554000  0.95415000  1
