# generated using pymatgen
data_H7C12N2O
_symmetry_space_group_name_H-M   'P 1'
_cell_length_a   19.54950000
_cell_length_b   19.54950000
_cell_length_c   19.54950000
_cell_angle_alpha   90.00000000
_cell_angle_beta   90.00000000
_cell_angle_gamma   90.00000000
_symmetry_Int_Tables_number   1
_chemical_formula_structural   H7C12N2O
_chemical_formula_sum   'H84 C144 N24 O12'
_cell_volume   7471.48558591
_cell_formula_units_Z   12
loop_
 _symmetry_equiv_pos_site_id
 _symmetry_equiv_pos_as_xyz
  1  'x, y, z'
loop_
 _atom_site_type_symbol
 _atom_site_label
 _atom_site_symmetry_multiplicity
 _atom_site_fract_x
 _atom_site_fract_y
 _atom_site_fract_z
 _atom_site_occupancy
  C  1  1  0.36586100  0.38749500  0.73729800  1
  C  2  1  0.31970100  0.42537300  0.69599500  1
  C  3  1  0.29188700  0.39795000  0.63538500  1
  C  4  1  0.31597100  0.33398300  0.61240000  1
  C  5  1  0.36462700  0.29664800  0.65036000  1
  C  6  1  0.38597400  0.32153200  0.71488800  1
  C  13  1  0.64696800  0.64998200  0.73382200  1
  C  14  1  0.70454000  0.61465600  0.70817200  1
  C  15  1  0.73838800  0.63778600  0.64883000  1
  C  16  1  0.71480900  0.69757400  0.61580600  1
  C  17  1  0.65758800  0.73341600  0.64093800  1
  C  18  1  0.62409300  0.70947200  0.70023300  1
  C  25  1  0.64353400  0.36548400  0.29792600  1
  C  26  1  0.70889800  0.38562100  0.32144700  1
  C  27  1  0.73380400  0.36249100  0.38544200  1
  C  28  1  0.69336400  0.31533800  0.42314300  1
  C  29  1  0.63162200  0.28877000  0.39657500  1
  C  30  1  0.60674800  0.31536500  0.33435300  1
  C  37  1  0.38594400  0.63630000  0.28866700  1
  C  38  1  0.31824400  0.61969900  0.30771300  1
  C  39  1  0.28502900  0.65520600  0.36114100  1
  C  40  1  0.31693000  0.71402900  0.38902300  1
  C  41  1  0.38329400  0.73430600  0.36850200  1
  C  42  1  0.41827700  0.69246300  0.32065300  1
  C  49  1  0.04652900  0.51084200  0.47651500  1
  C  50  1  0.08135800  0.57031600  0.45337200  1
  C  51  1  0.15217800  0.57969300  0.46346600  1
  C  52  1  0.18828600  0.53025000  0.50156900  1
  C  53  1  0.15750700  0.46758900  0.52038200  1
  C  54  1  0.08723600  0.45679400  0.50423400  1
  C  57  1  0.97360600  0.51015600  0.48228400  1
  C  58  1  0.93842400  0.56563600  0.51434400  1
  C  59  1  0.87122400  0.55673800  0.54063300  1
  C  60  1  0.83730800  0.49399800  0.52922600  1
  C  61  1  0.86593600  0.44317900  0.48689400  1
  C  62  1  0.93449000  0.45116200  0.46525100  1
  C  69  1  0.82580600  0.38569400  0.47011900  1
  C  70  1  0.19754100  0.41755700  0.55386600  1
  C  71  1  0.18577900  0.63896300  0.44033400  1
  C  72  1  0.83616000  0.60987800  0.57460400  1
  C  77  1  0.48443300  0.04279400  0.51485200  1
  C  78  1  0.46271800  0.07882200  0.57430200  1
  C  79  1  0.45979900  0.15099300  0.57658300  1
  C  80  1  0.48951500  0.18756500  0.52189600  1
  C  81  1  0.51580400  0.15433600  0.46351600  1
  C  82  1  0.50693500  0.08234000  0.45756200  1
  C  85  1  0.49174700  0.97002600  0.51562400  1
  C  86  1  0.52582000  0.93631600  0.57072600  1
  C  87  1  0.55218400  0.86914300  0.56218100  1
  C  88  1  0.53933400  0.83408400  0.50030900  1
  C  89  1  0.49423300  0.86081000  0.45092400  1
  C  90  1  0.47190500  0.92920600  0.45860500  1
  C  97  1  0.47460600  0.81805500  0.39625700  1
  C  98  1  0.54951300  0.19427200  0.41365300  1
  C  99  1  0.43198600  0.18742900  0.63239000  1
  C  100  1  0.58692000  0.83466200  0.61516200  1
  C  105  1  0.51132400  0.48970100  0.04555600  1
  C  106  1  0.56959000  0.46791100  0.08317800  1
  C  107  1  0.56975400  0.46497000  0.15527900  1
  C  108  1  0.51367000  0.49371100  0.19054400  1
  C  109  1  0.45631400  0.52045400  0.15572900  1
  C  110  1  0.45300300  0.51247400  0.08344000  1
  C  113  1  0.51373800  0.49456500  0.97267000  1
  C  114  1  0.57082800  0.52432000  0.93810900  1
  C  115  1  0.56430200  0.54761600  0.86957800  1
  C  116  1  0.50233000  0.53576400  0.83437000  1
  C  117  1  0.45058900  0.49454600  0.86285600  1
  C  118  1  0.45649700  0.47511200  0.93213700  1
  C  125  1  0.39384600  0.47711900  0.82210800  1
  C  126  1  0.40464500  0.55385100  0.19380100  1
  C  127  1  0.62468200  0.43629300  0.19220000  1
  C  128  1  0.61888000  0.57875700  0.83418300  1
  C  1057  1  0.77507900  0.79671300  0.14651580  1
  C  1058  1  0.72891900  0.83459100  0.10521280  1
  C  1059  1  0.70110500  0.80716800  0.04460280  1
  C  1060  1  0.72518900  0.74320100  0.02161780  1
  C  1061  1  0.77384500  0.70586600  0.05957780  1
  C  1062  1  0.79519200  0.73075000  0.12410580  1
  C  1069  1  0.05618580  0.05919980  0.14303980  1
  C  1070  1  0.11375780  0.02387380  0.11738980  1
  C  1071  1  0.14760580  0.04700380  0.05804780  1
  C  1072  1  0.12402680  0.10679180  0.02502380  1
  C  1073  1  0.06680580  0.14263380  0.05015580  1
  C  1074  1  0.03331080  0.11868980  0.10945080  1
  C  1081  1  0.05275180  0.77470200  0.70714400  1
  C  1082  1  0.11811580  0.79483900  0.73066500  1
  C  1083  1  0.14302180  0.77170900  0.79466000  1
  C  1084  1  0.10258180  0.72455600  0.83236100  1
  C  1085  1  0.04083980  0.69798800  0.80579300  1
  C  1086  1  0.01596581  0.72458300  0.74357100  1
  C  1093  1  0.79516200  0.04551780  0.69788500  1
  C  1094  1  0.72746200  0.02891680  0.71693100  1
  C  1095  1  0.69424700  0.06442380  0.77035900  1
  C  1096  1  0.72614800  0.12324680  0.79824100  1
  C  1097  1  0.79251200  0.14352380  0.77772000  1
  C  1098  1  0.82749500  0.10168080  0.72987100  1
  C  1105  1  0.45574700  0.92006000  0.88573300  1
  C  1106  1  0.49057600  0.97953400  0.86259000  1
  C  1107  1  0.56139600  0.98891100  0.87268400  1
  C  1108  1  0.59750400  0.93946800  0.91078700  1
  C  1109  1  0.56672500  0.87680700  0.92960000  1
  C  1110  1  0.49645400  0.86601200  0.91345200  1
  C  1113  1  0.38282400  0.91937400  0.89150200  1
  C  1114  1  0.34764200  0.97485400  0.92356200  1
  C  1115  1  0.28044200  0.96595600  0.94985100  1
  C  1116  1  0.24652600  0.90321600  0.93844400  1
  C  1117  1  0.27515400  0.85239700  0.89611200  1
  C  1118  1  0.34370800  0.86038000  0.87446900  1
  C  1125  1  0.23502400  0.79491200  0.87933700  1
  C  1126  1  0.60675900  0.82677500  0.96308400  1
  C  1127  1  0.59499700  0.04818080  0.84955200  1
  C  1128  1  0.24537800  0.01909581  0.98382200  1
  C  1133  1  0.89365100  0.45201200  0.92407000  1
  C  1134  1  0.87193600  0.48804000  0.98352000  1
  C  1135  1  0.86901700  0.56021100  0.98580100  1
  C  1136  1  0.89873300  0.59678300  0.93111400  1
  C  1137  1  0.92502200  0.56355400  0.87273400  1
  C  1138  1  0.91615300  0.49155800  0.86678000  1
  C  1141  1  0.90096500  0.37924400  0.92484200  1
  C  1142  1  0.93503800  0.34553400  0.97994400  1
  C  1143  1  0.96140200  0.27836100  0.97139900  1
  C  1144  1  0.94855200  0.24330200  0.90952700  1
  C  1145  1  0.90345100  0.27002800  0.86014200  1
  C  1146  1  0.88112300  0.33842400  0.86782300  1
  C  1153  1  0.88382400  0.22727300  0.80547500  1
  C  1154  1  0.95873100  0.60349000  0.82287100  1
  C  1155  1  0.84120400  0.59664700  0.04160780  1
  C  1156  1  0.99613800  0.24388000  0.02437980  1
  C  1161  1  0.92054200  0.89891900  0.45477400  1
  C  1162  1  0.97880800  0.87712900  0.49239600  1
  C  1163  1  0.97897200  0.87418800  0.56449700  1
  C  1164  1  0.92288800  0.90292900  0.59976200  1
  C  1165  1  0.86553200  0.92967200  0.56494700  1
  C  1166  1  0.86222100  0.92169200  0.49265800  1
  C  1169  1  0.92295600  0.90378300  0.38188800  1
  C  1170  1  0.98004600  0.93353800  0.34732700  1
  C  1171  1  0.97352000  0.95683400  0.27879600  1
  C  1172  1  0.91154800  0.94498200  0.24358800  1
  C  1173  1  0.85980700  0.90376400  0.27207400  1
  C  1174  1  0.86571500  0.88433000  0.34135500  1
  C  1181  1  0.80306400  0.88633700  0.23132600  1
  C  1182  1  0.81386300  0.96306900  0.60301900  1
  C  1183  1  0.03389980  0.84551100  0.60141800  1
  C  1184  1  0.02809780  0.98797500  0.24340100  1
  H  7  1  0.30060500  0.31613100  0.56563600  1
  H  8  1  0.42334700  0.29579800  0.74096000  1
  H  9  1  0.30315300  0.47239700  0.71155800  1
  H  19  1  0.73613700  0.71230000  0.57034200  1
  H  20  1  0.57982800  0.73242400  0.71617200  1
  H  21  1  0.71868400  0.56904300  0.72958400  1
  H  31  1  0.71034100  0.29730800  0.46912800  1
  H  32  1  0.55927800  0.30101500  0.31751300  1
  H  33  1  0.73467400  0.42337700  0.29594700  1
  H  43  1  0.29281100  0.74092000  0.42682900  1
  H  44  1  0.46685600  0.70478000  0.30592800  1
  H  45  1  0.29630900  0.57625600  0.28842300  1
  H  55  1  0.05431300  0.60819800  0.42933700  1
  H  56  1  0.23945000  0.53766600  0.51038600  1
  H  63  1  0.78768600  0.48823200  0.54523200  1
  H  64  1  0.95700000  0.41216400  0.43852400  1
  H  67  1  0.06274900  0.36344800  0.49800400  1
  H  68  1  0.96253200  0.65869200  0.50264300  1
  H  73  1  0.79611800  0.36722300  0.50889800  1
  H  74  1  0.18146700  0.36775900  0.55446000  1
  H  75  1  0.20903400  0.66798200  0.47695500  1
  H  76  1  0.85180500  0.65947000  0.56866400  1
  H  83  1  0.44236500  0.05200700  0.61440200  1
  H  84  1  0.49254500  0.23984400  0.52488400  1
  H  91  1  0.55527800  0.78436600  0.49523100  1
  H  92  1  0.44299300  0.95047000  0.42047100  1
  H  95  1  0.50366900  0.05381800  0.36513700  1
  H  96  1  0.51711800  0.96186400  0.66372600  1
  H  101  1  0.51148100  0.78522200  0.37886000  1
  H  102  1  0.55328300  0.17676300  0.36444600  1
  H  103  1  0.42491100  0.16451200  0.67887700  1
  H  104  1  0.58129400  0.85020600  0.66481600  1
  H  111  1  0.61019500  0.44697700  0.05759700  1
  H  112  1  0.51503400  0.49595300  0.24291200  1
  H  119  1  0.49812100  0.54983600  0.78401000  1
  H  120  1  0.41689600  0.44881000  0.95410600  1
  H  123  1  0.36110500  0.51082700  0.05276900  1
  H  124  1  0.66335800  0.51413400  0.96485900  1
  H  129  1  0.37794900  0.51443300  0.78923800  1
  H  130  1  0.35684400  0.55989000  0.17345700  1
  H  131  1  0.67185400  0.43058900  0.17021900  1
  H  132  1  0.66822800  0.57196900  0.85022200  1
  H  1063  1  0.70982300  0.72534900  0.97485400  1
  H  1064  1  0.83256500  0.70501600  0.15017780  1
  H  1065  1  0.71237100  0.88161500  0.12077580  1
  H  1075  1  0.14535480  0.12151780  0.97956000  1
  H  1076  1  0.98904600  0.14164180  0.12538980  1
  H  1077  1  0.12790180  0.97826100  0.13880180  1
  H  1087  1  0.11955880  0.70652600  0.87834600  1
  H  1088  1  0.96849600  0.71023300  0.72673100  1
  H  1089  1  0.14389180  0.83259500  0.70516500  1
  H  1099  1  0.70202900  0.15013780  0.83604700  1
  H  1100  1  0.87607400  0.11399780  0.71514600  1
  H  1101  1  0.70552700  0.98547400  0.69764100  1
  H  1111  1  0.46353100  0.01741581  0.83855500  1
  H  1112  1  0.64866800  0.94688400  0.91960400  1
  H  1119  1  0.19690380  0.89745000  0.95445000  1
  H  1120  1  0.36621800  0.82138200  0.84774200  1
  H  1123  1  0.47196700  0.77266600  0.90722200  1
  H  1124  1  0.37175000  0.06790980  0.91186100  1
  H  1129  1  0.20533600  0.77644100  0.91811600  1
  H  1130  1  0.59068500  0.77697700  0.96367800  1
  H  1131  1  0.61825200  0.07719980  0.88617300  1
  H  1132  1  0.26102300  0.06868780  0.97788200  1
  H  1139  1  0.85158300  0.46122500  0.02361980  1
  H  1140  1  0.90176300  0.64906200  0.93410200  1
  H  1147  1  0.96449600  0.19358380  0.90444900  1
  H  1148  1  0.85221100  0.35968800  0.82968900  1
  H  1151  1  0.91288700  0.46303600  0.77435500  1
  H  1152  1  0.92633600  0.37108200  0.07294380  1
  H  1157  1  0.92069900  0.19443980  0.78807800  1
  H  1158  1  0.96250100  0.58598100  0.77366400  1
  H  1159  1  0.83412900  0.57373000  0.08809480  1
  H  1160  1  0.99051200  0.25942400  0.07403380  1
  H  1167  1  0.01941281  0.85619500  0.46681500  1
  H  1168  1  0.92425200  0.90517100  0.65213000  1
  H  1175  1  0.90733900  0.95905400  0.19322780  1
  H  1176  1  0.82611400  0.85802800  0.36332400  1
  H  1179  1  0.77032300  0.92004500  0.46198700  1
  H  1180  1  0.07257580  0.92335200  0.37407700  1
  H  1185  1  0.78716700  0.92365100  0.19845580  1
  H  1186  1  0.76606200  0.96910800  0.58267500  1
  H  1187  1  0.08107180  0.83980700  0.57943700  1
  H  1188  1  0.07744580  0.98118700  0.25944000  1
  N  10  1  0.39630900  0.41343300  0.79447600  1
  N  11  1  0.24554200  0.43595000  0.60039200  1
  N  12  1  0.39419100  0.24338800  0.61761500  1
  N  22  1  0.60674200  0.62433600  0.78373900  1
  N  23  1  0.78658800  0.59673200  0.62100400  1
  N  24  1  0.63129800  0.78353000  0.60138200  1
  N  34  1  0.60932000  0.39674300  0.24664300  1
  N  35  1  0.79276800  0.39119300  0.40928500  1
  N  36  1  0.59621200  0.24175600  0.43345400  1
  N  46  1  0.42298800  0.59867600  0.24350900  1
  N  47  1  0.22713100  0.62599600  0.38620500  1
  N  48  1  0.41092200  0.79062400  0.39917200  1
  N  1066  1  0.80552700  0.82265100  0.20369400  1
  N  1067  1  0.65476000  0.84516800  0.00960981  1
  N  1068  1  0.80340900  0.65260600  0.02683280  1
  N  1078  1  0.01595981  0.03355380  0.19295680  1
  N  1079  1  0.19580580  0.00594981  0.03022180  1
  N  1080  1  0.04051580  0.19274780  0.01059981  1
  N  1090  1  0.01853781  0.80596100  0.65586100  1
  N  1091  1  0.20198600  0.80041100  0.81850300  1
  N  1092  1  0.00542981  0.65097400  0.84267200  1
  N  1102  1  0.83220600  0.00789381  0.65272700  1
  N  1103  1  0.63634900  0.03521380  0.79542300  1
  N  1104  1  0.82014000  0.19984180  0.80839000  1
  O  65  1  0.05610300  0.40048200  0.53136000  1
  O  66  1  0.97357600  0.62220800  0.53546200  1
  O  93  1  0.53650000  0.05020300  0.40306100  1
  O  94  1  0.54844400  0.97271400  0.62588600  1
  O  121  1  0.39984200  0.54277200  0.04972500  1
  O  122  1  0.62624200  0.54678600  0.97419400  1
  O  1121  1  0.46532100  0.80970000  0.94057800  1
  O  1122  1  0.38279400  0.03142580  0.94468000  1
  O  1149  1  0.94571800  0.45942100  0.81227900  1
  O  1150  1  0.95766200  0.38193200  0.03510380  1
  O  1177  1  0.80906000  0.95199000  0.45894300  1
  O  1178  1  0.03545980  0.95600400  0.38341200  1
