# generated using pymatgen
data_CuSiH10W12C12(N2O15)2
_symmetry_space_group_name_H-M   'P 1'
_cell_length_a   9.92477000
_cell_length_b   12.98170000
_cell_length_c   18.73204000
_cell_angle_alpha   97.50919000
_cell_angle_beta   90.27775000
_cell_angle_gamma   112.14008000
_symmetry_Int_Tables_number   1
_chemical_formula_structural   CuSiH10W12C12(N2O15)2
_chemical_formula_sum   'Cu2 Si2 H20 W24 C24 N8 O60'
_cell_volume   2212.46761723
_cell_formula_units_Z   2
loop_
 _symmetry_equiv_pos_site_id
 _symmetry_equiv_pos_as_xyz
  1  'x, y, z'
loop_
 _atom_site_type_symbol
 _atom_site_label
 _atom_site_symmetry_multiplicity
 _atom_site_fract_x
 _atom_site_fract_y
 _atom_site_fract_z
 _atom_site_occupancy
  Cu  Cu0  1  0.00198000  0.00056000  0.99976000  1
  Cu  Cu1  1  0.99323000  0.00142000  0.50098000  1
  Si  Si2  1  0.43926000  0.00354000  0.25211000  1
  Si  Si3  1  0.57505000  0.00426000  0.74295000  1
  H  H4  1  0.42659000  0.38396000  0.59926000  1
  H  H5  1  0.28059000  0.20961000  0.52995000  1
  H  H6  1  0.95673000  0.38290000  0.10147000  1
  H  H7  1  0.92696000  0.20739000  0.03377000  1
  H  H8  1  0.31566000  0.47993000  0.40185000  1
  H  H9  1  0.66760000  0.59904000  0.04164000  1
  H  H10  1  0.86501000  0.19444000  0.46503000  1
  H  H11  1  0.06766000  0.41133000  0.46202000  1
  H  H12  1  0.92615000  0.59915000  0.54903000  1
  H  H13  1  0.08333000  0.79137000  0.97325000  1
  H  H14  1  0.69370000  0.81964000  0.04388000  1
  H  H15  1  0.04329000  0.61413000  0.90166000  1
  H  H16  1  0.12586000  0.81426000  0.54337000  1
  H  H17  1  0.71542000  0.78930000  0.46255000  1
  H  H18  1  0.33260000  0.40191000  0.95693000  1
  H  H19  1  0.56823000  0.61921000  0.40175000  1
  H  H20  1  0.15469000  0.47191000  0.90205000  1
  H  H21  1  0.84637000  0.52528000  0.10128000  1
  H  H22  1  0.31610000  0.18402000  0.95789000  1
  H  H23  1  0.67931000  0.52375000  0.59928000  1
  W  W24  1  0.70826000  0.04487000  0.12967000  1
  W  W25  1  0.27346000  0.80470000  0.70576000  1
  W  W26  1  0.31833000  0.75210000  0.33954000  1
  W  W27  1  0.13860000  0.94018000  0.37816000  1
  W  W28  1  0.66487000  0.95149000  0.36884000  1
  W  W29  1  0.29093000  0.95732000  0.86307000  1
  W  W30  1  0.18122000  0.03636000  0.11363000  1
  W  W31  1  0.73395000  0.81379000  0.71966000  1
  W  W32  1  0.78451000  0.21744000  0.29358000  1
  W  W33  1  0.54843000  0.22682000  0.16186000  1
  W  W34  1  0.84385000  0.01658000  0.61191000  1
  W  W35  1  0.42193000  0.21367000  0.77731000  1
  W  W36  1  0.82409000  0.98193000  0.88977000  1
  W  W37  1  0.56667000  0.78265000  0.20904000  1
  W  W38  1  0.65864000  0.18003000  0.89719000  1
  W  W39  1  0.27498000  0.17756000  0.28740000  1
  W  W40  1  0.48970000  0.15610000  0.41563000  1
  W  W41  1  0.33440000  0.83123000  0.08107000  1
  W  W42  1  0.46586000  0.76754000  0.84877000  1
  W  W43  1  0.93246000  0.20409000  0.78588000  1
  W  W44  1  0.69083000  0.22236000  0.65638000  1
  W  W45  1  0.09544000  0.82908000  0.22565000  1
  W  W46  1  0.46981000  0.81535000  0.59367000  1
  W  W47  1  0.34865000  0.04655000  0.61101000  1
  C  C48  1  0.77126000  0.78133000  0.02973000  1
  C  C49  1  0.60045000  0.51259000  0.55553000  1
  C  C50  1  0.19372000  0.23339000  0.51303000  1
  C  C51  1  0.06422000  0.42064000  0.00221000  1
  C  C52  1  0.03625000  0.23024000  0.01586000  1
  C  C53  1  0.80140000  0.76726000  0.48277000  1
  C  C54  1  0.08037000  0.33674000  0.47529000  1
  C  C55  1  0.02616000  0.56429000  0.94563000  1
  C  C56  1  0.53644000  0.56873000  0.44541000  1
  C  C57  1  0.91072000  0.51163000  0.05685000  1
  C  C58  1  0.45806000  0.43528000  0.55601000  1
  C  C59  1  0.24668000  0.32887000  0.97203000  1
  C  C60  1  0.63902000  0.57933000  0.50037000  1
  C  C61  1  0.75736000  0.67207000  0.02918000  1
  C  C62  1  0.97451000  0.43281000  0.05747000  1
  C  C63  1  0.93716000  0.57714000  0.00099000  1
  C  C64  1  0.23747000  0.22101000  0.97297000  1
  C  C65  1  0.97310000  0.77009000  0.98975000  1
  C  C66  1  0.39410000  0.49147000  0.44592000  1
  C  C67  1  0.35546000  0.42499000  0.50125000  1
  C  C68  1  0.01068000  0.77754000  0.52817000  1
  C  C69  1  0.91259000  0.67094000  0.53156000  1
  C  C70  1  0.98172000  0.22921000  0.47649000  1
  C  C71  1  0.09032000  0.48589000  0.94634000  1
  N  N72  1  0.10510000  0.16041000  0.00000000  1
  N  N73  1  0.77989000  0.66539000  0.50233000  1
  N  N74  1  0.88601000  0.66590000  0.00333000  1
  N  N75  1  0.93953000  0.83692000  0.49795000  1
  N  N76  1  0.21458000  0.33848000  0.49919000  1
  N  N77  1  0.05479000  0.16542000  0.49923000  1
  N  N78  1  0.90677000  0.84141000  0.00553000  1
  N  N79  1  0.11859000  0.33356000  0.99979000  1
  O  O80  1  0.40865000  0.09382000  0.31321000  1
  O  O81  1  0.56209000  0.08831000  0.20705000  1
  O  O82  1  0.67912000  0.23863000  0.37092000  1
  O  O83  1  0.42649000  0.69829000  0.26547000  1
  O  O84  1  0.13554000  0.06429000  0.33445000  1
  O  O85  1  0.50696000  0.16219000  0.57726000  1
  O  O86  1  0.30553000  0.08800000  0.81799000  1
  O  O87  1  0.77895000  0.13417000  0.60022000  1
  O  O88  1  0.24816000  0.92092000  0.66606000  1
  O  O89  1  0.05361000  0.92301000  0.16278000  1
  O  O90  1  0.57201000  0.04803000  0.41915000  1
  O  O91  1  0.49239000  0.92006000  0.28759000  1
  O  O92  1  0.67301000  0.93708000  0.71342000  1
  O  O93  1  0.31500000  0.14433000  0.68533000  1
  O  O94  1  0.29545000  0.93396000  0.20005000  1
  O  O95  1  0.84580000  0.88322000  0.80744000  1
  O  O96  1  0.77266000  0.08022000  0.32615000  1
  O  O97  1  0.67259000  0.91530000  0.56819000  1
  O  O98  1  0.66123000  0.17295000  0.09922000  1
  O  O99  1  0.16299000  0.75109000  0.11285000  1
  O  O100  1  0.41227000  0.92546000  0.56483000  1
  O  O101  1  0.83297000  0.03747000  0.06788000  1
  O  O102  1  0.69376000  0.84684000  0.29952000  1
  O  O103  1  0.16643000  0.96147000  0.92549000  1
  O  O104  1  0.83786000  0.14827000  0.20341000  1
  O  O105  1  0.98400000  0.83299000  0.30084000  1
  O  O106  1  0.86656000  0.89677000  0.65499000  1
  O  O107  1  0.36592000  0.15746000  0.10905000  1
  O  O108  1  0.20065000  0.82278000  0.39250000  1
  O  O109  1  0.16700000  0.14522000  0.20366000  1
  O  O110  1  0.19979000  0.02540000  0.55524000  1
  O  O111  1  0.67685000  0.09145000  0.80817000  1
  O  O112  1  0.85066000  0.28146000  0.71965000  1
  O  O113  1  0.18503000  0.73855000  0.26153000  1
  O  O114  1  0.27059000  0.72053000  0.61724000  1
  O  O115  1  0.57845000  0.28433000  0.72277000  1
  O  O116  1  0.47547000  0.06415000  0.91044000  1
  O  O117  1  0.42707000  0.92713000  0.77473000  1
  O  O118  1  0.52420000  0.94865000  0.07979000  1
  O  O119  1  0.55488000  0.26234000  0.86602000  1
  O  O120  1  0.40189000  0.25006000  0.39405000  1
  O  O121  1  0.95293000  0.10168000  0.84350000  1
  O  O122  1  0.75363000  0.08361000  0.93423000  1
  O  O123  1  0.49029000  0.82268000  0.39705000  1
  O  O124  1  0.84713000  0.26621000  0.86498000  1
  O  O125  1  0.68841000  0.91806000  0.17494000  1
  O  O126  1  0.64552000  0.86143000  0.90158000  1
  O  O127  1  0.43967000  0.75985000  0.12940000  1
  O  O128  1  0.25296000  0.94193000  0.06194000  1
  O  O129  1  0.44585000  0.26068000  0.23998000  1
  O  O130  1  0.57375000  0.74764000  0.64008000  1
  O  O131  1  0.35378000  0.84162000  0.89461000  1
  O  O132  1  0.31908000  0.71649000  0.76605000  1
  O  O133  1  0.58234000  0.73276000  0.77914000  1
  O  O134  1  0.30487000  0.04106000  0.42919000  1
  O  O135  1  0.72264000  0.29513000  0.23548000  1
  O  O136  1  0.16847000  0.84930000  0.79062000  1
  O  O137  1  0.94798000  0.11724000  0.69733000  1
  O  O138  1  0.79161000  0.96308000  0.43599000  1
  O  O139  1  0.54210000  0.07351000  0.68347000  1
