# generated using pymatgen
data_Cu2H50C53N2O15
_symmetry_space_group_name_H-M   'P 1'
_cell_length_a   9.73330000
_cell_length_b   10.86113000
_cell_length_c   14.97557000
_cell_angle_alpha   95.75377000
_cell_angle_beta   90.65137000
_cell_angle_gamma   88.94400000
_symmetry_Int_Tables_number   1
_chemical_formula_structural   Cu2H50C53N2O15
_chemical_formula_sum   'Cu2 H50 C53 N2 O15'
_cell_volume   1574.82132336
_cell_formula_units_Z   1
loop_
 _symmetry_equiv_pos_site_id
 _symmetry_equiv_pos_as_xyz
  1  'x, y, z'
loop_
 _atom_site_type_symbol
 _atom_site_label
 _atom_site_symmetry_multiplicity
 _atom_site_fract_x
 _atom_site_fract_y
 _atom_site_fract_z
 _atom_site_occupancy
  Cu  Cu0  1  0.35934000  0.49999000  0.49999000  1
  Cu  Cu1  1  0.64066000  0.50001000  0.50001000  1
  H  H2  1  0.51894000  0.69746000  0.78847000  1
  H  H3  1  0.74778000  0.66088000  0.62971000  1
  H  H4  1  0.47866000  0.30580000  0.76157000  1
  H  H5  1  0.13006000  0.41175000  0.37077000  1
  H  H6  1  0.45907000  0.19230000  0.89231000  1
  H  H7  1  0.47649000  0.29929000  0.20899000  1
  H  H8  1  0.50539000  0.69356000  0.24082000  1
  H  H9  1  0.49350000  0.80889000  0.11289000  1
  H  H10  1  0.70391000  0.09665000  0.42893000  1
  H  H11  1  0.20979000  0.22713000  0.26099000  1
  H  H12  1  0.16406000  0.07864000  0.29276000  1
  H  H13  1  0.34363000  0.12562000  0.29441000  1
  H  H14  1  0.01888000  0.08748000  0.65815000  1
  H  H15  1  0.11259000  0.22751000  0.65204000  1
  H  H16  1  0.92748000  0.23360000  0.65680000  1
  H  H17  1  0.02423000  0.25461000  0.50593000  1
  H  H18  1  0.90604000  0.13472000  0.50267000  1
  H  H19  1  0.96635000  0.85900000  0.60596000  1
  H  H20  1  0.84846000  0.97949000  0.57685000  1
  H  H21  1  0.80944000  0.82414000  0.54499000  1
  H  H22  1  0.91225000  0.94198000  0.41925000  1
  H  H23  1  0.97665000  0.79084000  0.43505000  1
  H  H24  1  0.30970000  0.82617000  0.28927000  1
  H  H25  1  0.12250000  0.83678000  0.29060000  1
  H  H26  1  0.20858000  0.68971000  0.26804000  1
  H  H27  1  0.76647000  0.96639000  0.29391000  1
  H  H28  1  0.60480000  0.89000000  0.26589000  1
  H  H29  1  0.76439000  0.80458000  0.25605000  1
  H  H30  1  0.82690000  0.50851000  0.27212000  1
  H  H31  1  0.97647000  0.41424000  0.24125000  1
  H  H32  1  0.80755000  0.35494000  0.21543000  1
  H  H33  1  0.92626000  0.26850000  0.34887000  1
  H  H34  1  0.76195000  0.32937000  0.37121000  1
  H  H35  1  0.69855000  0.83797000  0.71496000  1
  H  H36  1  0.86524000  0.90826000  0.74231000  1
  H  H37  1  0.74053000  0.90163000  0.82544000  1
  H  H38  1  0.00569000  0.77462000  0.90628000  1
  H  H39  1  0.06864000  0.87355000  0.82339000  1
  H  H40  1  0.18026000  0.82011000  0.90693000  1
  H  H41  1  0.30502000  0.82016000  0.74797000  1
  H  H42  1  0.17774000  0.87195000  0.66832000  1
  H  H43  1  0.35581000  0.86060000  0.64206000  1
  H  H44  1  0.24206000  0.21021000  0.09578000  1
  H  H45  1  0.29288000  0.05079000  0.09642000  1
  H  H46  1  0.27033000  0.11323000  0.99062000  1
  H  H47  1  0.61334000  0.96041000  0.05788000  1
  H  H48  1  0.72437000  0.87749000  0.97634000  1
  H  H49  1  0.63827000  0.01980000  0.95214000  1
  H  H50  1  0.50751000  0.86189000  0.87095000  1
  H  H51  1  0.40915000  0.90999000  0.96641000  1
  C  C52  1  0.49957000  0.26113000  0.48996000  1
  C  C53  1  0.50073000  0.61835000  0.91626000  1
  C  C54  1  0.46691000  0.27843000  0.93528000  1
  C  C55  1  0.46192000  0.27586000  0.02840000  1
  C  C56  1  0.47774000  0.38621000  0.08489000  1
  C  C57  1  0.48757000  0.50037000  0.04738000  1
  C  C58  1  0.49451000  0.61157000  0.10390000  1
  C  C59  1  0.49611000  0.72448000  0.06771000  1
  C  C60  1  0.50219000  0.73082000  0.97478000  1
  C  C61  1  0.48243000  0.38534000  0.17838000  1
  C  C62  1  0.49579000  0.49622000  0.23314000  1
  C  C63  1  0.49912000  0.49622000  0.32933000  1
  C  C64  1  0.49918000  0.60868000  0.19660000  1
  C  C65  1  0.23783000  0.12396000  0.45591000  1
  C  C66  1  0.12083000  0.07473000  0.48903000  1
  C  C67  1  0.10989000  0.94543000  0.47622000  1
  C  C68  1  0.22899000  0.87503000  0.45048000  1
  C  C69  1  0.36047000  0.93115000  0.46292000  1
  C  C70  1  0.36447000  0.06141000  0.46481000  1
  C  C71  1  0.49252000  0.12348000  0.46814000  1
  C  C72  1  0.60978000  0.05187000  0.44349000  1
  C  C73  1  0.60258000  0.92141000  0.43226000  1
  C  C74  1  0.49724000  0.73437000  0.48726000  1
  C  C75  1  0.48675000  0.86364000  0.46220000  1
  C  C76  1  0.85242000  0.63486000  0.63805000  1
  C  C77  1  0.91451000  0.68004000  0.71833000  1
  C  C78  1  0.05791000  0.67190000  0.72550000  1
  C  C79  1  0.13377000  0.64143000  0.64591000  1
  C  C80  1  0.07267000  0.56613000  0.57117000  1
  C  C81  1  0.92424000  0.56510000  0.56944000  1
  C  C82  1  0.92884000  0.44272000  0.43061000  1
  C  C83  1  0.07482000  0.45081000  0.42918000  1
  C  C84  1  0.50056000  0.50178000  0.67087000  1
  C  C85  1  0.50817000  0.61511000  0.82205000  1
  C  C86  1  0.50079000  0.50279000  0.76777000  1
  C  C87  1  0.48618000  0.39158000  0.80511000  1
  C  C88  1  0.48130000  0.39067000  0.89787000  1
  C  C89  1  0.48962000  0.50339000  0.95379000  1
  C  C90  1  0.23570000  0.15696000  0.30767000  1
  C  C91  1  0.00923000  0.16221000  0.52733000  1
  C  C92  1  0.01735000  0.17797000  0.62979000  1
  C  C93  1  0.97077000  0.88812000  0.46585000  1
  C  C94  1  0.89545000  0.88869000  0.55410000  1
  C  C95  1  0.21406000  0.78100000  0.30827000  1
  C  C96  1  0.70842000  0.87982000  0.29697000  1
  C  C97  1  0.86640000  0.35710000  0.35585000  1
  C  C98  1  0.86941000  0.41251000  0.26588000  1
  C  C99  1  0.78325000  0.84935000  0.76527000  1
  C  C100  1  0.09200000  0.79341000  0.86211000  1
  C  C101  1  0.27286000  0.81621000  0.67659000  1
  C  C102  1  0.30661000  0.13469000  0.06108000  1
  C  C103  1  0.50525000  0.86014000  0.94430000  1
  C  C104  1  0.62788000  0.93339000  0.98516000  1
  N  N105  1  0.85209000  0.50121000  0.50086000  1
  N  N106  1  0.14796000  0.50129000  0.50089000  1
  O  O107  1  0.38119000  0.31964000  0.49999000  1
  O  O108  1  0.61876000  0.31966000  0.50000000  1
  O  O109  1  0.38120000  0.49996000  0.37025000  1
  O  O110  1  0.61877000  0.49998000  0.37026000  1
  O  O111  1  0.38124000  0.68034000  0.50000000  1
  O  O112  1  0.61881000  0.68036000  0.50001000  1
  O  O113  1  0.38123000  0.50002000  0.62974000  1
  O  O114  1  0.61880000  0.50004000  0.62975000  1
  O  O115  1  0.22057000  0.21260000  0.39638000  1
  O  O116  1  0.21427000  0.76189000  0.40006000  1
  O  O117  1  0.70146000  0.84831000  0.38615000  1
  O  O118  1  0.83475000  0.73381000  0.78809000  1
  O  O119  1  0.12987000  0.68541000  0.80689000  1
  O  O120  1  0.26241000  0.69168000  0.63902000  1
  O  O121  1  0.44708000  0.16455000  0.06427000  1
