# generated using pymatgen
data_Si(H19C30)4
_symmetry_space_group_name_H-M   'P 1'
_cell_length_a   38.55540749
_cell_length_b   38.54930140
_cell_length_c   38.54930140
_cell_angle_alpha   62.38130649
_cell_angle_beta   74.44471352
_cell_angle_gamma   105.55491321
_symmetry_Int_Tables_number   1
_chemical_formula_structural   Si(H19C30)4
_chemical_formula_sum   'Si2 H152 C240'
_cell_volume   43430.70905080
_cell_formula_units_Z   2
loop_
 _symmetry_equiv_pos_site_id
 _symmetry_equiv_pos_as_xyz
  1  'x, y, z'
loop_
 _atom_site_type_symbol
 _atom_site_label
 _atom_site_symmetry_multiplicity
 _atom_site_fract_x
 _atom_site_fract_y
 _atom_site_fract_z
 _atom_site_occupancy
  C  1  1  0.77283750  0.71789750  0.15457300  1
  C  2  1  0.75861850  0.67159700  0.18118150  1
  C  3  1  0.74549000  0.64687000  0.22736200  1
  C  4  1  0.74895150  0.67077250  0.24633100  1
  C  5  1  0.76137750  0.71644800  0.22177750  1
  C  6  1  0.77185100  0.73886750  0.17653750  1
  C  7  1  0.72750050  0.59936900  0.25451750  1
  C  8  1  0.73743500  0.57497350  0.23856250  1
  C  9  1  0.71702200  0.52850950  0.26477450  1
  C  10  1  0.68625800  0.50385650  0.30878050  1
  C  11  1  0.67771950  0.52829050  0.32525700  1
  C  12  1  0.69694550  0.57452350  0.29865000  1
  C  13  1  0.78891150  0.74332350  0.10722700  1
  C  14  1  0.77652750  0.72564650  0.08500600  1
  C  15  1  0.79494700  0.75032250  0.03858550  1
  C  16  1  0.82609300  0.79441050  0.01182950  1
  C  17  1  0.83701250  0.81265400  0.03412750  1
  C  18  1  0.81980250  0.78756350  0.08025200  1
  C  19  1  0.76164650  0.73947650  0.24195400  1
  C  20  1  0.79493400  0.78069450  0.22167450  1
  C  21  1  0.79280100  0.80695400  0.23723400  1
  C  22  1  0.75727950  0.79292800  0.27360350  1
  C  23  1  0.72489100  0.75054250  0.29543750  1
  C  24  1  0.72711300  0.72407250  0.28005050  1
  C  40  1  0.73139700  0.04298450  0.52111850  1
  C  41  1  0.74563200  0.03061200  0.55318600  1
  C  42  1  0.75875950  0.99755800  0.56479150  1
  C  43  1  0.75528250  0.97511100  0.54436850  1
  C  44  1  0.74284000  0.98721950  0.51113350  1
  C  45  1  0.73236550  0.02198600  0.49918150  1
  C  46  1  0.77676000  0.98840300  0.59429200  1
  C  47  1  0.76683900  0.99444200  0.62861200  1
  C  48  1  0.78724800  0.98863400  0.65466800  1
  C  49  1  0.81801900  0.97540450  0.64854550  1
  C  50  1  0.82654850  0.96745500  0.61558050  1
  C  51  1  0.80731200  0.97482250  0.58858550  1
  C  52  1  0.71532500  0.07425850  0.51176350  1
  C  53  1  0.72771550  0.10887000  0.51704450  1
  C  54  1  0.70929950  0.13687500  0.51078550  1
  C  55  1  0.67814250  0.13247450  0.49786100  1
  C  56  1  0.66721900  0.09925400  0.49053900  1
  C  57  1  0.68442900  0.07033900  0.49842100  1
  C  58  1  0.74254850  0.96675250  0.48839800  1
  C  59  1  0.70923900  0.95369000  0.48051500  1
  C  60  1  0.71142000  0.94037400  0.45203000  1
  C  61  1  0.74692350  0.93948400  0.43056750  1
  C  62  1  0.77929700  0.94999300  0.44059500  1
  C  63  1  0.77710300  0.96324850  0.46921350  1
  C  79  1  0.90635500  0.94720200  0.75036600  1
  C  80  1  0.88666350  0.91511950  0.79666600  1
  C  81  1  0.90810550  0.90350500  0.82140150  1
  C  82  1  0.95096850  0.92393400  0.79750550  1
  C  83  1  0.97208900  0.95718050  0.75183250  1
  C  84  1  0.94928000  0.96913700  0.72940300  1
  C  85  1  0.88776300  0.87399350  0.86889850  1
  C  86  1  0.84741750  0.83966850  0.89328300  1
  C  87  1  0.82716700  0.81360400  0.93974800  1
  C  88  1  0.84650900  0.81971300  0.96441200  1
  C  89  1  0.88741400  0.85267300  0.93999300  1
  C  90  1  0.90703100  0.87970200  0.89376200  1
  C  91  1  0.88443600  0.95656200  0.72493900  1
  C  92  1  0.84455650  0.95129900  0.74261550  1
  C  93  1  0.82281000  0.95755300  0.71794300  1
  C  94  1  0.84013800  0.97051650  0.67384550  1
  C  95  1  0.88066950  0.97783450  0.65559500  1
  C  96  1  0.90170850  0.96995800  0.68068050  1
  C  97  1  0.01528300  0.97991650  0.72881350  1
  C  98  1  0.03623150  0.98782950  0.68760400  1
  C  99  1  0.07804950  0.01620500  0.66135850  1
  C  100  1  0.10037350  0.03771750  0.67538900  1
  C  101  1  0.07982600  0.02771900  0.71777900  1
  C  102  1  0.03795950  0.99911750  0.74418400  1
  C  118  1  0.59791450  0.31370100  0.42529850  1
  C  119  1  0.61759550  0.28708400  0.43770750  1
  C  120  1  0.59614400  0.24090650  0.47076450  1
  C  121  1  0.55327900  0.22194750  0.49317650  1
  C  122  1  0.53216900  0.24650800  0.48103500  1
  C  123  1  0.55498900  0.29174650  0.44627050  1
  C  124  1  0.61648200  0.21374700  0.47993800  1
  C  125  1  0.65682500  0.22970300  0.47392400  1
  C  126  1  0.67707200  0.20348450  0.47974350  1
  C  127  1  0.65772950  0.15948150  0.49296800  1
  C  128  1  0.61682550  0.14300000  0.50090850  1
  C  129  1  0.59721000  0.16961500  0.49350200  1
  C  130  1  0.61983650  0.36104500  0.39401850  1
  C  131  1  0.65973200  0.38325100  0.35942900  1
  C  132  1  0.68147850  0.42967000  0.33143050  1
  C  133  1  0.66414500  0.45643900  0.33578700  1
  C  134  1  0.62360500  0.43415600  0.36898400  1
  C  135  1  0.60256700  0.38803150  0.39790050  1
  C  136  1  0.48897550  0.22634850  0.50146200  1
  C  137  1  0.46803000  0.24663200  0.51446100  1
  C  138  1  0.42622800  0.23110050  0.52783350  1
  C  139  1  0.40390450  0.19472100  0.52868450  1
  C  140  1  0.42444800  0.17288100  0.51813100  1
  C  141  1  0.46630000  0.18828650  0.50495550  1
  C  157  1  0.23137900  0.42251750  0.64162550  1
  C  158  1  0.24561500  0.46882000  0.61501000  1
  C  159  1  0.25875650  0.49354900  0.56882650  1
  C  160  1  0.25529250  0.46964450  0.54986100  1
  C  161  1  0.24285500  0.42396750  0.57441950  1
  C  162  1  0.23235400  0.40154350  0.61966650  1
  C  163  1  0.27677500  0.54104850  0.54167450  1
  C  164  1  0.26682250  0.56544950  0.55761700  1
  C  165  1  0.28724600  0.61191350  0.53140350  1
  C  166  1  0.31802000  0.63656250  0.48740350  1
  C  167  1  0.32656300  0.61212300  0.47093600  1
  C  168  1  0.30733200  0.56589100  0.49754300  1
  C  169  1  0.21529950  0.39709900  0.68897250  1
  C  170  1  0.22768650  0.41477550  0.71119100  1
  C  171  1  0.20925650  0.39010550  0.75761200  1
  C  172  1  0.17811500  0.34601800  0.78436800  1
  C  173  1  0.16718550  0.32777400  0.76207350  1
  C  174  1  0.18441400  0.35285550  0.71594750  1
  C  175  1  0.24256850  0.40093000  0.55425150  1
  C  176  1  0.20927550  0.35971700  0.57452150  1
  C  177  1  0.21143750  0.33342450  0.55900700  1
  C  178  1  0.24695350  0.34747350  0.52262500  1
  C  179  1  0.27932350  0.38988150  0.50073500  1
  C  180  1  0.27713100  0.41629600  0.51619600  1
  C  196  1  0.27286800  0.09742150  0.27503350  1
  C  197  1  0.25864650  0.10981100  0.24295350  1
  C  198  1  0.24551700  0.14286000  0.23135500  1
  C  199  1  0.24896350  0.16527800  0.25181150  1
  C  200  1  0.26138200  0.15314600  0.28506400  1
  C  201  1  0.27188100  0.11839800  0.29699200  1
  C  202  1  0.22750500  0.15200450  0.20186750  1
  C  203  1  0.23743750  0.14599000  0.16753250  1
  C  204  1  0.21701200  0.15178050  0.14149150  1
  C  205  1  0.18624050  0.16500800  0.14761850  1
  C  206  1  0.17770150  0.17293800  0.18059750  1
  C  207  1  0.19693400  0.16555850  0.20759850  1
  C  208  1  0.28894750  0.06615600  0.28437350  1
  C  209  1  0.27656050  0.03154900  0.27908550  1
  C  210  1  0.29498700  0.00355650  0.28532950  1
  C  211  1  0.32612350  0.00793600  0.29828550  1
  C  212  1  0.33705250  0.04116100  0.30559950  1
  C  213  1  0.31984500  0.07007900  0.29771400  1
  C  214  1  0.26164750  0.17359800  0.30781750  1
  C  215  1  0.29492800  0.18660850  0.31576350  1
  C  216  1  0.29278500  0.20002800  0.34416300  1
  C  217  1  0.25723950  0.20082550  0.36567200  1
  C  218  1  0.22486300  0.19030700  0.35565600  1
  C  219  1  0.22708100  0.17708150  0.32701450  1
  C  235  1  0.09788500  0.19320050  0.04582250  1
  C  236  1  0.11757000  0.22529300  0.99952500  1
  C  237  1  0.09612200  0.23691950  0.97479950  1
  C  238  1  0.05325850  0.21646450  0.99870300  1
  C  239  1  0.03214400  0.18318550  0.04436750  1
  C  240  1  0.05496100  0.17124150  0.06678850  1
  C  241  1  0.11646150  0.26643300  0.92730050  1
  C  242  1  0.15680950  0.30075150  0.90291300  1
  C  243  1  0.17705700  0.32680500  0.85644900  1
  C  244  1  0.15770350  0.32071350  0.83178700  1
  C  245  1  0.11679600  0.28776100  0.85621000  1
  C  246  1  0.09717650  0.26074500  0.90244250  1
  C  247  1  0.11980700  0.18382900  0.07124100  1
  C  248  1  0.15970250  0.18913650  0.05354700  1
  C  249  1  0.18145450  0.18288750  0.07821200  1
  C  250  1  0.16412300  0.16990400  0.12231900  1
  C  251  1  0.12358200  0.16255600  0.14058200  1
  C  252  1  0.10254550  0.17044950  0.11549600  1
  C  253  1  0.98894950  0.16043000  0.06738250  1
  C  254  1  0.96800000  0.15251500  0.10859600  1
  C  255  1  0.92618650  0.12410700  0.13484750  1
  C  256  1  0.90385950  0.10266700  0.12076650  1
  C  257  1  0.92441150  0.11266050  0.07838700  1
  C  258  1  0.96627750  0.14126000  0.05198750  1
  C  274  1  0.40636200  0.82671850  0.37087050  1
  C  275  1  0.38667300  0.85332450  0.35846350  1
  C  276  1  0.40811400  0.89949650  0.32538650  1
  C  277  1  0.45097700  0.91846000  0.30296500  1
  C  278  1  0.47209800  0.89391500  0.31511100  1
  C  279  1  0.44928700  0.84868150  0.34989350  1
  C  280  1  0.38777300  0.92665400  0.31622100  1
  C  281  1  0.34742350  0.91069250  0.32225400  1
  C  282  1  0.32717400  0.93690850  0.31645050  1
  C  283  1  0.34653050  0.98092400  0.30318650  1
  C  284  1  0.38743950  0.99740900  0.29522950  1
  C  285  1  0.40705750  0.97079550  0.30262600  1
  C  286  1  0.38444550  0.77937550  0.40216100  1
  C  287  1  0.34455200  0.75717050  0.43675050  1
  C  288  1  0.32281000  0.71074950  0.46476350  1
  C  289  1  0.34013550  0.68398000  0.46039450  1
  C  290  1  0.38067600  0.70626250  0.42719650  1
  C  291  1  0.40171050  0.75238550  0.39827200  1
  C  292  1  0.51529450  0.91409850  0.29466500  1
  C  293  1  0.53623900  0.89381850  0.28165350  1
  C  294  1  0.57805700  0.90940100  0.26820200  1
  C  295  1  0.60037800  0.94578950  0.26734850  1
  C  296  1  0.57983200  0.96763250  0.27788850  1
  C  297  1  0.53797200  0.95218750  0.29112450  1
  C  625  1  0.25171300  0.31671050  0.51346650  1
  C  626  1  0.28628500  0.30977900  0.51062900  1
  C  627  1  0.28767350  0.27341000  0.51135250  1
  C  628  1  0.25415800  0.24198400  0.51598300  1
  C  629  1  0.22148500  0.25168100  0.51393600  1
  C  630  1  0.21996400  0.28793200  0.51348400  1
  C  632  1  0.25002900  0.20026700  0.47836300  1
  C  633  1  0.21651100  0.17138100  0.48045700  1
  C  634  1  0.21790750  0.17347950  0.44270300  1
  C  635  1  0.25247200  0.20522200  0.40119900  1
  C  636  1  0.28421100  0.23696950  0.39822150  1
  C  637  1  0.28268700  0.23501050  0.43598750  1
  C  638  1  0.29177600  0.18805100  0.52816600  1
  C  639  1  0.21245250  0.15043000  0.56991450  1
  C  640  1  0.20481200  0.10806000  0.57959700  1
  C  641  1  0.16903300  0.07028400  0.61584600  1
  C  642  1  0.14027050  0.07326300  0.64461150  1
  C  643  1  0.15002550  0.11475050  0.63772200  1
  C  644  1  0.18565200  0.15251400  0.60134700  1
  C  645  1  0.29944600  0.18602100  0.56287500  1
  C  646  1  0.33522300  0.18552800  0.56486600  1
  C  647  1  0.36398500  0.18555450  0.53309450  1
  C  648  1  0.35422600  0.18274150  0.50134050  1
  C  649  1  0.31857450  0.18344500  0.49925250  1
  C  707  1  0.86395300  0.06714150  0.15154850  1
  C  708  1  0.85419800  0.02563400  0.15848200  1
  C  709  1  0.81854550  0.98788350  0.19482500  1
  C  710  1  0.79177150  0.98997250  0.22627300  1
  C  711  1  0.79942000  0.03234450  0.21658450  1
  C  712  1  0.83519800  0.07011700  0.18032500  1
  C  714  1  0.71245250  0.95237250  0.26798200  1
  C  715  1  0.68565600  0.95700550  0.29686850  1
  C  716  1  0.65000850  0.95770800  0.29476150  1
  C  717  1  0.64027100  0.95487900  0.26300600  1
  C  718  1  0.66904600  0.95491850  0.23123550  1
  C  719  1  0.70482000  0.95443300  0.23324300  1
  C  720  1  0.75005750  0.89842350  0.28020600  1
  C  721  1  0.75415450  0.94013400  0.31783150  1
  C  722  1  0.72147800  0.90540150  0.36019250  1
  C  723  1  0.71994850  0.90338850  0.39798300  1
  C  724  1  0.75167850  0.93512150  0.39502300  1
  C  725  1  0.78625450  0.96688850  0.35353000  1
  C  726  1  0.78765450  0.96902550  0.31575800  1
  C  727  1  0.78273400  0.88873300  0.28225400  1
  C  728  1  0.78425550  0.85246900  0.28274150  1
  C  729  1  0.75252500  0.82371700  0.28272000  1
  C  730  1  0.71794400  0.83062750  0.28555150  1
  C  731  1  0.71654750  0.86699550  0.28482800  1
  H  25  1  0.78591750  0.73497400  0.02464150  1
  H  26  1  0.75395050  0.69420750  0.10234500  1
  H  27  1  0.85826000  0.84469900  0.01710500  1
  H  28  1  0.83133250  0.80227750  0.09363900  1
  H  29  1  0.82037700  0.79303850  0.19391050  1
  H  30  1  0.81637350  0.83796450  0.21942900  1
  H  31  1  0.70198600  0.69499850  0.29487650  1
  H  32  1  0.69848150  0.73947100  0.32146950  1
  H  33  1  0.68715850  0.58962700  0.31213550  1
  H  34  1  0.65688850  0.51281800  0.35712950  1
  H  35  1  0.72440600  0.51297700  0.25067400  1
  H  36  1  0.75967250  0.59072750  0.20729500  1
  H  37  1  0.75757100  0.65538500  0.16650600  1
  H  38  1  0.77854050  0.77145600  0.15934150  1
  H  39  1  0.74224400  0.65480650  0.27890150  1
  H  64  1  0.71832950  0.15984750  0.51710500  1
  H  65  1  0.75029650  0.11411200  0.52589950  1
  H  66  1  0.64596550  0.09502350  0.47975100  1
  H  67  1  0.67289350  0.04541850  0.49524400  1
  H  68  1  0.68382550  0.95608550  0.49355000  1
  H  69  1  0.68783350  0.93458100  0.44461750  1
  H  70  1  0.80222100  0.97351400  0.47318700  1
  H  71  1  0.80572550  0.95042150  0.42522400  1
  H  72  1  0.81709200  0.97111350  0.56370050  1
  H  73  1  0.84737900  0.95641350  0.61022250  1
  H  74  1  0.77988950  0.99538900  0.67755550  1
  H  75  1  0.74460800  0.00348250  0.63508950  1
  H  76  1  0.74669000  0.04634600  0.56834000  1
  H  77  1  0.72566150  0.03247600  0.47329350  1
  H  78  1  0.76198900  0.94924650  0.55363250  1
  H  103  1  0.79353450  0.95127550  0.73328400  1
  H  104  1  0.83046700  0.94243850  0.77405550  1
  H  105  1  0.89568250  0.98863100  0.62354950  1
  H  106  1  0.92978550  0.97309700  0.66597350  1
  H  107  1  0.02081350  0.97477550  0.67522700  1
  H  108  1  0.09123050  0.02370850  0.63031500  1
  H  109  1  0.02372450  0.99507250  0.77332000  1
  H  110  1  0.09476850  0.04305100  0.72886850  1
  H  111  1  0.93562900  0.90456400  0.87866700  1
  H  112  1  0.90380500  0.85802500  0.95547700  1
  H  113  1  0.79753200  0.79072150  0.95526550  1
  H  114  1  0.83190750  0.83320250  0.87751700  1
  H  115  1  0.85578250  0.89996800  0.81287350  1
  H  116  1  0.96467500  0.99503300  0.69681600  1
  H  117  1  0.96756500  0.91466700  0.81347600  1
  H  142  1  0.71075900  0.44360800  0.30844200  1
  H  143  1  0.67382300  0.36590150  0.35419850  1
  H  144  1  0.60859350  0.45118800  0.37320850  1
  H  145  1  0.57448700  0.37466150  0.42283150  1
  H  146  1  0.48343950  0.27438100  0.51217650  1
  H  147  1  0.41300650  0.24886700  0.53366950  1
  H  148  1  0.48053850  0.17340750  0.49473100  1
  H  149  1  0.40949050  0.14681350  0.51779500  1
  H  150  1  0.56861200  0.15611300  0.49723700  1
  H  151  1  0.60043000  0.11112300  0.51195700  1
  H  152  1  0.70670800  0.21760050  0.47298750  1
  H  153  1  0.67233800  0.26097700  0.46488200  1
  H  154  1  0.64847700  0.30175300  0.42198700  1
  H  155  1  0.53960400  0.30894500  0.43575200  1
  H  156  1  0.53667300  0.18937900  0.51903900  1
  H  181  1  0.21831750  0.40544100  0.77155550  1
  H  182  1  0.25027900  0.44620400  0.69385200  1
  H  183  1  0.14593100  0.29573350  0.77909650  1
  H  184  1  0.17285350  0.33815350  0.70256600  1
  H  185  1  0.18383650  0.34738200  0.60228350  1
  H  186  1  0.18784750  0.30242950  0.57679000  1
  H  187  1  0.30222100  0.44541600  0.50133000  1
  H  188  1  0.30574750  0.40094550  0.47472600  1
  H  189  1  0.31711900  0.55078400  0.48406100  1
  H  190  1  0.34740050  0.62759650  0.43906400  1
  H  191  1  0.27985500  0.62744700  0.54550000  1
  H  192  1  0.24458050  0.54969750  0.58888100  1
  H  193  1  0.24668000  0.48503850  0.62968050  1
  H  194  1  0.22565250  0.36895050  0.63686800  1
  H  195  1  0.26201650  0.48561400  0.51728450  1
  H  220  1  0.28592650  0.98054800  0.27905750  1
  H  221  1  0.25396550  0.02629450  0.27025100  1
  H  222  1  0.35829850  0.04538650  0.31639600  1
  H  223  1  0.33137600  0.09499500  0.30089800  1
  H  224  1  0.32036550  0.18427250  0.30267600  1
  H  225  1  0.31634100  0.20573950  0.35163450  1
  H  226  1  0.20199800  0.16686250  0.32297350  1
  H  227  1  0.19844550  0.18991850  0.37099000  1
  H  228  1  0.18714550  0.16925200  0.23249250  1
  H  229  1  0.15685450  0.18395500  0.18597650  1
  H  230  1  0.22439850  0.14507300  0.11856950  1
  H  231  1  0.25968450  0.13697550  0.16103500  1
  H  232  1  0.25759300  0.09408250  0.22779350  1
  H  233  1  0.27857300  0.10789250  0.32288850  1
  H  234  1  0.24224400  0.19113350  0.24256150  1
  H  259  1  0.21073300  0.18918100  0.06286600  1
  H  260  1  0.17379250  0.19800150  0.02210500  1
  H  261  1  0.10856250  0.15173450  0.17263700  1
  H  262  1  0.07444650  0.16724950  0.13022700  1
  H  263  1  0.98342100  0.16551700  0.12100500  1
  H  264  1  0.91300950  0.11662350  0.16588400  1
  H  265  1  0.98052200  0.14535400  0.02282600  1
  H  266  1  0.90944950  0.09739050  0.06726100  1
  H  267  1  0.06859100  0.23586400  0.91753500  1
  H  268  1  0.10040250  0.28240800  0.84072950  1
  H  269  1  0.20668650  0.34970650  0.84092700  1
  H  270  1  0.17232050  0.30722200  0.91867550  1
  H  271  1  0.14845050  0.24045500  0.98331450  1
  H  272  1  0.03957300  0.14532300  0.09936700  1
  H  273  1  0.03665350  0.22572850  0.98273900  1
  H  298  1  0.29352050  0.69681800  0.48772550  1
  H  299  1  0.33046000  0.77451950  0.44197750  1
  H  300  1  0.39569350  0.68922950  0.42298900  1
  H  301  1  0.42980800  0.76575700  0.37337000  1
  H  302  1  0.52081750  0.86600300  0.28405050  1
  H  303  1  0.59123950  0.89153000  0.26254350  1
  H  304  1  0.52371900  0.96706450  0.30133450  1
  H  305  1  0.59479250  0.99368600  0.27824150  1
  H  306  1  0.43564600  0.98428950  0.29891750  1
  H  307  1  0.40383300  0.02928300  0.28418900  1
  H  308  1  0.29754600  0.92280300  0.32317800  1
  H  309  1  0.33191050  0.87941700  0.33129750  1
  H  310  1  0.35579000  0.83865150  0.37418950  1
  H  311  1  0.46468000  0.83149300  0.36041100  1
  H  312  1  0.46757600  0.95102650  0.27709150  1
  H  650  1  0.16326900  0.04080950  0.61984350  1
  H  651  1  0.22372550  0.10442050  0.55859600  1
  H  652  1  0.12986400  0.11868300  0.65722800  1
  H  653  1  0.19046350  0.18165250  0.59764900  1
  H  654  1  0.28052650  0.18805750  0.58547300  1
  H  655  1  0.34100450  0.18729100  0.58856950  1
  H  656  1  0.37437150  0.18337200  0.47725750  1
  H  657  1  0.31374550  0.18232500  0.47493550  1
  H  658  1  0.30736750  0.25752750  0.43233100  1
  H  659  1  0.30969550  0.26065050  0.36875400  1
  H  660  1  0.19445850  0.14940150  0.44662900  1
  H  661  1  0.19108650  0.14704400  0.50960050  1
  H  662  1  0.19681450  0.23067050  0.51607500  1
  H  663  1  0.31312050  0.26972500  0.51020750  1
  H  664  1  0.30974200  0.32931700  0.51123600  1
  H  665  1  0.19447950  0.29191500  0.51528950  1
  H  732  1  0.69447400  0.87968250  0.42745650  1
  H  733  1  0.69683350  0.88284750  0.36384200  1
  H  734  1  0.80969600  0.99096750  0.34961150  1
  H  735  1  0.81309250  0.99335500  0.28662450  1
  H  736  1  0.80736300  0.90970450  0.28020650  1
  H  737  1  0.80971800  0.84845250  0.28099750  1
  H  738  1  0.69451900  0.81113350  0.28487150  1
  H  739  1  0.69113000  0.87071650  0.28589350  1
  H  740  1  0.72371500  0.95232450  0.21069650  1
  H  741  1  0.66326750  0.95312650  0.20754400  1
  H  742  1  0.62985550  0.95708900  0.31883150  1
  H  743  1  0.69045700  0.95810200  0.32120700  1
  H  744  1  0.78053650  0.03599850  0.23759500  1
  H  745  1  0.81375550  0.95873950  0.19854600  1
  H  746  1  0.87434300  0.02170950  0.13894850  1
  H  747  1  0.84097950  0.09959150  0.17633600  1
  Si  631  1  0.25210300  0.19518300  0.52310800  1
  Si  713  1  0.75210950  0.94522750  0.27307300  1
