# generated using pymatgen
data_H7(C4N)2
_symmetry_space_group_name_H-M   'P 1'
_cell_length_a   10.01160000
_cell_length_b   78.50740000
_cell_length_c   78.50740000
_cell_angle_alpha   120.00000000
_cell_angle_beta   90.00000000
_cell_angle_gamma   90.00000000
_symmetry_Int_Tables_number   1
_chemical_formula_structural   H7(C4N)2
_chemical_formula_sum   'H252 C288 N72'
_cell_volume   53438.62938847
_cell_formula_units_Z   36
loop_
 _symmetry_equiv_pos_site_id
 _symmetry_equiv_pos_as_xyz
  1  'x, y, z'
loop_
 _atom_site_type_symbol
 _atom_site_label
 _atom_site_symmetry_multiplicity
 _atom_site_fract_x
 _atom_site_fract_y
 _atom_site_fract_z
 _atom_site_occupancy
  C  1  1  0.88798300  0.88257200  0.35709600  1
  C  2  1  0.87614200  0.89897100  0.35434600  1
  C  3  1  0.90261200  0.89719400  0.33589200  1
  C  4  1  0.94373300  0.87886900  0.32011300  1
  C  5  1  0.95427600  0.86230000  0.32252900  1
  C  6  1  0.92466600  0.86422000  0.34100900  1
  C  16  1  0.88767300  0.46200600  0.11846700  1
  C  17  1  0.87571200  0.44283600  0.10210300  1
  C  18  1  0.90207200  0.42618700  0.10393200  1
  C  19  1  0.94319500  0.42877600  0.12227400  1
  C  20  1  0.95391300  0.44777900  0.13880700  1
  C  21  1  0.92456700  0.46431300  0.13683100  1
  C  31  1  0.88795700  0.64410800  0.53905700  1
  C  32  1  0.87633100  0.64687600  0.55821600  1
  C  33  1  0.90289600  0.66533700  0.57487800  1
  C  34  1  0.94386400  0.68110800  0.57230800  1
  C  35  1  0.95419200  0.67867600  0.55331600  1
  C  36  1  0.92458500  0.66018500  0.53677100  1
  C  46  1  0.88741800  0.10975800  0.65267600  1
  C  47  1  0.87554100  0.09340400  0.65550000  1
  C  48  1  0.90191200  0.09524700  0.67398400  1
  C  49  1  0.94297900  0.11359900  0.68973000  1
  C  50  1  0.95363200  0.13012400  0.68724400  1
  C  51  1  0.92418800  0.12813400  0.66873100  1
  C  61  1  0.88796900  0.53049300  0.89131500  1
  C  62  1  0.87591200  0.54966400  0.90767400  1
  C  63  1  0.90213200  0.56631400  0.90584000  1
  C  64  1  0.94325400  0.56372500  0.88749900  1
  C  65  1  0.95403600  0.54472000  0.87096800  1
  C  66  1  0.92473500  0.52818700  0.87294700  1
  C  76  1  0.88850600  0.34846500  0.47068000  1
  C  77  1  0.87647000  0.34569600  0.45152600  1
  C  78  1  0.90281900  0.32723300  0.43485400  1
  C  79  1  0.94397400  0.31145900  0.43740700  1
  C  80  1  0.95470000  0.31389200  0.45639600  1
  C  81  1  0.92531500  0.33238600  0.47295300  1
  C  91  1  0.11510300  0.53055600  0.65274900  1
  C  92  1  0.12732900  0.54972300  0.65555400  1
  C  93  1  0.10109000  0.56638200  0.67403300  1
  C  94  1  0.05981700  0.56380300  0.68978600  1
  C  95  1  0.04893100  0.54480400  0.68732200  1
  C  96  1  0.07826600  0.52826200  0.66881500  1
  C  106  1  0.11539200  0.34840400  0.89121200  1
  C  107  1  0.12715000  0.34564500  0.90760700  1
  C  108  1  0.10068200  0.32718700  0.90582000  1
  C  109  1  0.05956800  0.31141300  0.88749100  1
  C  110  1  0.04910500  0.31383600  0.87092600  1
  C  111  1  0.07872800  0.33231900  0.87285600  1
  C  121  1  0.11558300  0.10993100  0.47075900  1
  C  122  1  0.12738900  0.09354200  0.45160100  1
  C  123  1  0.10096000  0.09534200  0.43493700  1
  C  124  1  0.05987900  0.11367500  0.43750000  1
  C  125  1  0.04935000  0.13023200  0.45649300  1
  C  126  1  0.07893600  0.12829200  0.47304300  1
  C  136  1  0.11574500  0.46205600  0.35709500  1
  C  137  1  0.12762400  0.44288100  0.35427700  1
  C  138  1  0.10121100  0.42623900  0.33579400  1
  C  139  1  0.06011700  0.42884400  0.32005000  1
  C  140  1  0.04947500  0.44785200  0.32253200  1
  C  141  1  0.07888600  0.46437700  0.34104600  1
  C  151  1  0.11563200  0.64402900  0.11849400  1
  C  152  1  0.12740800  0.64680500  0.10211000  1
  C  153  1  0.10091000  0.66526900  0.10391200  1
  C  154  1  0.05983800  0.68103500  0.12224900  1
  C  155  1  0.04931000  0.67859400  0.13880200  1
  C  156  1  0.07887100  0.66010200  0.13685400  1
  C  166  1  0.11607400  0.88280100  0.53922800  1
  C  167  1  0.12826300  0.89913000  0.55841600  1
  C  168  1  0.10199900  0.89726100  0.57504600  1
  C  169  1  0.06076200  0.87890900  0.57241800  1
  C  170  1  0.04981000  0.86240800  0.55339900  1
  C  171  1  0.07911600  0.86442300  0.53688600  1
  C  181  1  0.07287400  0.72301700  0.18970700  1
  C  182  1  0.94195500  0.73086800  0.19338000  1
  C  183  1  0.91169500  0.74843900  0.21078400  1
  C  184  1  0.01377700  0.75868200  0.22461800  1
  C  186  1  0.17094000  0.73375600  0.20407500  1
  C  187  1  0.98975000  0.77649000  0.24242100  1
  C  188  1  0.09186000  0.79031700  0.25267000  1
  C  189  1  0.06159600  0.80772900  0.27023500  1
  C  190  1  0.93065800  0.81141000  0.27808000  1
  C  191  1  0.83256300  0.79704800  0.26733600  1
  C  199  1  0.89128400  0.82934100  0.29671200  1
  C  202  1  0.11225700  0.70438200  0.17177800  1
  C  205  1  0.07292300  0.45442400  0.27816200  1
  C  206  1  0.94199000  0.45025100  0.27031500  1
  C  207  1  0.91170500  0.45009600  0.25275200  1
  C  208  1  0.01377600  0.45369200  0.24251000  1
  C  210  1  0.17097000  0.45806100  0.26742800  1
  C  211  1  0.98973100  0.45368200  0.22470000  1
  C  212  1  0.09179100  0.45006900  0.21085600  1
  C  213  1  0.06148500  0.45019900  0.19343500  1
  C  214  1  0.93055900  0.45437400  0.18975900  1
  C  215  1  0.83253700  0.45803500  0.20414200  1
  C  223  1  0.89112900  0.45504100  0.17181300  1
  C  226  1  0.11233700  0.45510900  0.29678700  1
  C  229  1  0.07284400  0.81143000  0.54673700  1
  C  230  1  0.94196000  0.80778200  0.55095300  1
  C  231  1  0.91163200  0.79037600  0.55111500  1
  C  232  1  0.01362100  0.77651900  0.54748400  1
  C  234  1  0.17079300  0.79703500  0.54306000  1
  C  235  1  0.98957100  0.75872500  0.54750700  1
  C  236  1  0.09171100  0.74847400  0.55107500  1
  C  237  1  0.06143600  0.73092400  0.55095000  1
  C  238  1  0.93045000  0.72309500  0.54682300  1
  C  239  1  0.83233100  0.73383900  0.54321200  1
  C  247  1  0.89107300  0.70447600  0.54615200  1
  C  250  1  0.11232700  0.82936900  0.54605500  1
  C  253  1  0.07268300  0.26941500  0.82001700  1
  C  254  1  0.94173100  0.26157400  0.81632900  1
  C  255  1  0.91145200  0.24401800  0.79891000  1
  C  256  1  0.01354200  0.23377800  0.78507600  1
  C  258  1  0.17076300  0.25867800  0.80565000  1
  C  259  1  0.98949500  0.21598200  0.76726300  1
  C  260  1  0.09154200  0.20214100  0.75702100  1
  C  261  1  0.06123100  0.18473300  0.73945800  1
  C  262  1  0.93031800  0.18107000  0.73160300  1
  C  263  1  0.83230700  0.19545000  0.74233400  1
  C  271  1  0.89087300  0.16313400  0.71298000  1
  C  274  1  0.11207800  0.28803800  0.83795700  1
  C  277  1  0.07232200  0.53818600  0.73166300  1
  C  278  1  0.94144500  0.54237400  0.73953000  1
  C  279  1  0.91123000  0.54250500  0.75708500  1
  C  280  1  0.01332200  0.53887200  0.76729600  1
  C  282  1  0.17038600  0.53450900  0.74236600  1
  C  283  1  0.98937200  0.53886200  0.78509700  1
  C  284  1  0.09151100  0.54245800  0.79892300  1
  C  285  1  0.06131100  0.54231500  0.81634100  1
  C  286  1  0.93041900  0.53813500  0.82002400  1
  C  287  1  0.83231300  0.53448800  0.80565700  1
  C  295  1  0.89109500  0.53745700  0.83797000  1
  C  298  1  0.11167700  0.53752100  0.71304700  1
  C  301  1  0.07311200  0.18113000  0.46296200  1
  C  302  1  0.94218400  0.18481900  0.45880300  1
  C  303  1  0.91199000  0.20222700  0.45864000  1
  C  304  1  0.01414500  0.21604600  0.46221400  1
  C  306  1  0.17125800  0.19548200  0.46657300  1
  C  307  1  0.99017900  0.23385000  0.46220900  1
  C  308  1  0.09227000  0.24407100  0.45859000  1
  C  309  1  0.06204400  0.26163100  0.45873100  1
  C  310  1  0.93117300  0.26950000  0.46292900  1
  C  311  1  0.83311200  0.25878700  0.46659400  1
  C  319  1  0.89182800  0.28812700  0.46361600  1
  C  322  1  0.11242300  0.16319700  0.46366400  1
  C  325  1  0.01428100  0.89032400  0.49709200  1
  C  326  1  0.13079700  0.88632600  0.48549700  1
  C  327  1  0.12745100  0.88630200  0.46756400  1
  C  328  1  0.00557000  0.88978300  0.46072600  1
  C  330  1  0.89553000  0.89396500  0.48969600  1
  C  331  1  0.99534400  0.88987500  0.44274300  1
  C  332  1  0.87528300  0.88532500  0.43184700  1
  C  333  1  0.87185700  0.88558400  0.41405900  1
  C  334  1  0.98621600  0.89088000  0.40716000  1
  C  335  1  0.10303900  0.89557100  0.41876700  1
  C  343  1  0.99028900  0.89174600  0.38863400  1
  C  346  1  0.00982600  0.89089400  0.51634400  1
  C  349  1  0.01634300  0.59407600  0.11039700  1
  C  350  1  0.13143600  0.58695600  0.11528800  1
  C  351  1  0.12800900  0.56913200  0.11548000  1
  C  352  1  0.00730800  0.55842200  0.11126700  1
  C  354  1  0.89884600  0.58265300  0.10603900  1
  C  355  1  0.99706600  0.54041400  0.11130300  1
  C  356  1  0.87577200  0.53376600  0.11518000  1
  C  357  1  0.87237800  0.51579700  0.11508300  1
  C  358  1  0.98815100  0.50397400  0.11060500  1
  C  359  1  0.10625900  0.51118200  0.10656900  1
  C  367  1  0.99242200  0.48466800  0.10992600  1
  C  370  1  0.01218300  0.61264600  0.10961300  1
  C  373  1  0.01526400  0.50402000  0.40692500  1
  C  374  1  0.13109000  0.51582800  0.41428800  1
  C  375  1  0.12768900  0.53379800  0.43215800  1
  C  376  1  0.00635100  0.54045900  0.44267000  1
  C  378  1  0.89710300  0.51124400  0.41815400  1
  C  379  1  0.99610400  0.55846900  0.46071400  1
  C  380  1  0.87547300  0.56920100  0.46718500  1
  C  381  1  0.87205600  0.58702900  0.48519700  1
  C  382  1  0.98705300  0.59412500  0.49723200  1
  C  383  1  0.10445700  0.58267500  0.49019600  1
  C  391  1  0.99119900  0.61269600  0.51658500  1
  C  394  1  0.01098300  0.48471800  0.38829700  1
  C  397  1  0.01669900  0.10171400  0.51255100  1
  C  398  1  0.13143400  0.10679800  0.52465400  1
  C  399  1  0.12796900  0.10701600  0.54268200  1
  C  400  1  0.00755900  0.10263400  0.54909800  1
  C  402  1  0.89950400  0.09719300  0.51953800  1
  C  403  1  0.99731100  0.10268800  0.56715300  1
  C  404  1  0.87573200  0.10638200  0.57758200  1
  C  405  1  0.87235600  0.10631300  0.59546700  1
  C  406  1  0.98846000  0.10204300  0.60292200  1
  C  407  1  0.10686400  0.09818400  0.59177100  1
  C  415  1  0.99279800  0.10140500  0.62156800  1
  C  418  1  0.01262200  0.10089600  0.49318100  1
  C  421  1  0.01638800  0.39835500  0.89928000  1
  C  422  1  0.13141500  0.40542300  0.89431500  1
  C  423  1  0.12808900  0.42323500  0.89410100  1
  C  424  1  0.00754800  0.43398900  0.89837000  1
  C  426  1  0.89905000  0.40981700  0.90368600  1
  C  427  1  0.99742200  0.45199600  0.89832600  1
  C  428  1  0.87600300  0.45871400  0.89456600  1
  C  429  1  0.87272600  0.47667900  0.89465600  1
  C  430  1  0.98876100  0.48843100  0.89901000  1
  C  431  1  0.10701300  0.48115300  0.90292400  1
  C  439  1  0.99317600  0.50773100  0.89967900  1
  C  442  1  0.01214300  0.37980100  0.90009400  1
  C  445  1  0.01457000  0.48844500  0.60301200  1
  C  446  1  0.13060100  0.47668200  0.59566500  1
  C  447  1  0.12746500  0.45870100  0.57780600  1
  C  448  1  0.00621500  0.45198400  0.56727900  1
  C  450  1  0.89646800  0.48115900  0.59178100  1
  C  451  1  0.99626800  0.43397100  0.54922800  1
  C  452  1  0.87555300  0.42327600  0.54264800  1
  C  453  1  0.87241600  0.40545800  0.52462500  1
  C  454  1  0.98781300  0.39833100  0.51268400  1
  C  455  1  0.10533500  0.40973300  0.51983100  1
  C  463  1  0.99228600  0.37977000  0.49332300  1
  C  466  1  0.01001400  0.50775600  0.62162500  1
  C  469  1  0.00126900  0.94438100  0.33850700  1
  C  470  1  0.87990700  0.95501800  0.34461800  1
  C  471  1  0.87777000  0.97552200  0.35256600  1
  C  472  1  0.99855800  0.98581600  0.35489800  1
  C  474  1  0.11802900  0.95516900  0.34006100  1
  C  475  1  0.00509100  0.00672900  0.36533500  1
  C  476  1  0.12589100  0.01702900  0.37327300  1
  C  477  1  0.12371900  0.03753300  0.38582800  1
  C  478  1  0.00236500  0.04817100  0.39034300  1
  C  479  1  0.88559600  0.03737400  0.38112700  1
  C  487  1  0.99061900  0.06949000  0.40511600  1
  C  490  1  0.01297100  0.92305800  0.33194700  1
  C  493  1  0.00071800  0.38159100  0.05677700  1
  C  494  1  0.87937800  0.37707100  0.04613800  1
  C  495  1  0.87728500  0.36453300  0.02563000  1
  C  496  1  0.99810000  0.35658700  0.01533800  1
  C  498  1  0.11750200  0.37236900  0.04599000  1
  C  499  1  0.00468100  0.34613600  0.99442400  1
  C  500  1  0.12549100  0.34379900  0.98413400  1
  C  501  1  0.12335400  0.33587600  0.96363200  1
  C  502  1  0.00203000  0.32975200  0.95298900  1
  C  503  1  0.88525100  0.33130600  0.96377300  1
  C  511  1  0.99031000  0.32322500  0.93167400  1
  C  514  1  0.01237800  0.39634500  0.07810500  1
  C  517  1  0.00206000  0.66275000  0.61945000  1
  C  518  1  0.88069500  0.65669400  0.62403600  1
  C  519  1  0.87863000  0.64877200  0.63661500  1
  C  520  1  0.99949400  0.64641100  0.64454000  1
  C  522  1  0.11891800  0.66116800  0.62864900  1
  C  523  1  0.00603500  0.63599600  0.65503900  1
  C  524  1  0.12675500  0.62801400  0.65736200  1
  C  525  1  0.12450500  0.61547500  0.66533100  1
  C  526  1  0.00316800  0.61102600  0.67151600  1
  C  527  1  0.88651100  0.62028900  0.66997600  1
  C  535  1  0.99126900  0.59626700  0.67807800  1
  C  538  1  0.01362200  0.66928100  0.60466300  1
  C  541  1  0.00104600  0.04814200  0.67149800  1
  C  542  1  0.87980800  0.03747300  0.66538200  1
  C  543  1  0.87792000  0.01697100  0.65745000  1
  C  544  1  0.99883800  0.00671100  0.65513500  1
  C  546  1  0.11793900  0.03738700  0.66996600  1
  C  547  1  0.00562100  0.98579900  0.64470700  1
  C  548  1  0.12650900  0.97552900  0.63676600  1
  C  549  1  0.12453400  0.95502400  0.62420900  1
  C  550  1  0.00330800  0.94435800  0.61970100  1
  C  551  1  0.88646100  0.95512600  0.62892600  1
  C  559  1  0.99172800  0.92303800  0.60491900  1
  C  562  1  0.01248800  0.06946100  0.67803500  1
  C  565  1  0.00057800  0.61093400  0.95298300  1
  C  566  1  0.87926900  0.61542600  0.96362900  1
  C  567  1  0.87717100  0.62796700  0.98413600  1
  C  568  1  0.99796900  0.63593500  0.99442300  1
  C  570  1  0.11732300  0.62018200  0.96376800  1
  C  571  1  0.00458300  0.64638200  0.01533600  1
  C  572  1  0.12544400  0.64873300  0.02562100  1
  C  573  1  0.12336500  0.65664500  0.04612000  1
  C  574  1  0.00205500  0.66274300  0.05676900  1
  C  575  1  0.88521600  0.66117600  0.04599000  1
  C  583  1  0.99041400  0.66925100  0.07808100  1
  C  586  1  0.01225300  0.59618500  0.93165600  1
  C  589  1  0.00113600  0.32976400  0.39022500  1
  C  590  1  0.87981700  0.33591200  0.38573000  1
  C  591  1  0.87767400  0.34384600  0.37316100  1
  C  592  1  0.99843900  0.34613900  0.36516800  1
  C  594  1  0.11784600  0.33127400  0.38095400  1
  C  595  1  0.00503100  0.35657500  0.35469100  1
  C  596  1  0.12589000  0.36449200  0.35231600  1
  C  597  1  0.12379300  0.37706100  0.34438200  1
  C  598  1  0.00245500  0.38160600  0.33828300  1
  C  599  1  0.88562200  0.37240400  0.33986800  1
  C  607  1  0.99079800  0.39639800  0.33176000  1
  C  610  1  0.01286700  0.32321300  0.40499400  1
  H  7  1  0.96444000  0.87755900  0.30674500  1
  H  8  1  0.93556400  0.85234600  0.34295800  1
  H  9  1  0.84949200  0.91234600  0.36595000  1
  H  11  1  0.78838800  0.89265200  0.38251500  1
  H  13  1  0.07447100  0.83887400  0.31096800  1
  H  15  1  0.82304300  0.91107600  0.32267500  1
  H  22  1  0.96382100  0.41673600  0.12361800  1
  H  23  1  0.93539400  0.47814800  0.14868800  1
  H  24  1  0.84920400  0.44102900  0.08870900  1
  H  26  1  0.79089900  0.47710700  0.10783700  1
  H  28  1  0.07433100  0.45967000  0.16220900  1
  H  30  1  0.82244500  0.39908800  0.09010000  1
  H  37  1  0.96463400  0.69448100  0.58435600  1
  H  38  1  0.93525300  0.65822500  0.52294000  1
  H  39  1  0.84987700  0.63527500  0.56000400  1
  H  41  1  0.78940200  0.61857200  0.52381900  1
  H  43  1  0.07424100  0.69021300  0.54141200  1
  H  45  1  0.82368100  0.67858100  0.60200000  1
  H  52  1  0.96366100  0.11495400  0.70311600  1
  H  53  1  0.93507800  0.13998000  0.66673700  1
  H  54  1  0.84915400  0.08000000  0.64391600  1
  H  56  1  0.79147000  0.09896700  0.62685800  1
  H  58  1  0.07403600  0.15352700  0.69873800  1
  H  60  1  0.82244400  0.08141700  0.68726100  1
  H  67  1  0.96375500  0.57576500  0.88614900  1
  H  68  1  0.93567400  0.51435100  0.86109500  1
  H  69  1  0.84944400  0.55147300  0.92107000  1
  H  71  1  0.79183000  0.51543900  0.90206100  1
  H  73  1  0.07437000  0.53283100  0.84755800  1
  H  75  1  0.82227300  0.59339900  0.91966400  1
  H  82  1  0.96452500  0.29808200  0.42535200  1
  H  83  1  0.93620700  0.33434200  0.48677900  1
  H  84  1  0.84989100  0.35729800  0.44974600  1
  H  86  1  0.79069200  0.37408800  0.48587100  1
  H  88  1  0.07510000  0.30234000  0.46824500  1
  H  90  1  0.82288200  0.31401300  0.40777900  1
  H  97  1  0.03935200  0.57584900  0.70317500  1
  H  98  1  0.06712400  0.51443100  0.66683600  1
  H  99  1  0.15387400  0.55152500  0.64396500  1
  H  101  1  0.21130400  0.51549100  0.62695400  1
  H  103  1  0.92839600  0.53294000  0.69884400  1
  H  105  1  0.18115800  0.59345100  0.68728900  1
  H  112  1  0.03892300  0.29804000  0.88617100  1
  H  113  1  0.06786300  0.33427200  0.86098300  1
  H  114  1  0.15373000  0.35724800  0.92098900  1
  H  116  1  0.21390000  0.37394500  0.90150600  1
  H  118  1  0.92889100  0.30228900  0.84750300  1
  H  120  1  0.18024300  0.31396000  0.91969200  1
  H  127  1  0.03919700  0.11500000  0.42545100  1
  H  128  1  0.06803700  0.14015800  0.48687100  1
  H  129  1  0.15397400  0.08016000  0.44981700  1
  H  131  1  0.21447900  0.09971100  0.48603600  1
  H  133  1  0.92920900  0.15366400  0.46837900  1
  H  135  1  0.18052800  0.08148100  0.40783600  1
  H  142  1  0.03945600  0.41681100  0.30666300  1
  H  143  1  0.06812000  0.47821600  0.34303100  1
  H  144  1  0.15410400  0.44106200  0.36585900  1
  H  146  1  0.21248100  0.47713600  0.38283300  1
  H  148  1  0.92916200  0.45976700  0.31103200  1
  H  150  1  0.18072900  0.39913500  0.32250700  1
  H  157  1  0.03911700  0.69441000  0.12357700  1
  H  158  1  0.06808900  0.65813700  0.14872100  1
  H  159  1  0.15393900  0.63520700  0.08872200  1
  H  161  1  0.21395000  0.61846700  0.10815500  1
  H  163  1  0.92907500  0.69013000  0.16222400  1
  H  165  1  0.18036800  0.67851500  0.09005300  1
  H  172  1  0.04016000  0.87753700  0.58444300  1
  H  173  1  0.06803800  0.85259200  0.52304000  1
  H  174  1  0.15472800  0.91254000  0.56025700  1
  H  176  1  0.21081200  0.89382500  0.52430400  1
  H  178  1  0.92916100  0.83903100  0.54149000  1
  H  180  1  0.18170800  0.91104700  0.60214000  1
  H  193  1  0.73596300  0.79886000  0.27216600  1
  H  194  1  0.18733000  0.78809900  0.24731700  1
  H  195  1  0.13686000  0.81759900  0.27718800  1
  H  196  1  0.26753200  0.72892200  0.20226900  1
  H  197  1  0.86670200  0.72391500  0.18350600  1
  H  198  1  0.81622100  0.75379100  0.21299900  1
  H  200  1  0.85471600  0.82474100  0.30693100  1
  H  201  1  0.80814900  0.83615300  0.29324600  1
  H  203  1  0.14871400  0.69415700  0.17637800  1
  H  204  1  0.19547100  0.70784400  0.16497700  1
  H  217  1  0.73594500  0.46106200  0.20233500  1
  H  218  1  0.18724000  0.44692000  0.21306900  1
  H  219  1  0.13670800  0.44725200  0.18355000  1
  H  220  1  0.26756800  0.46108600  0.27225900  1
  H  221  1  0.86674300  0.44732400  0.27726500  1
  H  222  1  0.81623100  0.44696000  0.24739900  1
  H  224  1  0.85478100  0.46986300  0.17638500  1
  H  225  1  0.80783100  0.44478600  0.16503800  1
  H  227  1  0.14871500  0.46993200  0.30702700  1
  H  228  1  0.19561000  0.44485200  0.29331500  1
  H  241  1  0.73569300  0.72902100  0.54022100  1
  H  242  1  0.18721900  0.75381500  0.55418400  1
  H  243  1  0.13672900  0.72397100  0.55386200  1
  H  244  1  0.26735200  0.79882100  0.54000200  1
  H  245  1  0.86678700  0.81767600  0.55391000  1
  H  246  1  0.81620200  0.78818100  0.55428400  1
  H  248  1  0.85436200  0.69424800  0.53134600  1
  H  249  1  0.80804100  0.70796200  0.55645100  1
  H  251  1  0.14839500  0.82478700  0.53121700  1
  H  252  1  0.19583100  0.83611900  0.55627500  1
  H  265  1  0.73572300  0.19365300  0.73749900  1
  H  266  1  0.18698500  0.20434300  0.76238300  1
  H  267  1  0.13644000  0.17484900  0.73251200  1
  H  268  1  0.26737700  0.26350500  0.80746500  1
  H  269  1  0.86646400  0.26852400  0.82620000  1
  H  270  1  0.81595600  0.23867300  0.79668300  1
  H  272  1  0.85457700  0.16771900  0.70273800  1
  H  273  1  0.80753200  0.15635800  0.71645100  1
  H  275  1  0.14864500  0.29826600  0.83337000  1
  H  276  1  0.19522000  0.28456100  0.84476000  1
  H  289  1  0.73574400  0.53145900  0.80747000  1
  H  290  1  0.18694100  0.54561000  0.79670600  1
  H  291  1  0.13658800  0.54525300  0.82621600  1
  H  292  1  0.26694700  0.53147100  0.73751900  1
  H  293  1  0.86619400  0.54532800  0.73260300  1
  H  294  1  0.81579700  0.54565300  0.76245300  1
  H  296  1  0.85481100  0.52263000  0.83339200  1
  H  297  1  0.80777600  0.54770500  0.84475300  1
  H  299  1  0.14786500  0.52269200  0.70278800  1
  H  300  1  0.19507200  0.54775800  0.71651800  1
  H  313  1  0.73655300  0.26363400  0.46963700  1
  H  314  1  0.18768500  0.23869800  0.45542700  1
  H  315  1  0.13728700  0.26856200  0.45578100  1
  H  316  1  0.26785600  0.19366400  0.46958800  1
  H  317  1  0.86687200  0.17495700  0.45589500  1
  H  318  1  0.81651000  0.20445500  0.45551800  1
  H  320  1  0.85553500  0.29836800  0.47844300  1
  H  321  1  0.80850500  0.28466400  0.45336800  1
  H  323  1  0.14894400  0.16779200  0.47848300  1
  H  324  1  0.19558000  0.15638400  0.45339000  1
  H  337  1  0.18919800  0.89945400  0.41457700  1
  H  338  1  0.79119500  0.88136700  0.43644000  1
  H  339  1  0.78442300  0.88196100  0.40632300  1
  H  340  1  0.80779200  0.89688500  0.49732400  1
  H  341  1  0.21971200  0.88349300  0.48997000  1
  H  342  1  0.21317900  0.88330800  0.45945800  1
  H  344  1  0.07670300  0.88305000  0.38023000  1
  H  345  1  0.00801800  0.90702900  0.39253000  1
  H  347  1  0.92788100  0.88124900  0.51547600  1
  H  348  1  0.98458700  0.90589900  0.52773400  1
  H  361  1  0.19345200  0.50338300  0.10329100  1
  H  362  1  0.79062600  0.54204500  0.11853500  1
  H  363  1  0.78395800  0.51146500  0.11821100  1
  H  364  1  0.81215600  0.58700600  0.10245200  1
  H  365  1  0.21939800  0.59454900  0.11865600  1
  H  366  1  0.21266600  0.56436900  0.11912900  1
  H  368  1  0.07623400  0.48530600  0.11919300  1
  H  369  1  0.01461100  0.47326900  0.09479900  1
  H  371  1  0.92696200  0.62115900  0.11857500  1
  H  372  1  0.99237200  0.60882300  0.09439700  1
  H  385  1  0.19107700  0.58701000  0.49815300  1
  H  386  1  0.79091900  0.56446200  0.45875000  1
  H  387  1  0.78417300  0.59464400  0.48940100  1
  H  388  1  0.80987000  0.50345600  0.41362100  1
  H  389  1  0.21956200  0.51148300  0.40684300  1
  H  390  1  0.21289100  0.54206100  0.43710200  1
  H  392  1  0.07661900  0.62118800  0.51615500  1
  H  393  1  0.01067500  0.60887100  0.52798500  1
  H  395  1  0.92722700  0.48536300  0.37966400  1
  H  396  1  0.98869000  0.47331800  0.39202000  1
  H  409  1  0.19430100  0.09506000  0.59637300  1
  H  410  1  0.79034100  0.10958600  0.57257700  1
  H  411  1  0.78370800  0.10930900  0.60285800  1
  H  412  1  0.81307500  0.09346800  0.51153300  1
  H  413  1  0.21916100  0.11028900  0.52048800  1
  H  414  1  0.21236100  0.11080500  0.55116000  1
  H  416  1  0.07584800  0.11082800  0.63026200  1
  H  417  1  0.01625700  0.08632600  0.61788500  1
  H  419  1  0.92682300  0.10973000  0.49355300  1
  H  420  1  0.99383400  0.08564700  0.48178700  1
  H  433  1  0.19439300  0.48889800  0.90611000  1
  H  434  1  0.79066000  0.45048800  0.89130400  1
  H  435  1  0.78419300  0.48106300  0.89161500  1
  H  436  1  0.81240700  0.40550300  0.90732700  1
  H  437  1  0.21925900  0.39779800  0.89090900  1
  H  438  1  0.21270100  0.42795900  0.89040000  1
  H  440  1  0.07638800  0.50702200  0.89028900  1
  H  441  1  0.01640300  0.51911600  0.91477000  1
  H  443  1  0.92678400  0.37130100  0.89116100  1
  H  444  1  0.99251700  0.38364600  0.91532000  1
  H  457  1  0.19224500  0.40537200  0.51194800  1
  H  458  1  0.79068100  0.42803800  0.55100800  1
  H  459  1  0.78443700  0.39787400  0.52034200  1
  H  460  1  0.80908900  0.48891000  0.59630400  1
  H  461  1  0.21903300  0.48106800  0.60311700  1
  H  462  1  0.21283900  0.45047700  0.57287400  1
  H  464  1  0.07693800  0.37120800  0.49384600  1
  H  465  1  0.01319100  0.38359500  0.48195900  1
  H  467  1  0.92678400  0.50705200  0.63030600  1
  H  468  1  0.98674900  0.51912500  0.61789600  1
  H  481  1  0.79447600  0.04413400  0.38393700  1
  H  482  1  0.21455900  0.00973400  0.37106100  1
  H  483  1  0.21159300  0.04444300  0.39211200  1
  H  484  1  0.20913100  0.94840700  0.33610400  1
  H  485  1  0.79202400  0.94811200  0.34399700  1
  H  486  1  0.78906800  0.98281700  0.35761900  1
  H  488  1  0.91288000  0.07088800  0.41555500  1
  H  489  1  0.95685800  0.07741500  0.39774000  1
  H  491  1  0.09071100  0.92165300  0.34098400  1
  H  492  1  0.04671400  0.91514000  0.31664700  1
  H  505  1  0.79415200  0.32735500  0.95700900  1
  H  506  1  0.21413800  0.34888400  0.99143500  1
  H  507  1  0.21123200  0.33526700  0.95673100  1
  H  508  1  0.20859400  0.37517100  0.05275600  1
  H  509  1  0.79147900  0.38334600  0.05304300  1
  H  510  1  0.78859800  0.36229700  0.01833300  1
  H  512  1  0.91260400  0.33227600  0.93028500  1
  H  513  1  0.95651900  0.30792700  0.92373600  1
  H  515  1  0.09022200  0.40677700  0.07952300  1
  H  516  1  0.04597300  0.38895200  0.08602100  1
  H  529  1  0.79540500  0.61752600  0.67397100  1
  H  530  1  0.21538600  0.63017800  0.65223300  1
  H  531  1  0.21230100  0.60915700  0.66592700  1
  H  532  1  0.21002400  0.66508700  0.62580100  1
  H  533  1  0.79273800  0.65733600  0.61777900  1
  H  534  1  0.78990700  0.64375900  0.63890100  1
  H  536  1  0.91324900  0.58586400  0.66907500  1
  H  537  1  0.95781600  0.60366600  0.69339500  1
  H  539  1  0.09119100  0.66021700  0.59420200  1
  H  540  1  0.04754200  0.68457300  0.61201900  1
  H  553  1  0.79542400  0.94834400  0.62611900  1
  H  554  1  0.21507700  0.98284500  0.63897100  1
  H  555  1  0.21245300  0.94813400  0.61791900  1
  H  556  1  0.20896400  0.04417500  0.67392900  1
  H  557  1  0.79183900  0.04435400  0.66598900  1
  H  558  1  0.78930300  0.00965200  0.65239000  1
  H  560  1  0.91381800  0.92163100  0.59449900  1
  H  561  1  0.95825100  0.91509600  0.61229100  1
  H  563  1  0.09028100  0.07087600  0.66901000  1
  H  564  1  0.04605500  0.07740600  0.69334400  1
  H  577  1  0.79411800  0.66510900  0.05275900  1
  H  578  1  0.21409400  0.64366400  0.01831300  1
  H  579  1  0.21129100  0.65726100  0.05301500  1
  H  580  1  0.20839600  0.61739700  0.95699700  1
  H  581  1  0.79138000  0.60914300  0.95672500  1
  H  582  1  0.78851300  0.63018800  0.99143500  1
  H  584  1  0.91275000  0.66019100  0.07946400  1
  H  585  1  0.95659300  0.68454900  0.08603100  1
  H  587  1  0.09024300  0.58576800  0.93023300  1
  H  588  1  0.04565900  0.60358500  0.92373800  1
  H  601  1  0.79451600  0.37523700  0.33593600  1
  H  602  1  0.21454900  0.36226100  0.35738600  1
  H  603  1  0.21171200  0.38333000  0.34374800  1
  H  604  1  0.20892400  0.32729000  0.38373900  1
  H  605  1  0.79195400  0.33531000  0.39203000  1
  H  606  1  0.78901300  0.34892300  0.37093800  1
  H  608  1  0.91305000  0.40683400  0.34080400  1
  H  609  1  0.95707900  0.38903900  0.31645800  1
  H  611  1  0.09081300  0.33222500  0.41540900  1
  H  612  1  0.04635200  0.30790000  0.39761100  1
  N  10  1  0.87057900  0.88409000  0.37570600  1
  N  12  1  0.99787500  0.84435000  0.30639700  1
  N  14  1  0.88776700  0.91404400  0.33398700  1
  N  25  1  0.87061900  0.47907200  0.11687900  1
  N  27  1  0.99759600  0.44964200  0.15677300  1
  N  29  1  0.88719900  0.40741000  0.08710800  1
  N  40  1  0.87066800  0.62547900  0.52197900  1
  N  42  1  0.99772200  0.69479600  0.55147300  1
  N  44  1  0.88828700  0.66725700  0.59364200  1
  N  55  1  0.87043900  0.10814800  0.63401100  1
  N  57  1  0.99732600  0.14809400  0.70333600  1
  N  59  1  0.88720400  0.07843000  0.67594900  1
  N  70  1  0.87094700  0.51342700  0.89290700  1
  N  72  1  0.99763000  0.54285600  0.85300000  1
  N  74  1  0.88714900  0.58509100  0.92265800  1
  N  85  1  0.87116800  0.36708800  0.48776900  1
  N  87  1  0.99833100  0.29776800  0.45822400  1
  N  89  1  0.88778300  0.32530800  0.41609200  1
  N  100  1  0.13220900  0.51348200  0.63410100  1
  N  102  1  0.00523100  0.54295100  0.70342900  1
  N  104  1  0.11626400  0.58515300  0.67598600  1
  N  115  1  0.13271800  0.36702500  0.89274500  1
  N  117  1  0.00550200  0.29771000  0.85297100  1
  N  119  1  0.11552200  0.32527100  0.92266400  1
  N  130  1  0.13286400  0.10838700  0.48784000  1
  N  132  1  0.00579100  0.14819000  0.45832800  1
  N  134  1  0.11581300  0.07850300  0.41617300  1
  N  145  1  0.13282300  0.47911400  0.37575500  1
  N  147  1  0.00582900  0.44972800  0.30643600  1
  N  149  1  0.11602300  0.40745600  0.33382700  1
  N  160  1  0.13288800  0.62539900  0.11694200  1
  N  162  1  0.00570000  0.69471100  0.15676100  1
  N  164  1  0.11567400  0.66719900  0.08707500  1
  N  175  1  0.13294300  0.88444400  0.52218600  1
  N  177  1  0.00600000  0.84443400  0.55150100  1
  N  179  1  0.11690300  0.91405900  0.59383700  1
  N  185  1  0.13874700  0.75081000  0.22054500  1
  N  192  1  0.86475500  0.78057300  0.25028700  1
  N  209  1  0.13875800  0.45748600  0.25037800  1
  N  216  1  0.86475600  0.45747800  0.22062500  1
  N  233  1  0.13855500  0.78056700  0.54364500  1
  N  240  1  0.86453400  0.75087700  0.54376100  1
  N  257  1  0.13855200  0.24163900  0.78916500  1
  N  264  1  0.86453300  0.21192000  0.75938800  1
  N  281  1  0.13824700  0.53506300  0.75940800  1
  N  288  1  0.86443000  0.53506100  0.78917800  1
  N  305  1  0.13912600  0.21195600  0.46599300  1
  N  312  1  0.86525400  0.24173800  0.46602400  1
  N  329  1  0.89527000  0.89344200  0.47217200  1
  N  336  1  0.10363800  0.89478300  0.43562900  1
  N  353  1  0.89832800  0.56575000  0.10674900  1
  N  360  1  0.10667400  0.52875000  0.10718400  1
  N  377  1  0.89669300  0.52881100  0.43510900  1
  N  384  1  0.10499500  0.56577200  0.47258200  1
  N  401  1  0.89891600  0.09793300  0.53716600  1
  N  408  1  0.10722400  0.09876600  0.57480000  1
  N  425  1  0.89862700  0.42671100  0.90295700  1
  N  432  1  0.10728400  0.46359000  0.90232100  1
  N  449  1  0.89634900  0.46358900  0.57483100  1
  N  456  1  0.10554400  0.42663100  0.53744800  1
  N  473  1  0.11277100  0.97501200  0.34839500  1
  N  480  1  0.89085900  0.01753000  0.36963800  1
  N  497  1  0.11229200  0.36088000  0.02614500  1
  N  504  1  0.89047600  0.33963800  0.98361500  1
  N  521  1  0.11372400  0.65286100  0.64018200  1
  N  528  1  0.89183200  0.63175600  0.66159800  1
  N  545  1  0.11292600  0.01754500  0.66164500  1
  N  552  1  0.89152300  0.97497000  0.64041200  1
  N  569  1  0.11212700  0.63166600  0.98361200  1
  N  576  1  0.89038700  0.65285600  0.02614900  1
  N  593  1  0.11260800  0.33960200  0.36944100  1
  N  600  1  0.89081500  0.36090700  0.34821300  1
