# generated using pymatgen
data_NiH14C14(N2O3)2
_symmetry_space_group_name_H-M   'P 1'
_cell_length_a   15.50978000
_cell_length_b   16.16269443
_cell_length_c   17.42798000
_cell_angle_alpha   89.60202250
_cell_angle_beta   89.82277000
_cell_angle_gamma   102.02916929
_symmetry_Int_Tables_number   1
_chemical_formula_structural   NiH14C14(N2O3)2
_chemical_formula_sum   'Ni8 H112 C112 N32 O48'
_cell_volume   4272.76132573
_cell_formula_units_Z   8
loop_
 _symmetry_equiv_pos_site_id
 _symmetry_equiv_pos_as_xyz
  1  'x, y, z'
loop_
 _atom_site_type_symbol
 _atom_site_label
 _atom_site_symmetry_multiplicity
 _atom_site_fract_x
 _atom_site_fract_y
 _atom_site_fract_z
 _atom_site_occupancy
  Ni  Ni0  1  0.50000000  0.50000000  0.13157000  1
  Ni  Ni1  1  0.50000000  0.50000000  0.86843000  1
  Ni  Ni2  1  1.00000000  1.00000000  0.63157000  1
  Ni  Ni3  1  1.00000000  1.00000000  0.36843000  1
  Ni  Ni4  1  0.64879000  0.51110000  0.00000000  1
  Ni  Ni5  1  0.35121000  0.48890000  0.00000000  1
  Ni  Ni6  1  0.14879000  0.01110000  0.50000000  1
  Ni  Ni7  1  0.85121000  0.98890000  0.50000000  1
  H  H8  1  0.58607000  0.64578000  0.24095000  1
  H  H9  1  0.54421000  0.34040000  0.23135000  1
  H  H10  1  0.50927000  0.92641000  0.81151000  1
  H  H11  1  0.58907000  0.87434000  0.77039000  1
  H  H12  1  0.47164000  0.08550000  0.24327000  1
  H  H13  1  0.48889000  0.17992000  0.18325000  1
  H  H14  1  0.41983000  0.17108000  0.26653000  1
  H  H15  1  0.72554000  0.65192000  0.61656000  1
  H  H16  1  0.27423000  0.34891000  0.38262000  1
  H  H17  1  0.36316000  0.17282000  0.71115000  1
  H  H18  1  0.64043000  0.80931000  0.18420000  1
  H  H19  1  0.20572000  0.17540000  0.13790000  1
  H  H20  1  0.57131000  0.38810000  0.74841000  1
  H  H21  1  0.79246000  0.82478000  0.86198000  1
  H  H22  1  0.84283000  0.65632000  0.22801000  1
  H  H23  1  0.14001000  0.30117000  0.68702000  1
  H  H24  1  0.43022000  0.61175000  0.25105000  1
  H  H25  1  0.92438000  0.09789000  0.24602000  1
  H  H26  1  0.07486000  0.89427000  0.75331000  1
  H  H27  1  0.03216000  0.83307000  0.27720000  1
  H  H28  1  0.96643000  0.16960000  0.72196000  1
  H  H29  1  0.82016000  0.60825000  0.94115000  1
  H  H30  1  0.18255000  0.38944000  0.05003000  1
  H  H31  1  0.13941000  0.32149000  0.88484000  1
  H  H32  1  0.41033000  0.37659000  0.75172000  1
  H  H33  1  0.81650000  0.59271000  0.06320000  1
  H  H34  1  0.32136000  0.12254000  0.42984000  1
  H  H35  1  0.68156000  0.87580000  0.55607000  1
  H  H36  1  0.63888000  0.82594000  0.38408000  1
  H  H37  1  0.31433000  0.09415000  0.55120000  1
  H  H38  1  0.20474000  0.52973000  0.04612000  1
  H  H39  1  0.79366000  0.46709000  0.96155000  1
  H  H40  1  0.75256000  0.28633000  0.04834000  1
  H  H41  1  0.20698000  0.59489000  0.93759000  1
  H  H42  1  0.70684000  0.09044000  0.56044000  1
  H  H43  1  0.41165000  0.35298000  0.24141000  1
  H  H44  1  0.29222000  0.91601000  0.44338000  1
  H  H45  1  0.33607000  0.91346000  0.61355000  1
  H  H46  1  0.70565000  0.02116000  0.45558000  1
  H  H47  1  0.85457000  0.51175000  0.79013000  1
  H  H48  1  0.75520000  0.52155000  0.73791000  1
  H  H49  1  0.86004000  0.58739000  0.71443000  1
  H  H50  1  0.24716000  0.49812000  0.29376000  1
  H  H51  1  0.17935000  0.47888000  0.20740000  1
  H  H52  1  0.14520000  0.42161000  0.29385000  1
  H  H53  1  0.21591000  0.51770000  0.72231000  1
  H  H54  1  0.58909000  0.64423000  0.75750000  1
  H  H55  1  0.31482000  0.59600000  0.71198000  1
  H  H56  1  0.21613000  0.60299000  0.65663000  1
  H  H57  1  0.80058000  0.45706000  0.16143000  1
  H  H58  1  0.85053000  0.37157000  0.12882000  1
  H  H59  1  0.90617000  0.44699000  0.19572000  1
  H  H60  1  0.26461000  0.96658000  0.30725000  1
  H  H61  1  0.19624000  0.91658000  0.22892000  1
  H  H62  1  0.29811000  0.98830000  0.21010000  1
  H  H63  1  0.61246000  0.13333000  0.80221000  1
  H  H64  1  0.70110000  0.14045000  0.87150000  1
  H  H65  1  0.09404000  0.13571000  0.74610000  1
  H  H66  1  0.65568000  0.04231000  0.82631000  1
  H  H67  1  0.57435000  0.03088000  0.32376000  1
  H  H68  1  0.66007000  0.97189000  0.30179000  1
  H  H69  1  0.54897000  0.93474000  0.27091000  1
  H  H70  1  0.33985000  0.02764000  0.70021000  1
  H  H71  1  0.43623000  0.97944000  0.70366000  1
  H  H72  1  0.43595000  0.07345000  0.75518000  1
  H  H73  1  0.22107000  0.87836000  0.10228000  1
  H  H74  1  0.11817000  0.81595000  0.14030000  1
  H  H75  1  0.14924000  0.80516000  0.04287000  1
  H  H76  1  0.90731000  0.88021000  0.25023000  1
  H  H77  1  0.88913000  0.21096000  0.94691000  1
  H  H78  1  0.95118000  0.26074000  0.86689000  1
  H  H79  1  0.86788000  0.16424000  0.85424000  1
  H  H80  1  0.73767000  0.03556000  0.10407000  1
  H  H81  1  0.80669000  0.11375000  0.04219000  1
  H  H82  1  0.70867000  0.04778000  0.00594000  1
  H  H83  1  0.40695000  0.91192000  0.92874000  1
  H  H84  1  0.38350000  0.81039000  0.97887000  1
  H  H85  1  0.35056000  0.90050000  0.01874000  1
  H  H86  1  0.74535000  0.44708000  0.56132000  1
  H  H87  1  0.93357000  0.82625000  0.71866000  1
  H  H88  1  0.64690000  0.37779000  0.60055000  1
  H  H89  1  0.67325000  0.37535000  0.50070000  1
  H  H90  1  0.31312000  0.59553000  0.41081000  1
  H  H91  1  0.19942000  0.53766000  0.42482000  1
  H  H92  1  0.26035000  0.58966000  0.50296000  1
  H  H93  1  0.40498000  0.70319000  0.64480000  1
  H  H94  1  0.41880000  0.80237000  0.59063000  1
  H  H95  1  0.36554000  0.70411000  0.54946000  1
  H  H96  1  0.81083000  0.36152000  0.39386000  1
  H  H97  1  0.86217000  0.27838000  0.35768000  1
  H  H98  1  0.06523000  0.17381000  0.28242000  1
  H  H99  1  0.82094000  0.27255000  0.45274000  1
  H  H100  1  0.04567000  0.56773000  0.17763000  1
  H  H101  1  0.06477000  0.65713000  0.11134000  1
  H  H102  1  0.95822000  0.61790000  0.15164000  1
  H  H103  1  0.95039000  0.41784000  0.83709000  1
  H  H104  1  0.99335000  0.47410000  0.74893000  1
  H  H105  1  0.06048000  0.42040000  0.80534000  1
  H  H106  1  0.93993000  0.26900000  0.24715000  1
  H  H107  1  0.96705000  0.31737000  0.15325000  1
  H  H108  1  0.00474000  0.22565000  0.17869000  1
  H  H109  1  0.46283000  0.66803000  0.77525000  1
  H  H110  1  0.06078000  0.64729000  0.81260000  1
  H  H111  1  0.07238000  0.71566000  0.72761000  1
  H  H112  1  0.99167000  0.72176000  0.79997000  1
  H  H113  1  0.60902000  0.12946000  0.65879000  1
  H  H114  1  0.60621000  0.21228000  0.58737000  1
  H  H115  1  0.51089000  0.16833000  0.64291000  1
  H  H116  1  0.37165000  0.76673000  0.43039000  1
  H  H117  1  0.40969000  0.85290000  0.36200000  1
  H  H118  1  0.48225000  0.78878000  0.39655000  1
  H  H119  1  0.51497000  0.81991000  0.84148000  1
  C  C120  1  0.62184000  0.64328000  0.18795000  1
  C  C121  1  0.87328000  0.32339000  0.73419000  1
  C  C122  1  0.35799000  0.86772000  0.96423000  1
  C  C123  1  0.70237000  0.38302000  0.55893000  1
  C  C124  1  0.24926000  0.59466000  0.44047000  1
  C  C125  1  0.37417000  0.74057000  0.60324000  1
  C  C126  1  0.80791000  0.29233000  0.39379000  1
  C  C127  1  0.02960000  0.62995000  0.16415000  1
  C  C128  1  0.99216000  0.41717000  0.78517000  1
  C  C129  1  0.94808000  0.25690000  0.18519000  1
  C  C130  1  0.05945000  0.71161000  0.79057000  1
  C  C131  1  0.58378000  0.18722000  0.64505000  1
  C  C132  1  0.79516000  0.20522000  0.19223000  1
  C  C133  1  0.41332000  0.78758000  0.37944000  1
  C  C134  1  0.52031000  0.86427000  0.79205000  1
  C  C135  1  0.48106000  0.15539000  0.24319000  1
  C  C136  1  0.20496000  0.78410000  0.80207000  1
  C  C137  1  0.69933000  0.27188000  0.70995000  1
  C  C138  1  0.30247000  0.72253000  0.29768000  1
  C  C139  1  0.37423000  0.81614000  0.75715000  1
  C  C140  1  0.63299000  0.19333000  0.25315000  1
  C  C141  1  0.76105000  0.72802000  0.70191000  1
  C  C142  1  0.23789000  0.27245000  0.29773000  1
  C  C143  1  0.26669000  0.23149000  0.72473000  1
  C  C144  1  0.37381000  0.37216000  0.80514000  1
  C  C145  1  0.73120000  0.79694000  0.25831000  1
  C  C146  1  0.23879000  0.25451000  0.22205000  1
  C  C147  1  0.76016000  0.74563000  0.77766000  1
  C  C148  1  0.76186000  0.73385000  0.22478000  1
  C  C149  1  0.23315000  0.29213000  0.75962000  1
  C  C150  1  0.42941000  0.65107000  0.82893000  1
  C  C151  1  0.57557000  0.35347000  0.17621000  1
  C  C152  1  0.60376000  0.39100000  0.80341000  1
  C  C153  1  0.39811000  0.61056000  0.19609000  1
  C  C154  1  0.89342000  0.10082000  0.30121000  1
  C  C155  1  0.37773000  0.35486000  0.18786000  1
  C  C156  1  0.10598000  0.89458000  0.69772000  1
  C  C157  1  0.07080000  0.85037000  0.32814000  1
  C  C158  1  0.92891000  0.15102000  0.67071000  1
  C  C159  1  0.72931000  0.65492000  0.89679000  1
  C  C160  1  0.27032000  0.34565000  0.10314000  1
  C  C161  1  0.26515000  0.36191000  0.88945000  1
  C  C162  1  0.73140000  0.64943000  0.10427000  1
  C  C163  1  0.22026000  0.16740000  0.40693000  1
  C  C164  1  0.77943000  0.83310000  0.59283000  1
  C  C165  1  0.76469000  0.86312000  0.38942000  1
  C  C166  1  0.62247000  0.64403000  0.81154000  1
  C  C167  1  0.23313000  0.14629000  0.60471000  1
  C  C168  1  0.29185000  0.59808000  0.10855000  1
  C  C169  1  0.71003000  0.40578000  0.89063000  1
  C  C170  1  0.67123000  0.35589000  0.07991000  1
  C  C171  1  0.32768000  0.64378000  0.92045000  1
  C  C172  1  0.82544000  0.14230000  0.58083000  1
  C  C173  1  0.17639000  0.85942000  0.41705000  1
  C  C174  1  0.21018000  0.90535000  0.60821000  1
  C  C175  1  0.78907000  0.09093000  0.38973000  1
  C  C176  1  0.70678000  0.68213000  0.17130000  1
  C  C177  1  0.12655000  0.13718000  0.69102000  1
  C  C178  1  0.28658000  0.33988000  0.81659000  1
  C  C179  1  0.29433000  0.31288000  0.17094000  1
  C  C180  1  0.70522000  0.68689000  0.82868000  1
  C  C181  1  0.21143000  0.17592000  0.67380000  1
  C  C182  1  0.78522000  0.84253000  0.31603000  1
  C  C183  1  0.81232000  0.79032000  0.65123000  1
  C  C184  1  0.18675000  0.21033000  0.34897000  1
  C  C185  1  0.37187000  0.69404000  0.86320000  1
  C  C186  1  0.63259000  0.30956000  0.14256000  1
  C  C187  1  0.68755000  0.37921000  0.81786000  1
  C  C188  1  0.87241000  0.87396000  0.30451000  1
  C  C189  1  0.31570000  0.62443000  0.18116000  1
  C  C190  1  0.80917000  0.10967000  0.31424000  1
  C  C191  1  0.18979000  0.88288000  0.68349000  1
  C  C192  1  0.13393000  0.81094000  0.35831000  1
  C  C193  1  0.86881000  0.19301000  0.63771000  1
  C  C194  1  0.21901000  0.73354000  0.19893000  1
  C  C195  1  0.80506000  0.28511000  0.79618000  1
  C  C196  1  0.70559000  0.17246000  0.15134000  1
  C  C197  1  0.28457000  0.82201000  0.85207000  1
  C  C198  1  0.76805000  0.31063000  0.64889000  1
  C  C199  1  0.89238000  0.83816000  0.67185000  1
  C  C200  1  0.21991000  0.68648000  0.34663000  1
  C  C201  1  0.29409000  0.77731000  0.70591000  1
  C  C202  1  0.72123000  0.22450000  0.29420000  1
  C  C203  1  0.81215000  0.38082000  0.70433000  1
  C  C204  1  0.17976000  0.62751000  0.28096000  1
  C  C205  1  0.25345000  0.71749000  0.77140000  1
  C  C206  1  0.75891000  0.27990000  0.22483000  1
  C  C207  1  0.25978000  0.79207000  0.26371000  1
  C  C208  1  0.75951000  0.21605000  0.74171000  1
  C  C209  1  0.66816000  0.11798000  0.22183000  1
  C  C210  1  0.10689000  0.16210000  0.32867000  1
  C  C211  1  0.32364000  0.88319000  0.78611000  1
  C  C212  1  0.74268000  0.34236000  0.76615000  1
  C  C213  1  0.26277000  0.66333000  0.23190000  1
  C  C214  1  0.33325000  0.75495000  0.82222000  1
  C  C215  1  0.67045000  0.24817000  0.18379000  1
  C  C216  1  0.17667000  0.75666000  0.31358000  1
  C  C217  1  0.82867000  0.25314000  0.67932000  1
  C  C218  1  0.75741000  0.14895000  0.26193000  1
  C  C219  1  0.24354000  0.84467000  0.73620000  1
  C  C220  1  0.82686000  0.52293000  0.73334000  1
  C  C221  1  0.13632000  0.69728000  0.24783000  1
  C  C222  1  0.17887000  0.48416000  0.27075000  1
  C  C223  1  0.24196000  0.58630000  0.71269000  1
  C  C224  1  0.84046000  0.41053000  0.17857000  1
  C  C225  1  0.26459000  0.93771000  0.24981000  1
  C  C226  1  0.67384000  0.11168000  0.81678000  1
  C  C227  1  0.60066000  0.99241000  0.28032000  1
  C  C228  1  0.39317000  0.01317000  0.73687000  1
  C  C229  1  0.17552000  0.81569000  0.10190000  1
  C  C230  1  0.88502000  0.22547000  0.88495000  1
  C  C231  1  0.73800000  0.08281000  0.05727000  1
  N  N232  1  0.59554000  0.59132000  0.13081000  1
  N  N233  1  0.57503000  0.42141000  0.13279000  1
  N  N234  1  0.57503000  0.42141000  0.86721000  1
  N  N235  1  0.42497000  0.57859000  0.13279000  1
  N  N236  1  0.92497000  0.07859000  0.36721000  1
  N  N237  1  0.07503000  0.92141000  0.63279000  1
  N  N238  1  0.07503000  0.92141000  0.36721000  1
  N  N239  1  0.92497000  0.07859000  0.63279000  1
  N  N240  1  0.66040000  0.59616000  0.92191000  1
  N  N241  1  0.33960000  0.40384000  0.07809000  1
  N  N242  1  0.33960000  0.40384000  0.92191000  1
  N  N243  1  0.40446000  0.40868000  0.86919000  1
  N  N244  1  0.66040000  0.59616000  0.07809000  1
  N  N245  1  0.16040000  0.09616000  0.42191000  1
  N  N246  1  0.83960000  0.90384000  0.57809000  1
  N  N247  1  0.83960000  0.90384000  0.42191000  1
  N  N248  1  0.16040000  0.09616000  0.57809000  1
  N  N249  1  0.36010000  0.57375000  0.07610000  1
  N  N250  1  0.63990000  0.42625000  0.92390000  1
  N  N251  1  0.63990000  0.42625000  0.07610000  1
  N  N252  1  0.36010000  0.57375000  0.92390000  1
  N  N253  1  0.86010000  0.07375000  0.57610000  1
  N  N254  1  0.40446000  0.40868000  0.13081000  1
  N  N255  1  0.13990000  0.92625000  0.42390000  1
  N  N256  1  0.13990000  0.92625000  0.57610000  1
  N  N257  1  0.86010000  0.07375000  0.42390000  1
  N  N258  1  0.59554000  0.59132000  0.86919000  1
  N  N259  1  0.09554000  0.09132000  0.63081000  1
  N  N260  1  0.90446000  0.90868000  0.36919000  1
  N  N261  1  0.90446000  0.90868000  0.63081000  1
  N  N262  1  0.09554000  0.09132000  0.36919000  1
  N  N263  1  0.42497000  0.57859000  0.86721000  1
  O  O264  1  0.81494000  0.66376000  0.92021000  1
  O  O265  1  0.79562000  0.43406000  0.91417000  1
  O  O266  1  0.73603000  0.33923000  0.03240000  1
  O  O267  1  0.24620000  0.65055000  0.94700000  1
  O  O268  1  0.74424000  0.14760000  0.55348000  1
  O  O269  1  0.25927000  0.85652000  0.44182000  1
  O  O270  1  0.29333000  0.92910000  0.57737000  1
  O  O271  1  0.70454000  0.06603000  0.41687000  1
  O  O272  1  0.84316000  0.46484000  0.67829000  1
  O  O273  1  0.13059000  0.54446000  0.29353000  1
  O  O274  1  0.21145000  0.63074000  0.77242000  1
  O  O275  1  0.18487000  0.33752000  0.07928000  1
  O  O276  1  0.80114000  0.36405000  0.24265000  1
  O  O277  1  0.31349000  0.87351000  0.25173000  1
  O  O278  1  0.73648000  0.12813000  0.75684000  1
  O  O279  1  0.61954000  0.03503000  0.20981000  1
  O  O280  1  0.35686000  0.96910000  0.80304000  1
  O  O281  1  0.22225000  0.75201000  0.11938000  1
  O  O282  1  0.82084000  0.27482000  0.87513000  1
  O  O283  1  0.68849000  0.14402000  0.07526000  1
  O  O284  1  0.27472000  0.84558000  0.92896000  1
  O  O285  1  0.75245000  0.32048000  0.57003000  1
  O  O286  1  0.18225000  0.35684000  0.91938000  1
  O  O287  1  0.21710000  0.66856000  0.42617000  1
  O  O288  1  0.29118000  0.75275000  0.62796000  1
  O  O289  1  0.72269000  0.24941000  0.37200000  1
  O  O290  1  0.04704000  0.68661000  0.22608000  1
  O  O291  1  0.96595000  0.34328000  0.74146000  1
  O  O292  1  0.87396000  0.20490000  0.15107000  1
  O  O293  1  0.11854000  0.77289000  0.83240000  1
  O  O294  1  0.60670000  0.24948000  0.70167000  1
  O  O295  1  0.39183000  0.73063000  0.31853000  1
  O  O296  1  0.46298000  0.83122000  0.73194000  1
  O  O297  1  0.81670000  0.64988000  0.08334000  1
  O  O298  1  0.55195000  0.19192000  0.29092000  1
  O  O299  1  0.71400000  0.65276000  0.67255000  1
  O  O300  1  0.28546000  0.34774000  0.32660000  1
  O  O301  1  0.34908000  0.21742000  0.74416000  1
  O  O302  1  0.65362000  0.82153000  0.23902000  1
  O  O303  1  0.19310000  0.17802000  0.19356000  1
  O  O304  1  0.80518000  0.82231000  0.80632000  1
  O  O305  1  0.83984000  0.71262000  0.24864000  1
  O  O306  1  0.15326000  0.31296000  0.74191000  1
  O  O307  1  0.30831000  0.17964000  0.42370000  1
  O  O308  1  0.69217000  0.82011000  0.57293000  1
  O  O309  1  0.68216000  0.85860000  0.41989000  1
  O  O310  1  0.31726000  0.14732000  0.57977000  1
  O  O311  1  0.20580000  0.57331000  0.08574000  1
