# generated using pymatgen
data_Zr3H17C24N3O16
_symmetry_space_group_name_H-M   'P 1'
_cell_length_a   14.77244000
_cell_length_b   14.78996499
_cell_length_c   14.79325000
_cell_angle_alpha   60.09700337
_cell_angle_beta   60.11940000
_cell_angle_gamma   90.12360277
_symmetry_Int_Tables_number   1
_chemical_formula_structural   Zr3H17C24N3O16
_chemical_formula_sum   'Zr6 H34 C48 N6 O32'
_cell_volume   2290.43238241
_cell_formula_units_Z   2
loop_
 _symmetry_equiv_pos_site_id
 _symmetry_equiv_pos_as_xyz
  1  'x, y, z'
loop_
 _atom_site_type_symbol
 _atom_site_label
 _atom_site_symmetry_multiplicity
 _atom_site_fract_x
 _atom_site_fract_y
 _atom_site_fract_z
 _atom_site_occupancy
  Zr  Zr1  1  0.61815000  0.62104000  0.75974000  1.0
  Zr  Zr2  1  0.61666000  0.61931000  0.00003000  1.0
  Zr  Zr3  1  0.62205000  0.38349000  0.99693000  1.0
  Zr  Zr4  1  0.38211000  0.37875000  0.23798000  1.0
  Zr  Zr5  1  0.38220000  0.37865000  0.99975000  1.0
  Zr  Zr6  1  0.37721000  0.61528000  0.00361000  1.0
  H  H1  1  0.07915000  0.08227000  0.27272000  1.0
  H  H2  1  0.65065000  0.64128000  0.27232000  1.0
  H  H3  1  0.90792000  0.35748000  0.00539000  1.0
  H  H4  1  0.35434000  0.92023000  0.99573000  1.0
  H  H5  1  0.09149000  0.64183000  0.00073000  1.0
  H  H6  1  0.91367000  0.64176000  0.43468000  1.0
  H  H7  1  0.35782000  0.09155000  0.55020000  1.0
  H  H8  1  0.64237000  0.91393000  0.44967000  1.0
  H  H9  1  0.65231000  0.08513000  0.27242000  1.0
  H  H10  1  0.08402000  0.63441000  0.27292000  1.0
  H  H11  1  0.90710000  0.35530000  0.73414000  1.0
  H  H12  1  0.36315000  0.09100000  0.99387000  1.0
  H  H13  1  0.07683000  0.34847000  0.00748000  1.0
  H  H14  1  0.64807000  0.91390000  0.98917000  1.0
  H  H15  1  0.35630000  0.35623000  0.55206000  1.0
  H  H16  1  0.90784000  0.91412000  0.44926000  1.0
  H  H17  1  0.64374000  0.63494000  0.44875000  1.0
  H  H18  1  0.08413000  0.09665000  0.55300000  1.0
  H  H19  1  0.78168000  0.59817000  0.80948000  1.0
  H  H20  1  0.40354000  0.59117000  0.81387000  1.0
  H  H21  1  0.40391000  0.59149000  0.18973000  1.0
  H  H22  1  0.41020000  0.21785000  0.18445000  1.0
  H  H23  1  0.33106000  0.32211000  0.82454000  1.0
  H  H24  1  0.28109000  0.26807000  0.77005000  1.0
  H  H25  1  0.33311000  0.85487000  0.82335000  1.0
  H  H26  1  0.28793000  0.96646000  0.76907000  1.0
  H  H27  1  0.67170000  0.14961000  0.00195000  1.0
  H  H28  1  0.71576000  0.03750000  0.01490000  1.0
  H  H29  1  0.84677000  0.85085000  0.82256000  1.0
  H  H30  1  0.96024000  0.94675000  0.76894000  1.0
  H  H31  1  0.14574000  0.32134000  0.52292000  1.0
  H  H32  1  0.03433000  0.26552000  0.67945000  1.0
  H  H33  1  0.83857000  0.66095000  0.02244000  1.0
  H  H34  1  0.93907000  0.70632000  0.03299000  1.0
  C  C1  1  0.94743000  0.96336000  0.63134000  1.0
  C  C2  1  0.41325000  0.41205000  0.63115000  1.0
  C  C3  1  0.04170000  0.04870000  0.37228000  1.0
  C  C4  1  0.58580000  0.57818000  0.37195000  1.0
  C  C5  1  0.94923000  0.41893000  0.00471000  1.0
  C  C6  1  0.41987000  0.95704000  0.99338000  1.0
  C  C7  1  0.04978000  0.57917000  0.00305000  1.0
  C  C8  1  0.59262000  0.04947000  0.98828000  1.0
  C  C9  1  0.95026000  0.57858000  0.46332000  1.0
  C  C10  1  0.42042000  0.05225000  0.52954000  1.0
  C  C11  1  0.04298000  0.41192000  0.54338000  1.0
  C  C12  1  0.58090000  0.95428000  0.47000000  1.0
  C  C13  1  0.58676000  0.04869000  0.37185000  1.0
  C  C14  1  0.04413000  0.57434000  0.37461000  1.0
  C  C15  1  0.41357000  0.95651000  0.63071000  1.0
  C  C16  1  0.94673000  0.41660000  0.63259000  1.0
  C  C17  1  0.95449000  0.58508000  0.00331000  1.0
  C  C18  1  0.42532000  0.05134000  0.99177000  1.0
  C  C19  1  0.04220000  0.41350000  0.00597000  1.0
  C  C20  1  0.58580000  0.95335000  0.99015000  1.0
  C  C21  1  0.41933000  0.41662000  0.53056000  1.0
  C  C22  1  0.94684000  0.95657000  0.46979000  1.0
  C  C23  1  0.58150000  0.57459000  0.46936000  1.0
  C  C24  1  0.04429000  0.05660000  0.53103000  1.0
  C  C25  1  0.79892000  0.81053000  0.69696000  1.0
  C  C26  1  0.89758000  0.91196000  0.59954000  1.0
  C  C27  1  0.50084000  0.49501000  0.69634000  1.0
  C  C28  1  0.49743000  0.49300000  0.59911000  1.0
  C  C29  1  0.19437000  0.19734000  0.30272000  1.0
  C  C30  1  0.09092000  0.09899000  0.40399000  1.0
  C  C31  1  0.50453000  0.49806000  0.30196000  1.0
  C  C32  1  0.50366000  0.49746000  0.40362000  1.0
  C  C33  1  0.80300000  0.50093000  0.00377000  1.0
  C  C34  1  0.90330000  0.50285000  0.00357000  1.0
  C  C35  1  0.49894000  0.80536000  0.99538000  1.0
  C  C36  1  0.50151000  0.90762000  0.99273000  1.0
  C  C37  1  0.19225000  0.49230000  0.00791000  1.0
  C  C38  1  0.09254000  0.49491000  0.00548000  1.0
  C  C39  1  0.50704000  0.19846000  0.99140000  1.0
  C  C40  1  0.50994000  0.09958000  0.98918000  1.0
  C  C41  1  0.80026000  0.49930000  0.69383000  1.0
  C  C42  1  0.90095000  0.49795000  0.59418000  1.0
  C  C43  1  0.50721000  0.19982000  0.30048000  1.0
  C  C44  1  0.50529000  0.09831000  0.40265000  1.0
  C  C45  1  0.19102000  0.49280000  0.30915000  1.0
  C  C46  1  0.09223000  0.49239000  0.41078000  1.0
  C  C47  1  0.49844000  0.80644000  0.69778000  1.0
  C  C48  1  0.49652000  0.90646000  0.59965000  1.0
  N  N1  1  0.32562000  0.33275000  0.75417000  1.0
  N  N2  1  0.32593000  0.91368000  0.75407000  1.0
  N  N3  1  0.67979000  0.09171000  0.98276000  1.0
  N  N4  1  0.90459000  0.92788000  0.75479000  1.0
  N  N5  1  0.08674000  0.33234000  0.58816000  1.0
  N  N6  1  0.91704000  0.67160000  0.99961000  1.0
  O  O1  1  0.70139000  0.56944000  0.86367000  1.0
  O  O2  1  0.43120000  0.56511000  0.86654000  1.0
  O  O3  1  0.43582000  0.29808000  0.13239000  1.0
  O  O4  1  0.43094000  0.56509000  0.13584000  1.0
  O  O5  1  0.55062000  0.45071000  0.09830000  1.0
  O  O6  1  0.35058000  0.44743000  0.10019000  1.0
  O  O7  1  0.54696000  0.64803000  0.90147000  1.0
  O  O8  1  0.55058000  0.45154000  0.89936000  1.0
  O  O9  1  0.75987000  0.76965000  0.65992000  1.0
  O  O10  1  0.57667000  0.57328000  0.65912000  1.0
  O  O11  1  0.76011000  0.57682000  0.00477000  1.0
  O  O12  1  0.57559000  0.76512000  0.99576000  1.0
  O  O13  1  0.76149000  0.42350000  0.81046000  1.0
  O  O14  1  0.58420000  0.23920000  0.18427000  1.0
  O  O15  1  0.42954000  0.23906000  0.33738000  1.0
  O  O16  1  0.76125000  0.57670000  0.65630000  1.0
  O  O17  1  0.76434000  0.42507000  0.00133000  1.0
  O  O18  1  0.41993000  0.76427000  0.99882000  1.0
  O  O19  1  0.75865000  0.76672000  0.81551000  1.0
  O  O20  1  0.42563000  0.41744000  0.81497000  1.0
  O  O21  1  0.23569000  0.23619000  0.33975000  1.0
  O  O22  1  0.42876000  0.42025000  0.33843000  1.0
  O  O23  1  0.23226000  0.41611000  0.00633000  1.0
  O  O24  1  0.42865000  0.23675000  0.99386000  1.0
  O  O25  1  0.23035000  0.56926000  0.19261000  1.0
  O  O26  1  0.42122000  0.76321000  0.81635000  1.0
  O  O27  1  0.23359000  0.41637000  0.34308000  1.0
  O  O28  1  0.57570000  0.76696000  0.66035000  1.0
  O  O29  1  0.58267000  0.23994000  0.99334000  1.0
  O  O30  1  0.23159000  0.56847000  0.00960000  1.0
  O  O31  1  0.57949000  0.57727000  0.18581000  1.0
  O  O32  1  0.23554000  0.23488000  0.18659000  1.0
