# generated using pymatgen
data_H7C10(N3O)2
_symmetry_space_group_name_H-M   'P 1'
_cell_length_a   18.71230000
_cell_length_b   18.71230000
_cell_length_c   18.71230000
_cell_angle_alpha   90.00000000
_cell_angle_beta   90.00000000
_cell_angle_gamma   90.00000000
_symmetry_Int_Tables_number   1
_chemical_formula_structural   H7C10(N3O)2
_chemical_formula_sum   'H84 C120 N72 O24'
_cell_volume   6552.11505023
_cell_formula_units_Z   12
loop_
 _symmetry_equiv_pos_site_id
 _symmetry_equiv_pos_as_xyz
  1  'x, y, z'
loop_
 _atom_site_type_symbol
 _atom_site_label
 _atom_site_symmetry_multiplicity
 _atom_site_fract_x
 _atom_site_fract_y
 _atom_site_fract_z
 _atom_site_occupancy
  C  1  1  0.38415900  0.32052300  0.72790600  1
  C  3  1  0.36721900  0.23950600  0.63178200  1
  C  5  1  0.26987100  0.30964300  0.67345300  1
  C  7  1  0.39560200  0.19247700  0.58054400  1
  C  8  1  0.20358300  0.34270000  0.65962600  1
  C  9  1  0.43141700  0.35727800  0.77326600  1
  C  13  1  0.65372800  0.66573800  0.74866800  1
  C  15  1  0.66620400  0.74903600  0.65360800  1
  C  17  1  0.74905800  0.65357000  0.66566400  1
  C  19  1  0.63845800  0.80487200  0.61156000  1
  C  20  1  0.80467400  0.61133000  0.63779000  1
  C  21  1  0.61137400  0.63780000  0.80418200  1
  C  25  1  0.63117800  0.36801900  0.24001900  1
  C  27  1  0.67239200  0.27053300  0.31019800  1
  C  29  1  0.72711600  0.38460900  0.32136600  1
  C  31  1  0.65838000  0.20404700  0.34282300  1
  C  32  1  0.77254600  0.43179600  0.35813400  1
  C  33  1  0.58021800  0.39655700  0.19278700  1
  C  37  1  0.31048000  0.67285200  0.27032500  1
  C  39  1  0.32202900  0.72706200  0.38463100  1
  C  41  1  0.24051700  0.63132800  0.36785500  1
  C  43  1  0.35894600  0.77236400  0.43183300  1
  C  44  1  0.19323100  0.58036200  0.39630200  1
  C  45  1  0.34289900  0.65908000  0.20369900  1
  C  49  1  0.96256000  0.48051300  0.52441400  1
  C  50  1  0.92040600  0.43547700  0.48110100  1
  C  51  1  0.85027600  0.45396300  0.46025400  1
  C  52  1  0.81777800  0.51520200  0.49216400  1
  C  53  1  0.85987300  0.56143800  0.53612800  1
  C  54  1  0.93269200  0.54511800  0.55148800  1
  C  57  1  0.03660800  0.46511100  0.52817200  1
  C  58  1  0.06543200  0.40356400  0.56255600  1
  C  59  1  0.14106900  0.39389100  0.56304600  1
  C  60  1  0.18759400  0.44431100  0.52902700  1
  C  61  1  0.15756100  0.50486600  0.49415200  1
  C  62  1  0.08288200  0.51333500  0.49327000  1
  C  83  1  0.52507100  0.96251200  0.48053400  1
  C  84  1  0.48191500  0.92029800  0.43537800  1
  C  85  1  0.46102400  0.85020000  0.45395200  1
  C  86  1  0.49295900  0.81772400  0.51518900  1
  C  87  1  0.53681800  0.85987300  0.56148100  1
  C  88  1  0.55201600  0.93272800  0.54521900  1
  C  91  1  0.52844900  0.03659700  0.46518600  1
  C  92  1  0.56273600  0.06561500  0.40367700  1
  C  93  1  0.56259800  0.14124000  0.39383800  1
  C  94  1  0.52808000  0.18756200  0.44412000  1
  C  95  1  0.49356400  0.15733000  0.50478600  1
  C  96  1  0.49317900  0.08266200  0.51334100  1
  C  117  1  0.48023900  0.52487500  0.96223400  1
  C  118  1  0.43513300  0.48121900  0.92047400  1
  C  119  1  0.45361100  0.45981000  0.85050400  1
  C  120  1  0.51466600  0.49169700  0.81763800  1
  C  121  1  0.56092000  0.53601200  0.85931200  1
  C  122  1  0.54477600  0.55176800  0.93207600  1
  C  125  1  0.46508900  0.52872800  0.03633500  1
  C  126  1  0.40351500  0.56294000  0.06531100  1
  C  127  1  0.39385400  0.56322800  0.14096700  1
  C  128  1  0.44431700  0.52904200  0.18734700  1
  C  129  1  0.50502600  0.49457400  0.15716900  1
  C  130  1  0.51350800  0.49395900  0.08249700  1
  C  1201  1  0.86512700  0.80149100  0.20887400  1
  C  1203  1  0.84818700  0.72047400  0.11274950  1
  C  1205  1  0.75083900  0.79061100  0.15442050  1
  C  1207  1  0.87657000  0.67344500  0.06151150  1
  C  1208  1  0.68455100  0.82366800  0.14059350  1
  C  1209  1  0.91238500  0.83824600  0.25423400  1
  C  1213  1  0.13469550  0.14670550  0.22963600  1
  C  1215  1  0.14717150  0.23000400  0.13457550  1
  C  1217  1  0.23002600  0.13453750  0.14663150  1
  C  1219  1  0.11942550  0.28584000  0.09252750  1
  C  1220  1  0.28564200  0.09229750  0.11875750  1
  C  1221  1  0.09234150  0.11876750  0.28515000  1
  C  1225  1  0.11214550  0.84898700  0.72098700  1
  C  1227  1  0.15335950  0.75150100  0.79116600  1
  C  1229  1  0.20808400  0.86557700  0.80233400  1
  C  1231  1  0.13934750  0.68501500  0.82379100  1
  C  1232  1  0.25351400  0.91276400  0.83910200  1
  C  1233  1  0.06118550  0.87752500  0.67375500  1
  C  1237  1  0.79144800  0.15381950  0.75129300  1
  C  1239  1  0.80299700  0.20803000  0.86559900  1
  C  1241  1  0.72148500  0.11229550  0.84882300  1
  C  1243  1  0.83991400  0.25333200  0.91280100  1
  C  1244  1  0.67419900  0.06132950  0.87727000  1
  C  1245  1  0.82386700  0.14004750  0.68466700  1
  C  1249  1  0.44352800  0.96148100  0.00538153  1
  C  1250  1  0.40137400  0.91644500  0.96206900  1
  C  1251  1  0.33124400  0.93493100  0.94122200  1
  C  1252  1  0.29874600  0.99617000  0.97313200  1
  C  1253  1  0.34084100  0.04240550  0.01709553  1
  C  1254  1  0.41366000  0.02608550  0.03245550  1
  C  1257  1  0.51757600  0.94607900  0.00913953  1
  C  1258  1  0.54640000  0.88453200  0.04352350  1
  C  1259  1  0.62203700  0.87485900  0.04401350  1
  C  1260  1  0.66856200  0.92527900  0.00999453  1
  C  1261  1  0.63852900  0.98583400  0.97512000  1
  C  1262  1  0.56385000  0.99430300  0.97423800  1
  C  1283  1  0.00603853  0.44348000  0.96150200  1
  C  1284  1  0.96288300  0.40126600  0.91634600  1
  C  1285  1  0.94199200  0.33116800  0.93492000  1
  C  1286  1  0.97392700  0.29869200  0.99615700  1
  C  1287  1  0.01778553  0.34084100  0.04244850  1
  C  1288  1  0.03298350  0.41369600  0.02618650  1
  C  1291  1  0.00941653  0.51756500  0.94615400  1
  C  1292  1  0.04370350  0.54658300  0.88464500  1
  C  1293  1  0.04356550  0.62220800  0.87480600  1
  C  1294  1  0.00904753  0.66853000  0.92508800  1
  C  1295  1  0.97453200  0.63829800  0.98575400  1
  C  1296  1  0.97414700  0.56363000  0.99430900  1
  C  1317  1  0.96120700  0.00584253  0.44320200  1
  C  1318  1  0.91610100  0.96218700  0.40144200  1
  C  1319  1  0.93457900  0.94077800  0.33147200  1
  C  1320  1  0.99563400  0.97266500  0.29860600  1
  C  1321  1  0.04188750  0.01697953  0.34028000  1
  C  1322  1  0.02574350  0.03273550  0.41304400  1
  C  1325  1  0.94605700  0.00969553  0.51730300  1
  C  1326  1  0.88448300  0.04390750  0.54627900  1
  C  1327  1  0.87482200  0.04419550  0.62193500  1
  C  1328  1  0.92528500  0.01000953  0.66831500  1
  C  1329  1  0.98599400  0.97554200  0.63813700  1
  C  1330  1  0.99447600  0.97492700  0.56346500  1
  H  55  1  0.94392400  0.39175800  0.45776300  1
  H  64  1  0.06194700  0.55776600  0.46885300  1
  H  67  1  0.02007800  0.57727800  0.60979200  1
  H  68  1  0.95367800  0.63472700  0.61162000  1
  H  69  1  0.04065100  0.31496400  0.62250000  1
  H  70  1  0.97075800  0.36389400  0.60143600  1
  H  71  1  0.28160000  0.38965900  0.54351400  1
  H  72  1  0.29091500  0.46277700  0.49669100  1
  H  73  1  0.72053600  0.56126800  0.51474800  1
  H  74  1  0.71455600  0.48542900  0.47210200  1
  H  76  1  0.24098500  0.57191800  0.49176300  1
  H  78  1  0.18913200  0.30086100  0.56206400  1
  H  80  1  0.80105600  0.64982400  0.53795600  1
  H  82  1  0.83237800  0.36037800  0.40995100  1
  H  89  1  0.45838700  0.94385600  0.39178600  1
  H  98  1  0.46887800  0.06160600  0.55777800  1
  H  101  1  0.60991000  0.02031900  0.57757800  1
  H  102  1  0.61178400  0.95390200  0.63501600  1
  H  103  1  0.62310400  0.04113700  0.31528000  1
  H  104  1  0.60246000  0.97117400  0.36427900  1
  H  105  1  0.54168600  0.28161700  0.38931200  1
  H  106  1  0.49463100  0.29050500  0.46235400  1
  H  107  1  0.51569800  0.72048800  0.56118800  1
  H  108  1  0.47307400  0.71449200  0.48533500  1
  H  110  1  0.49061700  0.24084700  0.57181200  1
  H  112  1  0.56123000  0.19024400  0.30084600  1
  H  114  1  0.53852800  0.80100800  0.64981800  1
  H  116  1  0.41064300  0.83230200  0.36041100  1
  H  123  1  0.39166200  0.45775300  0.94431400  1
  H  132  1  0.55793200  0.46960600  0.06147300  1
  H  135  1  0.57722000  0.61038000  0.01914800  1
  H  136  1  0.63457200  0.61174200  0.95264000  1
  H  137  1  0.31487900  0.62289600  0.04068000  1
  H  138  1  0.36380900  0.60201000  0.97073600  1
  H  139  1  0.38964900  0.54287200  0.28148800  1
  H  140  1  0.46293000  0.49627900  0.29049800  1
  H  141  1  0.56035800  0.51370100  0.71998200  1
  H  142  1  0.48470800  0.47081300  0.71449200  1
  H  144  1  0.57217000  0.49208300  0.24048500  1
  H  146  1  0.30110300  0.56153400  0.18957500  1
  H  148  1  0.64915600  0.53807400  0.79963400  1
  H  150  1  0.36010600  0.40917400  0.83316400  1
  H  1255  1  0.42489200  0.87272600  0.93873100  1
  H  1264  1  0.54291500  0.03873350  0.94982100  1
  H  1267  1  0.50104600  0.05824550  0.09075950  1
  H  1268  1  0.43464600  0.11569450  0.09258750  1
  H  1269  1  0.52161900  0.79593200  0.10346750  1
  H  1270  1  0.45172600  0.84486200  0.08240350  1
  H  1271  1  0.76256800  0.87062700  0.02448150  1
  H  1272  1  0.77188300  0.94374500  0.97765900  1
  H  1273  1  0.20150400  0.04223550  0.99571600  1
  H  1274  1  0.19552350  0.96639700  0.95307000  1
  H  1276  1  0.72195300  0.05288550  0.97273100  1
  H  1278  1  0.67010000  0.78182900  0.04303150  1
  H  1280  1  0.28202400  0.13079150  0.01892353  1
  H  1282  1  0.31334600  0.84134600  0.89091900  1
  H  1289  1  0.93935500  0.42482400  0.87275400  1
  H  1298  1  0.94984600  0.54257400  0.03874550  1
  H  1301  1  0.09087750  0.50128700  0.05854550  1
  H  1302  1  0.09275150  0.43487000  0.11598350  1
  H  1303  1  0.10407150  0.52210500  0.79624800  1
  H  1304  1  0.08342750  0.45214200  0.84524700  1
  H  1305  1  0.02265350  0.76258500  0.87028000  1
  H  1306  1  0.97559900  0.77147300  0.94332200  1
  H  1307  1  0.99666600  0.20145600  0.04215550  1
  H  1308  1  0.95404200  0.19545950  0.96630300  1
  H  1310  1  0.97158500  0.72181500  0.05277950  1
  H  1312  1  0.04219750  0.67121200  0.78181400  1
  H  1314  1  0.01949553  0.28197600  0.13078550  1
  H  1316  1  0.89161100  0.31327000  0.84137900  1
  H  1323  1  0.87263000  0.93872100  0.42528200  1
  H  1332  1  0.03889950  0.95057400  0.54244100  1
  H  1335  1  0.05818750  0.09134750  0.50011600  1
  H  1336  1  0.11553950  0.09270950  0.43360800  1
  H  1337  1  0.79584700  0.10386350  0.52164800  1
  H  1338  1  0.84477700  0.08297750  0.45170400  1
  H  1339  1  0.87061700  0.02383950  0.76245600  1
  H  1340  1  0.94389800  0.97724700  0.77146600  1
  H  1341  1  0.04132550  0.99466900  0.20095000  1
  H  1342  1  0.96567600  0.95178100  0.19545950  1
  H  1344  1  0.05313750  0.97305100  0.72145300  1
  H  1346  1  0.78207100  0.04250150  0.67054300  1
  H  1348  1  0.13012350  0.01904153  0.28060200  1
  H  1350  1  0.84107400  0.89014200  0.31413200  1
  N  2  1  0.40998700  0.27197500  0.68055200  1
  N  4  1  0.29748900  0.25936500  0.62877900  1
  N  6  1  0.31427400  0.33947800  0.72260000  1
  N  14  1  0.63123800  0.72438000  0.71225800  1
  N  16  1  0.72464600  0.71244600  0.63092200  1
  N  18  1  0.71241400  0.63082600  0.72405400  1
  N  26  1  0.62794600  0.29828600  0.25980900  1
  N  28  1  0.72161100  0.31471200  0.34024600  1
  N  30  1  0.67998000  0.41060200  0.27268700  1
  N  38  1  0.34071100  0.72183000  0.31466000  1
  N  40  1  0.27333300  0.67992200  0.41056000  1
  N  42  1  0.26011800  0.62835600  0.29805500  1
  N  56  1  0.74517800  0.52369300  0.48899400  1
  N  63  1  0.25964900  0.43271600  0.52511300  1
  N  65  1  0.97229600  0.58966600  0.59382800  1
  N  66  1  0.02194800  0.35647100  0.59755400  1
  N  75  1  0.19776500  0.55873400  0.46585500  1
  N  77  1  0.16883500  0.33501000  0.59582800  1
  N  79  1  0.82866400  0.61852400  0.56909100  1
  N  81  1  0.81723200  0.41031800  0.41157300  1
  N  90  1  0.48989800  0.74511400  0.52363000  1
  N  97  1  0.52353200  0.25956200  0.43241000  1
  N  99  1  0.59415000  0.97244000  0.58985800  1
  N  100  1  0.59809800  0.02230100  0.35668900  1
  N  109  1  0.46503600  0.19742500  0.55858400  1
  N  111  1  0.59468400  0.16900100  0.33454500  1
  N  113  1  0.56969000  0.82870600  0.61863600  1
  N  115  1  0.41231800  0.81713400  0.41034100  1
  N  124  1  0.52278900  0.48829500  0.74501800  1
  N  131  1  0.43267200  0.52464400  0.25935500  1
  N  133  1  0.58944600  0.59424600  0.97137800  1
  N  134  1  0.35628900  0.59785200  0.02189400  1
  N  143  1  0.55895400  0.46622800  0.19724400  1
  N  145  1  0.33455700  0.59544800  0.16867500  1
  N  147  1  0.61777000  0.56881400  0.82763800  1
  N  149  1  0.41000300  0.41081000  0.81788000  1
  N  1202  1  0.89095500  0.75294300  0.16151950  1
  N  1204  1  0.77845700  0.74033300  0.10974650  1
  N  1206  1  0.79524200  0.82044600  0.20356800  1
  N  1214  1  0.11220550  0.20534800  0.19322550  1
  N  1216  1  0.20561400  0.19341350  0.11188950  1
  N  1218  1  0.19338150  0.11179350  0.20502200  1
  N  1226  1  0.10891350  0.77925400  0.74077700  1
  N  1228  1  0.20257900  0.79568000  0.82121400  1
  N  1230  1  0.16094750  0.89157000  0.75365500  1
  N  1238  1  0.82167900  0.20279800  0.79562800  1
  N  1240  1  0.75430100  0.16088950  0.89152800  1
  N  1242  1  0.74108600  0.10932350  0.77902300  1
  N  1256  1  0.22614600  0.00466053  0.96996200  1
  N  1263  1  0.74061700  0.91368400  0.00608053  1
  N  1265  1  0.45326400  0.07063350  0.07479550  1
  N  1266  1  0.50291600  0.83743900  0.07852150  1
  N  1275  1  0.67873300  0.03970150  0.94682300  1
  N  1277  1  0.64980300  0.81597800  0.07679550  1
  N  1279  1  0.30963200  0.09949150  0.05005850  1
  N  1281  1  0.29820000  0.89128600  0.89254100  1
  N  1290  1  0.97086600  0.22608200  0.00459753  1
  N  1297  1  0.00449953  0.74053000  0.91337800  1
  N  1299  1  0.07511750  0.45340800  0.07082550  1
  N  1300  1  0.07906550  0.50326900  0.83765700  1
  N  1309  1  0.94600400  0.67839300  0.03955150  1
  N  1311  1  0.07565150  0.64996900  0.81551300  1
  N  1313  1  0.05065750  0.30967400  0.09960350  1
  N  1315  1  0.89328600  0.29810200  0.89130900  1
  N  1324  1  0.00375653  0.96926300  0.22598600  1
  N  1331  1  0.91364000  0.00561153  0.74032300  1
  N  1333  1  0.07041350  0.07521350  0.45234600  1
  N  1334  1  0.83725700  0.07881950  0.50286200  1
  N  1343  1  0.03992150  0.94719600  0.67821200  1
  N  1345  1  0.81552500  0.07641550  0.64964300  1
  N  1347  1  0.09873750  0.04978150  0.30860600  1
  N  1349  1  0.89097100  0.89177800  0.29884800  1
  O  10  1  0.18332400  0.39653600  0.70390600  1
  O  11  1  0.50159000  0.33923800  0.76982600  1
  O  12  1  0.34880700  0.15275100  0.54191100  1
  O  22  1  0.82630600  0.55492700  0.67811000  1
  O  23  1  0.55504200  0.67825400  0.82574600  1
  O  24  1  0.67892800  0.82664400  0.55532400  1
  O  34  1  0.76928600  0.50195900  0.34000700  1
  O  35  1  0.54140400  0.34983300  0.15314500  1
  O  36  1  0.70288600  0.18330700  0.39632200  1
  O  46  1  0.15360000  0.54169800  0.34943900  1
  O  47  1  0.39655900  0.70351600  0.18321700  1
  O  48  1  0.34091400  0.76900200  0.50201200  1
  O  1210  1  0.66429200  0.87750400  0.18487350  1
  O  1211  1  0.98255800  0.82020600  0.25079400  1
  O  1212  1  0.82977500  0.63371900  0.02287850  1
  O  1222  1  0.30727400  0.03589450  0.15907750  1
  O  1223  1  0.03600950  0.15922150  0.30671400  1
  O  1224  1  0.15989550  0.30761200  0.03629150  1
  O  1234  1  0.25025400  0.98292700  0.82097500  1
  O  1235  1  0.02237150  0.83080100  0.63411300  1
  O  1236  1  0.18385350  0.66427500  0.87729000  1
  O  1246  1  0.63456800  0.02266550  0.83040700  1
  O  1247  1  0.87752700  0.18448350  0.66418500  1
  O  1248  1  0.82188200  0.24997000  0.98298000  1
