# generated using pymatgen
data_Zn5H72C81(N3O2)6
_symmetry_space_group_name_H-M   'P 1'
_cell_length_a   19.63030000
_cell_length_b   23.87377000
_cell_length_c   38.31973381
_cell_angle_alpha   87.14795104
_cell_angle_beta   75.20831878
_cell_angle_gamma   65.84152000
_symmetry_Int_Tables_number   1
_chemical_formula_structural   Zn5H72C81(N3O2)6
_chemical_formula_sum   'Zn20 H288 C324 N72 O48'
_cell_volume   15812.12299420
_cell_formula_units_Z   4
loop_
 _symmetry_equiv_pos_site_id
 _symmetry_equiv_pos_as_xyz
  1  'x, y, z'
loop_
 _atom_site_type_symbol
 _atom_site_label
 _atom_site_symmetry_multiplicity
 _atom_site_fract_x
 _atom_site_fract_y
 _atom_site_fract_z
 _atom_site_occupancy
  Zn  Zn0  1  0.32391000  0.15849000  0.85788000  1
  Zn  Zn1  1  0.43787000  0.24484000  0.84098000  1
  Zn  Zn2  1  0.61412000  0.16074000  0.86508000  1
  Zn  Zn3  1  0.48163000  0.27554000  0.74715000  1
  Zn  Zn4  1  0.33369000  0.39191000  0.89168000  1
  Zn  Zn5  1  0.16036000  0.65785000  0.35703000  1
  Zn  Zn6  1  0.97580000  0.74498000  0.34087000  1
  Zn  Zn7  1  0.85997000  0.66044000  0.36474000  1
  Zn  Zn8  1  0.99523000  0.77588000  0.24703000  1
  Zn  Zn9  1  0.88445000  0.89219000  0.39154000  1
  Zn  Zn10  1  0.83966000  0.34216000  0.64296000  1
  Zn  Zn11  1  0.02420000  0.25503000  0.65913000  1
  Zn  Zn12  1  0.14003000  0.33956000  0.63526000  1
  Zn  Zn13  1  0.00478000  0.22413000  0.75296000  1
  Zn  Zn14  1  0.11555000  0.10781000  0.60846000  1
  Zn  Zn15  1  0.67611000  0.84151000  0.14211000  1
  Zn  Zn16  1  0.56214000  0.75516000  0.15902000  1
  Zn  Zn17  1  0.38589000  0.83926000  0.13492000  1
  Zn  Zn18  1  0.51839000  0.72446000  0.25284000  1
  Zn  Zn19  1  0.66631000  0.60809000  0.10832000  1
  H  H20  1  0.12856000  0.77334000  0.13719000  1
  H  H21  1  0.78505000  0.12083000  0.80146000  1
  H  H22  1  0.11961000  0.56278000  0.93471000  1
  H  H23  1  0.22860000  0.02195000  0.84834000  1
  H  H24  1  0.32586000  0.58904000  0.92807000  1
  H  H25  1  0.34598000  0.21163000  0.64871000  1
  H  H26  1  0.33633000  0.14056000  0.65263000  1
  H  H27  1  0.25372000  0.21025000  0.66504000  1
  H  H28  1  0.04022000  0.67576000  0.95063000  1
  H  H29  1  0.65200000  0.01195000  0.89329000  1
  H  H30  1  0.61613000  0.89400000  0.93841000  1
  H  H31  1  0.65694000  0.86210000  0.89355000  1
  H  H32  1  0.69301000  0.90949000  0.91041000  1
  H  H33  1  0.24843000  0.70071000  0.94416000  1
  H  H34  1  0.70692000  0.25934000  0.96825000  1
  H  H35  1  0.69139000  0.33784000  0.96424000  1
  H  H36  1  0.64002000  0.31567000  0.00316000  1
  H  H37  1  0.40445000  0.00922000  0.88006000  1
  H  H38  1  0.92514000  0.89900000  0.90373000  1
  H  H39  1  0.15290000  0.88609000  0.98216000  1
  H  H40  1  0.06484000  0.95054000  0.98159000  1
  H  H41  1  0.39676000  0.23403000  0.69319000  1
  H  H42  1  0.88934000  0.86556000  0.13747000  1
  H  H43  1  0.16460000  0.97761000  0.97812000  1
  H  H44  1  0.92579000  0.88148000  0.07210000  1
  H  H45  1  0.16392000  0.78219000  0.97618000  1
  H  H46  1  0.16202000  0.79840000  0.93013000  1
  H  H47  1  0.97227000  0.85708000  0.95136000  1
  H  H48  1  0.03932000  0.87789000  0.91836000  1
  H  H49  1  0.65774000  0.22604000  0.92700000  1
  H  H50  1  0.42434000  0.42895000  0.94824000  1
  H  H51  1  0.20424000  0.11236000  0.74276000  1
  H  H52  1  0.19682000  0.15766000  0.70470000  1
  H  H53  1  0.27439000  0.08491000  0.70055000  1
  H  H54  1  0.17521000  0.94257000  0.86705000  1
  H  H55  1  0.67309000  0.22870000  0.69950000  1
  H  H56  1  0.25925000  0.13176000  0.78586000  1
  H  H57  1  0.16670000  0.78729000  0.07098000  1
  H  H58  1  0.21726000  0.05611000  0.95889000  1
  H  H59  1  0.30322000  0.62196000  0.82456000  1
  H  H60  1  0.37482000  0.62077000  0.78493000  1
  H  H61  1  0.28203000  0.63222000  0.78167000  1
  H  H62  1  0.42990000  0.51787000  0.69752000  1
  H  H63  1  0.34757000  0.58356000  0.72004000  1
  H  H64  1  0.43935000  0.56950000  0.72591000  1
  H  H65  1  0.47431000  0.46584000  0.98696000  1
  H  H66  1  0.52566000  0.40980000  0.01380000  1
  H  H67  1  0.57669000  0.43630000  0.97681000  1
  H  H68  1  0.54731000  0.86005000  0.88873000  1
  H  H69  1  0.48652000  0.89465000  0.93142000  1
  H  H70  1  0.44703000  0.90489000  0.89347000  1
  H  H71  1  0.79837000  0.20136000  0.66153000  1
  H  H72  1  0.87299000  0.19089000  0.68272000  1
  H  H73  1  0.86376000  0.12633000  0.66782000  1
  H  H74  1  0.91173000  0.09265000  0.76395000  1
  H  H75  1  0.92307000  0.07814000  0.71723000  1
  H  H76  1  0.92080000  0.14757000  0.73224000  1
  H  H77  1  0.98841000  0.39856000  0.99939000  1
  H  H78  1  0.02184000  0.45579000  0.98178000  1
  H  H79  1  0.96099000  0.43722000  0.96161000  1
  H  H80  1  0.13978000  0.22447000  0.91060000  1
  H  H81  1  0.14886000  0.42276000  0.94364000  1
  H  H82  1  0.83082000  0.96145000  0.86912000  1
  H  H83  1  0.88607000  0.06456000  0.96117000  1
  H  H84  1  0.78700000  0.12570000  0.92820000  1
  H  H85  1  0.00679000  0.26346000  0.93953000  1
  H  H86  1  0.98998000  0.29884000  0.98247000  1
  H  H87  1  0.95312000  0.34408000  0.94842000  1
  H  H88  1  0.44375000  0.42319000  0.72189000  1
  H  H89  1  0.31656000  0.52613000  0.84731000  1
  H  H90  1  0.97729000  0.90968000  0.01978000  1
  H  H91  1  0.99040000  0.83215000  0.01220000  1
  H  H92  1  0.46062000  0.27244000  0.63712000  1
  H  H93  1  0.79188000  0.62095000  0.30084000  1
  H  H94  1  0.88409000  0.06516000  0.43425000  1
  H  H95  1  0.40104000  0.52178000  0.34780000  1
  H  H96  1  0.65947000  0.08793000  0.42802000  1
  H  H97  1  0.29369000  0.71250000  0.14859000  1
  H  H98  1  0.37044000  0.64165000  0.15261000  1
  H  H99  1  0.37027000  0.71150000  0.16541000  1
  H  H100  1  0.83293000  0.17840000  0.45010000  1
  H  H101  1  0.94210000  0.51188000  0.39295000  1
  H  H102  1  0.04932000  0.39474000  0.43850000  1
  H  H103  1  0.08559000  0.36236000  0.39365000  1
  H  H104  1  0.98555000  0.41005000  0.41018000  1
  H  H105  1  0.60761000  0.20004000  0.44367000  1
  H  H106  1  0.56534000  0.76037000  0.46814000  1
  H  H107  1  0.50711000  0.83895000  0.46415000  1
  H  H108  1  0.54211000  0.81658000  0.50297000  1
  H  H109  1  0.20525000  0.50971000  0.37993000  1
  H  H110  1  0.77047000  0.39909000  0.40387000  1
  H  H111  1  0.47762000  0.38583000  0.48171000  1
  H  H112  1  0.50154000  0.45052000  0.48138000  1
  H  H113  1  0.17566000  0.73432000  0.19286000  1
  H  H114  1  0.60760000  0.36474000  0.63743000  1
  H  H115  1  0.37902000  0.47771000  0.47763000  1
  H  H116  1  0.62036000  0.38086000  0.57211000  1
  H  H117  1  0.57703000  0.28171000  0.47606000  1
  H  H118  1  0.60822000  0.29818000  0.43005000  1
  H  H119  1  0.71747000  0.35769000  0.45185000  1
  H  H120  1  0.66386000  0.37755000  0.41837000  1
  H  H121  1  0.68867000  0.72672000  0.42682000  1
  H  H122  1  0.70084000  0.92895000  0.44780000  1
  H  H123  1  0.43897000  0.61352000  0.24322000  1
  H  H124  1  0.43966000  0.65909000  0.20529000  1
  H  H125  1  0.43960000  0.58606000  0.20067000  1
  H  H126  1  0.51464000  0.44226000  0.36673000  1
  H  H127  1  0.89893000  0.72878000  0.19917000  1
  H  H128  1  0.32194000  0.63185000  0.28572000  1
  H  H129  1  0.47417000  0.28679000  0.57097000  1
  H  H130  1  0.26785000  0.55650000  0.45823000  1
  H  H131  1  0.75030000  0.12214000  0.32474000  1
  H  H132  1  0.71974000  0.12078000  0.28501000  1
  H  H133  1  0.80386000  0.13295000  0.28193000  1
  H  H134  1  0.85427000  0.01864000  0.19754000  1
  H  H135  1  0.84869000  0.08428000  0.22013000  1
  H  H136  1  0.76522000  0.07005000  0.22608000  1
  H  H137  1  0.57525000  0.96635000  0.48643000  1
  H  H138  1  0.55262000  0.91058000  0.51345000  1
  H  H139  1  0.51197000  0.93704000  0.47652000  1
  H  H140  1  0.20230000  0.36053000  0.38848000  1
  H  H141  1  0.18548000  0.39471000  0.43139000  1
  H  H142  1  0.25311000  0.40519000  0.39377000  1
  H  H143  1  0.84037000  0.70056000  0.16076000  1
  H  H144  1  0.75500000  0.68994000  0.18153000  1
  H  H145  1  0.84357000  0.62554000  0.16707000  1
  H  H146  1  0.73217000  0.59190000  0.26299000  1
  H  H147  1  0.78287000  0.57712000  0.21642000  1
  H  H148  1  0.70052000  0.64638000  0.23101000  1
  H  H149  1  0.11470000  0.89766000  0.49950000  1
  H  H150  1  0.04238000  0.95527000  0.48175000  1
  H  H151  1  0.14201000  0.93629000  0.46184000  1
  H  H152  1  0.22574000  0.72416000  0.41019000  1
  H  H153  1  0.98622000  0.92229000  0.44348000  1
  H  H154  1  0.83744000  0.46129000  0.36928000  1
  H  H155  1  0.58768000  0.56497000  0.46118000  1
  H  H156  1  0.65877000  0.62584000  0.42807000  1
  H  H157  1  0.29083000  0.76282000  0.43942000  1
  H  H158  1  0.22964000  0.79809000  0.48238000  1
  H  H159  1  0.25557000  0.84338000  0.44838000  1
  H  H160  1  0.91127000  0.92384000  0.22176000  1
  H  H161  1  0.81137000  0.02658000  0.34725000  1
  H  H162  1  0.59105000  0.41024000  0.51979000  1
  H  H163  1  0.66332000  0.33300000  0.51216000  1
  H  H164  1  0.53939000  0.72756000  0.36288000  1
  H  H165  1  0.20812000  0.37906000  0.69916000  1
  H  H166  1  0.11593000  0.93484000  0.56574000  1
  H  H167  1  0.59898000  0.47822000  0.65219000  1
  H  H168  1  0.34055000  0.91207000  0.57197000  1
  H  H169  1  0.70632000  0.28751000  0.85141000  1
  H  H170  1  0.62957000  0.35835000  0.84739000  1
  H  H171  1  0.62974000  0.28850000  0.83459000  1
  H  H172  1  0.16708000  0.82161000  0.54990000  1
  H  H173  1  0.05790000  0.48812000  0.60705000  1
  H  H174  1  0.95070000  0.60527000  0.56149000  1
  H  H175  1  0.91443000  0.63764000  0.60634000  1
  H  H176  1  0.01447000  0.58995000  0.58981000  1
  H  H177  1  0.39240000  0.79997000  0.55633000  1
  H  H178  1  0.43467000  0.23963000  0.53186000  1
  H  H179  1  0.49289000  0.16106000  0.53585000  1
  H  H180  1  0.45790000  0.18342000  0.49702000  1
  H  H181  1  0.79476000  0.49029000  0.62006000  1
  H  H182  1  0.22954000  0.60091000  0.59613000  1
  H  H183  1  0.52239000  0.61417000  0.51829000  1
  H  H184  1  0.49847000  0.54948000  0.51862000  1
  H  H185  1  0.82434000  0.26568000  0.80714000  1
  H  H186  1  0.39240000  0.63527000  0.36257000  1
  H  H187  1  0.62100000  0.52229000  0.52236000  1
  H  H188  1  0.37965000  0.61915000  0.42789000  1
  H  H189  1  0.42297000  0.71830000  0.52394000  1
  H  H190  1  0.39179000  0.70182000  0.56995000  1
  H  H191  1  0.28254000  0.64232000  0.54814000  1
  H  H192  1  0.33616000  0.62245000  0.58162000  1
  H  H193  1  0.31133000  0.27328000  0.57318000  1
  H  H194  1  0.29916000  0.07106000  0.55220000  1
  H  H195  1  0.56104000  0.38648000  0.75678000  1
  H  H196  1  0.56034000  0.34091000  0.79471000  1
  H  H197  1  0.56041000  0.41395000  0.79932000  1
  H  H198  1  0.48537000  0.55775000  0.63327000  1
  H  H199  1  0.10107000  0.27123000  0.80083000  1
  H  H200  1  0.67808000  0.36816000  0.71427000  1
  H  H201  1  0.52585000  0.71321000  0.42902000  1
  H  H202  1  0.73216000  0.44351000  0.54177000  1
  H  H203  1  0.24970000  0.87787000  0.67526000  1
  H  H204  1  0.28027000  0.87922000  0.71499000  1
  H  H205  1  0.19615000  0.86706000  0.71807000  1
  H  H206  1  0.14574000  0.98136000  0.80246000  1
  H  H207  1  0.15133000  0.91573000  0.77986000  1
  H  H208  1  0.23479000  0.92996000  0.77392000  1
  H  H209  1  0.42477000  0.03365000  0.51356000  1
  H  H210  1  0.44740000  0.08942000  0.48654000  1
  H  H211  1  0.48805000  0.06296000  0.52347000  1
  H  H212  1  0.79772000  0.63947000  0.61151000  1
  H  H213  1  0.81453000  0.60529000  0.56861000  1
  H  H214  1  0.74690000  0.59481000  0.60623000  1
  H  H215  1  0.15964000  0.29944000  0.83923000  1
  H  H216  1  0.24502000  0.31007000  0.81846000  1
  H  H217  1  0.15645000  0.37446000  0.83292000  1
  H  H218  1  0.26784000  0.40810000  0.73701000  1
  H  H219  1  0.21713000  0.42288000  0.78358000  1
  H  H220  1  0.29950000  0.35362000  0.76898000  1
  H  H221  1  0.88531000  0.10234000  0.50050000  1
  H  H222  1  0.95763000  0.04473000  0.51825000  1
  H  H223  1  0.85799000  0.06372000  0.53816000  1
  H  H224  1  0.77427000  0.27585000  0.58981000  1
  H  H225  1  0.01379000  0.07772000  0.55651000  1
  H  H226  1  0.16257000  0.53871000  0.63072000  1
  H  H227  1  0.41233000  0.43503000  0.53882000  1
  H  H228  1  0.34124000  0.37417000  0.57193000  1
  H  H229  1  0.70917000  0.23718000  0.56058000  1
  H  H230  1  0.77038000  0.20191000  0.51761000  1
  H  H231  1  0.74445000  0.15663000  0.55161000  1
  H  H232  1  0.08875000  0.07616000  0.77823000  1
  H  H233  1  0.18864000  0.97343000  0.65274000  1
  H  H234  1  0.40896000  0.58977000  0.48021000  1
  H  H235  1  0.33669000  0.66701000  0.48783000  1
  H  H236  1  0.87144000  0.22666000  0.86281000  1
  H  H237  1  0.21496000  0.87917000  0.19854000  1
  H  H238  1  0.88040000  0.43722000  0.06528000  1
  H  H239  1  0.77142000  0.97805000  0.15165000  1
  H  H240  1  0.67416000  0.41096000  0.07192000  1
  H  H241  1  0.65403000  0.78837000  0.35129000  1
  H  H242  1  0.66369000  0.85944000  0.34736000  1
  H  H243  1  0.74629000  0.78975000  0.33496000  1
  H  H244  1  0.95979000  0.32424000  0.04937000  1
  H  H245  1  0.34801000  0.98805000  0.10671000  1
  H  H246  1  0.38387000  0.10600000  0.06159000  1
  H  H247  1  0.34306000  0.13790000  0.10645000  1
  H  H248  1  0.30700000  0.09051000  0.08959000  1
  H  H249  1  0.75157000  0.29930000  0.05584000  1
  H  H250  1  0.29308000  0.74066000  0.03175000  1
  H  H251  1  0.30862000  0.66216000  0.03576000  1
  H  H252  1  0.36000000  0.68434000  0.99683000  1
  H  H253  1  0.59556000  0.99079000  0.11994000  1
  H  H254  1  0.07488000  0.10101000  0.09626000  1
  H  H255  1  0.84711000  0.11391000  0.01784000  1
  H  H256  1  0.93516000  0.04946000  0.01841000  1
  H  H257  1  0.60326000  0.76598000  0.30680000  1
  H  H258  1  0.11067000  0.13444000  0.86253000  1
  H  H259  1  0.83541000  0.02240000  0.02187000  1
  H  H260  1  0.07421000  0.11853000  0.92790000  1
  H  H261  1  0.83608000  0.21782000  0.02382000  1
  H  H262  1  0.83800000  0.20161000  0.06986000  1
  H  H263  1  0.02774000  0.14292000  0.04864000  1
  H  H264  1  0.96068000  0.12211000  0.08164000  1
  H  H265  1  0.34228000  0.77396000  0.07299000  1
  H  H266  1  0.57567000  0.57105000  0.05176000  1
  H  H267  1  0.79577000  0.88764000  0.25724000  1
  H  H268  1  0.80319000  0.84234000  0.29530000  1
  H  H269  1  0.72562000  0.91509000  0.29945000  1
  H  H270  1  0.82480000  0.05744000  0.13295000  1
  H  H271  1  0.32692000  0.77130000  0.30050000  1
  H  H272  1  0.74075000  0.86824000  0.21414000  1
  H  H273  1  0.83331000  0.21271000  0.92902000  1
  H  H274  1  0.78274000  0.94389000  0.04111000  1
  H  H275  1  0.69680000  0.37804000  0.17543000  1
  H  H276  1  0.62520000  0.37923000  0.21506000  1
  H  H277  1  0.71798000  0.36779000  0.21833000  1
  H  H278  1  0.57012000  0.48214000  0.30247000  1
  H  H279  1  0.65244000  0.41644000  0.27996000  1
  H  H280  1  0.56066000  0.43051000  0.27408000  1
  H  H281  1  0.52569000  0.53416000  0.01304000  1
  H  H282  1  0.47435000  0.59021000  0.98620000  1
  H  H283  1  0.42331000  0.56371000  0.02319000  1
  H  H284  1  0.45271000  0.13996000  0.11126000  1
  H  H285  1  0.51350000  0.10536000  0.06857000  1
  H  H286  1  0.55298000  0.09511000  0.10653000  1
  H  H287  1  0.20164000  0.79865000  0.33847000  1
  H  H288  1  0.12702000  0.80911000  0.31728000  1
  H  H289  1  0.13625000  0.87367000  0.33218000  1
  H  H290  1  0.08827000  0.90736000  0.23605000  1
  H  H291  1  0.07694000  0.92186000  0.28277000  1
  H  H292  1  0.07921000  0.85244000  0.26776000  1
  H  H293  1  0.01160000  0.60145000  0.00061000  1
  H  H294  1  0.97818000  0.54421000  0.01821000  1
  H  H295  1  0.03902000  0.56279000  0.03839000  1
  H  H296  1  0.86023000  0.77553000  0.08940000  1
  H  H297  1  0.85115000  0.57725000  0.05636000  1
  H  H298  1  0.16919000  0.03856000  0.13088000  1
  H  H299  1  0.11393000  0.93544000  0.03883000  1
  H  H300  1  0.21302000  0.87430000  0.07179000  1
  H  H301  1  0.99323000  0.73655000  0.06046000  1
  H  H302  1  0.01003000  0.70116000  0.01753000  1
  H  H303  1  0.04689000  0.65592000  0.05158000  1
  H  H304  1  0.55627000  0.57681000  0.27810000  1
  H  H305  1  0.68345000  0.47387000  0.15269000  1
  H  H306  1  0.02271000  0.09033000  0.98022000  1
  H  H307  1  0.00960000  0.16786000  0.98780000  1
  C  C308  1  0.08485000  0.79680000  0.12262000  1
  C  C309  1  0.76158000  0.14399000  0.77932000  1
  C  C310  1  0.14694000  0.59340000  0.93714000  1
  C  C311  1  0.80184000  0.04712000  0.89702000  1
  C  C312  1  0.21442000  0.01169000  0.87658000  1
  C  C313  1  0.26320000  0.60833000  0.93338000  1
  C  C314  1  0.31465000  0.18686000  0.66556000  1
  C  C315  1  0.10274000  0.65585000  0.94600000  1
  C  C316  1  0.59974000  0.31646000  0.95525000  1
  C  C317  1  0.59808000  0.01155000  0.89120000  1
  C  C318  1  0.64039000  0.90353000  0.91071000  1
  C  C319  1  0.21951000  0.67111000  0.94240000  1
  C  C320  1  0.47274000  0.06269000  0.87678000  1
  C  C321  1  0.66271000  0.30671000  0.97368000  1
  C  C322  1  0.45742000  0.00998000  0.88338000  1
  C  C323  1  0.89566000  0.94851000  0.90904000  1
  C  C324  1  0.16600000  0.95567000  0.92343000  1
  C  C325  1  0.90974000  0.97808000  0.93538000  1
  C  C326  1  0.54860000  0.28137000  0.91483000  1
  C  C327  1  0.10608000  0.90527000  0.96844000  1
  C  C328  1  0.36775000  0.21109000  0.71274000  1
  C  C329  1  0.95000000  0.84874000  0.12276000  1
  C  C330  1  0.06471000  0.86220000  0.97070000  1
  C  C331  1  0.22564000  0.04425000  0.90261000  1
  C  C332  1  0.54223000  0.06342000  0.88040000  1
  C  C333  1  0.17768000  0.98717000  0.94974000  1
  C  C334  1  0.97067000  0.85729000  0.08589000  1
  C  C335  1  0.12682000  0.79754000  0.95738000  1
  C  C336  1  0.13888000  0.69508000  0.94845000  1
  C  C337  1  0.00756000  0.88384000  0.94698000  1
  C  C338  1  0.60774000  0.26999000  0.93211000  1
  C  C339  1  0.32327000  0.18440000  0.70361000  1
  C  C340  1  0.04908000  0.83511000  0.06753000  1
  C  C341  1  0.47414000  0.38497000  0.94451000  1
  C  C342  1  0.33609000  0.17902000  0.77456000  1
  C  C343  1  0.23757000  0.12590000  0.71906000  1
  C  C344  1  0.18485000  0.96779000  0.88679000  1
  C  C345  1  0.69764000  0.20424000  0.72108000  1
  C  C346  1  0.37425000  0.20780000  0.74852000  1
  C  C347  1  0.29024000  0.15249000  0.76559000  1
  C  C348  1  0.98282000  0.80995000  0.18085000  1
  C  C349  1  0.10625000  0.80469000  0.08593000  1
  C  C350  1  0.20749000  0.03112000  0.93904000  1
  C  C351  1  0.00641000  0.81859000  0.14151000  1
  C  C352  1  0.68134000  0.17442000  0.78389000  1
  C  C353  1  0.64976000  0.20369000  0.75521000  1
  C  C354  1  0.32695000  0.60681000  0.79579000  1
  C  C355  1  0.40222000  0.54684000  0.72282000  1
  C  C356  1  0.28467000  0.15479000  0.73007000  1
  C  C357  1  0.38938000  0.50902000  0.75451000  1
  C  C358  1  0.35306000  0.53828000  0.79040000  1
  C  C359  1  0.22790000  0.56886000  0.93041000  1
  C  C360  1  0.53287000  0.37422000  0.96132000  1
  C  C361  1  0.52689000  0.42413000  0.98598000  1
  C  C362  1  0.58271000  0.95967000  0.89832000  1
  C  C363  1  0.51227000  0.95872000  0.89421000  1
  C  C364  1  0.49744000  0.90162000  0.90224000  1
  C  C365  1  0.80916000  0.14421000  0.74564000  1
  C  C366  1  0.77700000  0.17442000  0.71644000  1
  C  C367  1  0.83053000  0.17341000  0.68029000  1
  C  C368  1  0.89554000  0.11380000  0.73958000  1
  C  C369  1  0.36767000  0.44036000  0.81415000  1
  C  C370  1  0.40306000  0.41189000  0.77891000  1
  C  C371  1  0.00934000  0.41788000  0.97440000  1
  C  C372  1  0.14124000  0.26738000  0.91775000  1
  C  C373  1  0.07684000  0.31345000  0.93969000  1
  C  C374  1  0.07980000  0.36967000  0.94966000  1
  C  C375  1  0.14619000  0.38021000  0.93671000  1
  C  C376  1  0.84237000  0.98337000  0.88982000  1
  C  C377  1  0.87174000  0.04223000  0.94183000  1
  C  C378  1  0.81759000  0.07611000  0.92311000  1
  C  C379  1  0.27675000  0.50300000  0.91836000  1
  C  C380  1  0.00311000  0.30433000  0.95315000  1
  C  C381  1  0.74105000  0.08226000  0.87815000  1
  C  C382  1  0.41405000  0.44602000  0.74869000  1
  C  C383  1  0.34222000  0.50423000  0.82015000  1
  C  C384  1  0.02035000  0.86284000  0.01009000  1
  C  C385  1  0.48247000  0.33773000  0.92109000  1
  C  C386  1  0.21067000  0.33394000  0.91378000  1
  C  C387  1  0.20841000  0.27803000  0.90500000  1
  C  C388  1  0.25525000  0.09278000  0.89263000  1
  C  C389  1  0.49551000  0.29588000  0.62256000  1
  C  C390  1  0.81463000  0.64408000  0.27877000  1
  C  C391  1  0.82362000  0.09508000  0.43672000  1
  C  C392  1  0.75326000  0.54710000  0.39697000  1
  C  C393  1  0.39723000  0.51165000  0.37605000  1
  C  C394  1  0.69677000  0.10819000  0.43322000  1
  C  C395  1  0.33256000  0.68782000  0.16559000  1
  C  C396  1  0.79559000  0.15768000  0.44556000  1
  C  C397  1  0.62922000  0.81711000  0.45495000  1
  C  C398  1  0.99834000  0.51171000  0.39103000  1
  C  C399  1  0.04377000  0.40392000  0.41070000  1
  C  C400  1  0.66785000  0.17110000  0.44203000  1
  C  C401  1  0.08715000  0.56288000  0.37660000  1
  C  C402  1  0.55742000  0.80765000  0.47350000  1
  C  C403  1  0.14831000  0.51026000  0.38328000  1
  C  C404  1  0.74535000  0.44862000  0.40914000  1
  C  C405  1  0.45419000  0.45559000  0.42302000  1
  C  C406  1  0.67555000  0.47832000  0.43545000  1
  C  C407  1  0.75566000  0.78164000  0.41449000  1
  C  C408  1  0.51890000  0.40522000  0.46818000  1
  C  C409  1  0.20792000  0.71138000  0.21244000  1
  C  C410  1  0.57845000  0.34785000  0.62269000  1
  C  C411  1  0.60076000  0.36242000  0.47063000  1
  C  C412  1  0.32757000  0.54427000  0.40204000  1
  C  C413  1  0.01335000  0.56356000  0.38022000  1
  C  C414  1  0.38494000  0.48729000  0.44926000  1
  C  C415  1  0.58594000  0.35652000  0.58582000  1
  C  C416  1  0.61705000  0.29762000  0.45730000  1
  C  C417  1  0.71764000  0.19600000  0.44814000  1
  C  C418  1  0.66018000  0.38407000  0.44709000  1
  C  C419  1  0.69037000  0.77052000  0.43179000  1
  C  C420  1  0.28810000  0.68499000  0.20348000  1
  C  C421  1  0.54768000  0.33454000  0.56748000  1
  C  C422  1  0.69789000  0.88520000  0.44418000  1
  C  C423  1  0.20957000  0.67906000  0.27420000  1
  C  C424  1  0.41644000  0.62698000  0.21933000  1
  C  C425  1  0.46013000  0.46766000  0.38636000  1
  C  C426  1  0.87708000  0.70434000  0.22071000  1
  C  C427  1  0.16880000  0.70793000  0.24816000  1
  C  C428  1  0.29072000  0.65271000  0.26540000  1
  C  C429  1  0.52582000  0.30964000  0.68087000  1
  C  C430  1  0.50266000  0.30396000  0.58588000  1
  C  C431  1  0.32230000  0.53134000  0.43847000  1
  C  C432  1  0.53337000  0.31772000  0.64146000  1
  C  C433  1  0.85956000  0.67477000  0.28356000  1
  C  C434  1  0.89077000  0.70408000  0.25497000  1
  C  C435  1  0.77057000  0.10717000  0.29593000  1
  C  C436  1  0.82802000  0.04745000  0.22289000  1
  C  C437  1  0.32962000  0.65540000  0.23001000  1
  C  C438  1  0.84729000  0.00953000  0.25451000  1
  C  C439  1  0.81867000  0.03873000  0.29042000  1
  C  C440  1  0.77454000  0.06954000  0.43027000  1
  C  C441  1  0.63293000  0.87472000  0.46099000  1
  C  C442  1  0.56484000  0.92477000  0.48561000  1
  C  C443  1  0.05821000  0.45992000  0.39824000  1
  C  C444  1  0.13365000  0.45905000  0.39418000  1
  C  C445  1  0.19718000  0.40193000  0.40224000  1
  C  C446  1  0.80124000  0.64390000  0.24494000  1
  C  C447  1  0.83265000  0.67411000  0.21582000  1
  C  C448  1  0.81711000  0.67268000  0.17948000  1
  C  C449  1  0.75190000  0.61298000  0.23864000  1
  C  C450  1  0.87847000  0.94079000  0.31403000  1
  C  C451  1  0.90662000  0.91238000  0.27877000  1
  C  C452  1  0.09983000  0.91717000  0.47447000  1
  C  C453  1  0.17432000  0.76696000  0.41748000  1
  C  C454  1  0.17093000  0.81292000  0.43955000  1
  C  C455  1  0.10205000  0.86913000  0.44959000  1
  C  C456  1  0.03814000  0.87971000  0.43659000  1
  C  C457  1  0.78326000  0.48334000  0.38985000  1
  C  C458  1  0.64342000  0.54248000  0.44181000  1
  C  C459  1  0.68257000  0.57623000  0.42298000  1
  C  C460  1  0.80357000  0.00354000  0.41848000  1
  C  C461  1  0.24029000  0.80369000  0.45307000  1
  C  C462  1  0.79819000  0.58207000  0.37820000  1
  C  C463  1  0.89150000  0.94658000  0.24860000  1
  C  C464  1  0.83420000  0.00464000  0.32011000  1
  C  C465  1  0.60479000  0.36328000  0.51009000  1
  C  C466  1  0.75969000  0.83791000  0.42076000  1
  C  C467  1  0.04268000  0.83350000  0.41356000  1
  C  C468  1  0.10933000  0.77761000  0.40468000  1
  C  C469  1  0.25925000  0.59191000  0.39188000  1
  C  C470  1  0.50450000  0.70412000  0.37743000  1
  C  C471  1  0.18539000  0.35593000  0.72122000  1
  C  C472  1  0.17639000  0.90492000  0.56328000  1
  C  C473  1  0.24675000  0.45290000  0.60303000  1
  C  C474  1  0.60279000  0.48836000  0.62394000  1
  C  C475  1  0.30324000  0.89181000  0.56678000  1
  C  C476  1  0.66745000  0.31219000  0.83441000  1
  C  C477  1  0.20442000  0.84232000  0.55444000  1
  C  C478  1  0.37079000  0.18289000  0.54505000  1
  C  C479  1  0.00167000  0.48830000  0.60897000  1
  C  C480  1  0.95624000  0.59608000  0.58930000  1
  C  C481  1  0.33216000  0.82890000  0.55797000  1
  C  C482  1  0.91286000  0.43712000  0.62340000  1
  C  C483  1  0.44259000  0.19235000  0.52650000  1
  C  C484  1  0.85170000  0.48974000  0.61671000  1
  C  C485  1  0.25465000  0.55139000  0.59086000  1
  C  C486  1  0.54582000  0.54441000  0.57698000  1
  C  C487  1  0.32446000  0.52168000  0.56455000  1
  C  C488  1  0.24435000  0.21837000  0.58551000  1
  C  C489  1  0.48111000  0.59479000  0.53182000  1
  C  C490  1  0.79209000  0.28862000  0.78756000  1
  C  C491  1  0.42156000  0.65216000  0.37731000  1
  C  C492  1  0.39924000  0.63758000  0.52937000  1
  C  C493  1  0.67243000  0.45573000  0.59796000  1
  C  C494  1  0.98667000  0.43644000  0.61977000  1
  C  C495  1  0.61507000  0.51271000  0.55074000  1
  C  C496  1  0.41408000  0.64348000  0.41417000  1
  C  C497  1  0.38296000  0.70238000  0.54270000  1
  C  C498  1  0.28237000  0.80400000  0.55185000  1
  C  C499  1  0.33982000  0.61593000  0.55291000  1
  C  C500  1  0.30964000  0.22948000  0.56821000  1
  C  C501  1  0.71191000  0.31502000  0.79651000  1
  C  C502  1  0.45233000  0.66547000  0.43252000  1
  C  C503  1  0.30213000  0.11480000  0.55581000  1
  C  C504  1  0.79044000  0.32095000  0.72580000  1
  C  C505  1  0.58357000  0.37303000  0.78067000  1
  C  C506  1  0.53989000  0.53234000  0.61363000  1
  C  C507  1  0.12294000  0.29567000  0.77928000  1
  C  C508  1  0.83121000  0.29207000  0.75184000  1
  C  C509  1  0.70929000  0.34730000  0.73459000  1
  C  C510  1  0.47419000  0.69036000  0.31913000  1
  C  C511  1  0.49735000  0.69604000  0.41412000  1
  C  C512  1  0.67771000  0.46867000  0.56153000  1
  C  C513  1  0.46663000  0.68229000  0.35854000  1
  C  C514  1  0.14046000  0.32524000  0.71643000  1
  C  C515  1  0.10925000  0.29592000  0.74502000  1
  C  C516  1  0.22944000  0.89284000  0.70407000  1
  C  C517  1  0.17200000  0.95255000  0.77710000  1
  C  C518  1  0.67038000  0.34461000  0.76999000  1
  C  C519  1  0.15272000  0.99047000  0.74549000  1
  C  C520  1  0.18133000  0.96128000  0.70958000  1
  C  C521  1  0.22548000  0.93046000  0.56972000  1
  C  C522  1  0.36707000  0.12529000  0.53901000  1
  C  C523  1  0.43516000  0.07523000  0.51439000  1
  C  C524  1  0.94181000  0.54008000  0.60175000  1
  C  C525  1  0.86635000  0.54096000  0.60582000  1
  C  C526  1  0.80283000  0.59808000  0.59775000  1
  C  C527  1  0.19877000  0.35610000  0.75506000  1
  C  C528  1  0.16735000  0.32589000  0.78418000  1
  C  C529  1  0.18289000  0.32732000  0.82052000  1
  C  C530  1  0.24812000  0.38703000  0.76135000  1
  C  C531  1  0.12155000  0.05921000  0.68596000  1
  C  C532  1  0.09339000  0.08763000  0.72123000  1
  C  C533  1  0.90018000  0.08284000  0.52553000  1
  C  C534  1  0.82569000  0.23304000  0.58252000  1
  C  C535  1  0.82909000  0.18708000  0.56044000  1
  C  C536  1  0.89797000  0.13087000  0.55040000  1
  C  C537  1  0.96187000  0.12030000  0.56341000  1
  C  C538  1  0.21676000  0.51667000  0.61014000  1
  C  C539  1  0.35659000  0.45752000  0.55819000  1
  C  C540  1  0.31744000  0.42377000  0.57702000  1
  C  C541  1  0.19643000  0.99646000  0.58152000  1
  C  C542  1  0.75972000  0.19632000  0.54693000  1
  C  C543  1  0.20182000  0.41793000  0.62180000  1
  C  C544  1  0.10850000  0.05343000  0.75140000  1
  C  C545  1  0.16581000  0.99536000  0.67989000  1
  C  C546  1  0.39522000  0.63672000  0.48991000  1
  C  C547  1  0.24032000  0.16209000  0.57924000  1
  C  C548  1  0.95733000  0.16650000  0.58644000  1
  C  C549  1  0.89067000  0.22239000  0.59532000  1
  C  C550  1  0.74076000  0.40809000  0.60812000  1
  C  C551  1  0.91516000  0.20320000  0.87737000  1
  C  C552  1  0.23843000  0.85601000  0.22068000  1
  C  C553  1  0.85306000  0.40660000  0.06286000  1
  C  C554  1  0.19817000  0.95288000  0.10297000  1
  C  C555  1  0.78559000  0.98831000  0.12342000  1
  C  C556  1  0.73682000  0.39167000  0.06661000  1
  C  C557  1  0.68535000  0.81315000  0.33444000  1
  C  C558  1  0.89728000  0.34416000  0.05399000  1
  C  C559  1  0.40026000  0.68354000  0.04475000  1
  C  C560  1  0.40194000  0.98845000  0.10879000  1
  C  C561  1  0.35963000  0.09648000  0.08928000  1
  C  C562  1  0.78050000  0.32889000  0.05760000  1
  C  C563  1  0.52727000  0.93732000  0.12322000  1
  C  C564  1  0.33730000  0.69329000  0.02631000  1
  C  C565  1  0.54258000  0.99003000  0.11662000  1
  C  C566  1  0.10434000  0.05149000  0.09096000  1
  C  C567  1  0.83401000  0.04434000  0.07657000  1
  C  C568  1  0.09027000  0.02192000  0.06462000  1
  C  C569  1  0.45141000  0.71863000  0.08516000  1
  C  C570  1  0.89393000  0.09473000  0.03156000  1
  C  C571  1  0.63226000  0.78891000  0.28726000  1
  C  C572  1  0.05002000  0.15126000  0.87723000  1
  C  C573  1  0.93530000  0.13780000  0.02930000  1
  C  C574  1  0.77437000  0.95576000  0.09738000  1
  C  C575  1  0.45778000  0.93658000  0.11960000  1
  C  C576  1  0.82234000  0.01283000  0.05025000  1
  C  C577  1  0.02934000  0.14272000  0.91411000  1
  C  C578  1  0.87320000  0.20247000  0.04261000  1
  C  C579  1  0.86113000  0.30493000  0.05155000  1
  C  C580  1  0.99245000  0.11616000  0.05301000  1
  C  C581  1  0.39227000  0.73001000  0.06789000  1
  C  C582  1  0.67673000  0.81561000  0.29639000  1
  C  C583  1  0.95094000  0.16489000  0.93246000  1
  C  C584  1  0.52587000  0.61503000  0.05548000  1
  C  C585  1  0.66392000  0.82098000  0.22544000  1
  C  C586  1  0.76244000  0.87410000  0.28093000  1
  C  C587  1  0.81517000  0.03221000  0.11320000  1
  C  C588  1  0.30237000  0.79576000  0.27891000  1
  C  C589  1  0.62576000  0.79220000  0.25148000  1
  C  C590  1  0.70976000  0.84752000  0.23441000  1
  C  C591  1  0.01720000  0.19005000  0.81914000  1
  C  C592  1  0.89377000  0.19532000  0.91406000  1
  C  C593  1  0.79251000  0.96888000  0.06096000  1
  C  C594  1  0.99361000  0.18141000  0.85848000  1
  C  C595  1  0.31866000  0.82558000  0.21611000  1
  C  C596  1  0.35025000  0.79632000  0.24479000  1
  C  C597  1  0.67306000  0.39319000  0.20421000  1
  C  C598  1  0.59779000  0.45316000  0.27718000  1
  C  C599  1  0.71534000  0.84521000  0.26993000  1
  C  C600  1  0.61064000  0.49099000  0.24548000  1
  C  C601  1  0.64695000  0.46172000  0.20960000  1
  C  C602  1  0.77210000  0.43115000  0.06959000  1
  C  C603  1  0.46714000  0.62579000  0.03868000  1
  C  C604  1  0.47312000  0.57587000  0.01402000  1
  C  C605  1  0.41729000  0.04034000  0.10168000  1
  C  C606  1  0.48773000  0.04129000  0.10579000  1
  C  C607  1  0.50256000  0.09838000  0.09776000  1
  C  C608  1  0.19086000  0.85579000  0.25435000  1
  C  C609  1  0.22301000  0.82559000  0.28356000  1
  C  C610  1  0.16948000  0.82659000  0.31971000  1
  C  C611  1  0.10447000  0.88620000  0.26042000  1
  C  C612  1  0.63233000  0.55964000  0.18585000  1
  C  C613  1  0.59696000  0.58812000  0.22108000  1
  C  C614  1  0.99066000  0.58213000  0.02560000  1
  C  C615  1  0.85876000  0.73262000  0.08225000  1
  C  C616  1  0.92317000  0.68655000  0.06031000  1
  C  C617  1  0.92021000  0.63033000  0.05033000  1
  C  C618  1  0.85383000  0.61979000  0.06328000  1
  C  C619  1  0.15764000  0.01663000  0.11018000  1
  C  C620  1  0.12827000  0.95777000  0.05816000  1
  C  C621  1  0.18242000  0.92389000  0.07689000  1
  C  C622  1  0.72327000  0.49700000  0.08163000  1
  C  C623  1  0.99690000  0.69568000  0.04685000  1
  C  C624  1  0.25896000  0.91774000  0.12185000  1
  C  C625  1  0.58597000  0.55398000  0.25130000  1
  C  C626  1  0.65780000  0.49577000  0.17984000  1
  C  C627  1  0.97966000  0.13716000  0.98990000  1
  C  C628  1  0.51754000  0.66227000  0.07890000  1
  C  C629  1  0.78933000  0.66606000  0.08622000  1
  C  C630  1  0.79160000  0.72197000  0.09499000  1
  C  C631  1  0.74476000  0.90722000  0.10737000  1
  N  N632  1  0.41285000  0.22919000  0.76564000  1
  N  N633  1  0.39930000  0.21450000  0.80014000  1
  N  N634  1  0.35345000  0.18424000  0.80627000  1
  N  N635  1  0.27876000  0.24336000  0.88252000  1
  N  N636  1  0.32162000  0.27593000  0.87746000  1
  N  N637  1  0.28244000  0.33061000  0.89599000  1
  N  N638  1  0.43710000  0.33395000  0.90026000  1
  N  N639  1  0.47390000  0.27887000  0.88197000  1
  N  N640  1  0.54078000  0.24629000  0.89028000  1
  N  N641  1  0.62051000  0.18350000  0.81326000  1
  N  N642  1  0.55513000  0.21596000  0.80343000  1
  N  N643  1  0.57117000  0.22845000  0.76852000  1
  N  N644  1  0.53945000  0.12048000  0.87175000  1
  N  N645  1  0.47245000  0.15281000  0.86327000  1
  N  N646  1  0.43120000  0.11925000  0.86616000  1
  N  N647  1  0.42360000  0.35024000  0.78223000  1
  N  N648  1  0.40219000  0.34093000  0.81732000  1
  N  N649  1  0.36796000  0.39445000  0.83711000  1
  N  N650  1  0.09182000  0.72920000  0.26526000  1
  N  N651  1  0.08552000  0.71435000  0.29974000  1
  N  N652  1  0.15540000  0.68407000  0.30583000  1
  N  N653  1  0.09596000  0.74305000  0.38208000  1
  N  N654  1  0.02570000  0.77574000  0.37707000  1
  N  N655  1  0.99198000  0.83034000  0.39572000  1
  N  N656  1  0.82960000  0.83416000  0.39995000  1
  N  N657  1  0.86568000  0.77908000  0.38166000  1
  N  N658  1  0.82288000  0.74651000  0.38992000  1
  N  N659  1  0.88162000  0.68395000  0.31306000  1
  N  N660  1  0.92434000  0.71657000  0.30338000  1
  N  N661  1  0.93099000  0.72905000  0.26847000  1
  N  N662  1  0.96804000  0.62053000  0.37141000  1
  N  N663  1  0.01135000  0.65282000  0.36283000  1
  N  N664  1  0.08308000  0.61932000  0.36579000  1
  N  N665  1  0.94410000  0.85070000  0.28207000  1
  N  N666  1  0.93966000  0.84134000  0.31717000  1
  N  N667  1  0.90088000  0.89484000  0.33698000  1
  N  N668  1  0.90819000  0.27080000  0.73474000  1
  N  N669  1  0.91449000  0.28565000  0.70026000  1
  N  N670  1  0.84461000  0.31594000  0.69416000  1
  N  N671  1  0.90405000  0.25695000  0.61792000  1
  N  N672  1  0.97431000  0.22426000  0.62293000  1
  N  N673  1  0.00803000  0.16966000  0.60427000  1
  N  N674  1  0.17042000  0.16584000  0.60004000  1
  N  N675  1  0.13433000  0.22092000  0.61834000  1
  N  N676  1  0.17712000  0.25349000  0.61008000  1
  N  N677  1  0.11838000  0.31605000  0.68694000  1
  N  N678  1  0.07566000  0.28344000  0.69662000  1
  N  N679  1  0.06903000  0.27095000  0.73152000  1
  N  N680  1  0.03198000  0.37948000  0.62858000  1
  N  N681  1  0.98867000  0.34719000  0.63716000  1
  N  N682  1  0.91693000  0.38069000  0.63421000  1
  N  N683  1  0.05591000  0.14930000  0.71793000  1
  N  N684  1  0.06035000  0.15866000  0.68283000  1
  N  N685  1  0.09912000  0.10516000  0.66302000  1
  N  N686  1  0.58716000  0.77081000  0.23436000  1
  N  N687  1  0.60071000  0.78550000  0.19986000  1
  N  N688  1  0.64656000  0.81577000  0.19373000  1
  N  N689  1  0.72126000  0.75664000  0.11747000  1
  N  N690  1  0.67840000  0.72407000  0.12253000  1
  N  N691  1  0.71758000  0.66939000  0.10400000  1
  N  N692  1  0.56292000  0.66605000  0.09973000  1
  N  N693  1  0.52611000  0.72113000  0.11802000  1
  N  N694  1  0.45924000  0.75372000  0.10971000  1
  N  N695  1  0.37951000  0.81650000  0.18673000  1
  N  N696  1  0.44488000  0.78404000  0.19657000  1
  N  N697  1  0.42885000  0.77155000  0.23147000  1
  N  N698  1  0.46055000  0.87952000  0.12825000  1
  N  N699  1  0.52757000  0.84719000  0.13672000  1
  N  N700  1  0.56882000  0.88075000  0.13383000  1
  N  N701  1  0.57640000  0.64976000  0.21777000  1
  N  N702  1  0.59781000  0.65907000  0.18268000  1
  N  N703  1  0.63205000  0.60555000  0.16289000  1
  O  O704  1  0.03955000  0.78133000  0.19615000  1
  O  O705  1  0.91316000  0.82916000  0.19799000  1
  O  O706  1  0.69613000  0.13915000  0.89053000  1
  O  O707  1  0.73132000  0.05786000  0.85261000  1
  O  O708  1  0.27309000  0.10239000  0.85808000  1
  O  O709  1  0.26319000  0.12212000  0.91639000  1
  O  O710  1  0.24212000  0.46725000  0.91659000  1
  O  O711  1  0.34944000  0.48321000  0.90882000  1
  O  O712  1  0.13684000  0.91173000  0.93087000  1
  O  O713  1  0.07604000  0.84116000  0.03131000  1
  O  O714  1  0.09044000  0.75617000  0.95669000  1
  O  O715  1  0.95929000  0.94811000  0.95652000  1
  O  O716  1  0.48243000  0.28102000  0.69625000  1
  O  O717  1  0.55871000  0.32948000  0.69801000  1
  O  O718  1  0.77427000  0.63893000  0.39059000  1
  O  O719  1  0.85771000  0.55756000  0.35267000  1
  O  O720  1  0.26697000  0.60233000  0.35744000  1
  O  O721  1  0.19719000  0.61969000  0.41529000  1
  O  O722  1  0.87655000  0.96866000  0.41495000  1
  O  O723  1  0.75901000  0.98294000  0.41085000  1
  O  O724  1  0.51943000  0.41166000  0.43061000  1
  O  O725  1  0.55010000  0.34106000  0.53131000  1
  O  O726  1  0.69560000  0.25724000  0.45660000  1
  O  O727  1  0.63447000  0.44846000  0.45647000  1
  O  O728  1  0.51758000  0.71898000  0.30375000  1
  O  O729  1  0.44129000  0.67053000  0.30199000  1
  O  O730  1  0.22574000  0.36107000  0.60941000  1
  O  O731  1  0.14231000  0.44244000  0.64732000  1
  O  O732  1  0.73304000  0.39767000  0.64256000  1
  O  O733  1  0.80282000  0.38032000  0.58470000  1
  O  O734  1  0.12346000  0.03135000  0.58505000  1
  O  O735  1  0.24100000  0.01706000  0.58914000  1
  O  O736  1  0.48058000  0.58834000  0.56939000  1
  O  O737  1  0.44991000  0.65894000  0.46868000  1
  O  O738  1  0.30442000  0.74277000  0.54339000  1
  O  O739  1  0.36554000  0.55154000  0.54352000  1
  O  O740  1  0.96046000  0.21867000  0.80385000  1
  O  O741  1  0.08686000  0.17084000  0.80200000  1
  O  O742  1  0.30388000  0.86086000  0.10946000  1
  O  O743  1  0.26868000  0.94214000  0.14739000  1
  O  O744  1  0.72693000  0.89761000  0.14191000  1
  O  O745  1  0.73682000  0.87788000  0.08361000  1
  O  O746  1  0.75790000  0.53275000  0.08340000  1
  O  O747  1  0.65057000  0.51679000  0.09117000  1
  O  O748  1  0.86318000  0.08827000  0.06912000  1
  O  O749  1  0.92398000  0.15884000  0.96868000  1
  O  O750  1  0.90957000  0.24383000  0.04331000  1
  O  O751  1  0.04072000  0.05189000  0.04348000  1
