# generated using pymatgen
data_MnH16C20(NO3)2
_symmetry_space_group_name_H-M   'P 1'
_cell_length_a   9.73170000
_cell_length_b   11.31328000
_cell_length_c   11.80217500
_cell_angle_alpha   90.00049000
_cell_angle_beta   90.00045000
_cell_angle_gamma   84.03073000
_symmetry_Int_Tables_number   1
_chemical_formula_structural   MnH16C20(NO3)2
_chemical_formula_sum   'Mn2 H32 C40 N4 O12'
_cell_volume   1292.34380693
_cell_formula_units_Z   2
loop_
 _symmetry_equiv_pos_site_id
 _symmetry_equiv_pos_as_xyz
  1  'x, y, z'
loop_
 _atom_site_type_symbol
 _atom_site_label
 _atom_site_symmetry_multiplicity
 _atom_site_fract_x
 _atom_site_fract_y
 _atom_site_fract_z
 _atom_site_occupancy
  C  C1  1  0.19305000  0.41560500  0.27431000  1.0
  C  C2  1  0.19268500  0.41144000  0.15646000  1.0
  C  C3  1  0.24998500  0.50000500  0.09397000  1.0
  C  C4  1  0.30729000  0.58857000  0.15646000  1.0
  C  C5  1  0.30693500  0.58440500  0.27431000  1.0
  C  C6  1  0.24999500  0.50000000  0.96862000  1.0
  C  C7  1  0.15623000  0.43923000  0.90633000  1.0
  C  C8  1  0.16045000  0.44076000  0.78846000  1.0
  C  C9  1  0.33953000  0.55925000  0.78847000  1.0
  C  C10  1  0.34375500  0.56077500  0.90633000  1.0
  C  C11  1  0.64996000  0.07376500  0.43816000  1.0
  C  C12  1  0.74999000  0.00001000  0.37910000  1.0
  C  C13  1  0.85002000  0.92624500  0.43816000  1.0
  C  C14  1  0.85170500  0.92695500  0.55708000  1.0
  C  C15  1  0.74999500  0.00000000  0.61432000  1.0
  C  C16  1  0.64828000  0.07305000  0.55709000  1.0
  C  C17  1  0.45844000  0.22358500  0.43007000  1.0
  C  C18  1  0.51985500  0.32793000  0.48681000  1.0
  C  C19  1  0.04153500  0.77642000  0.43005000  1.0
  C  C20  1  0.98012500  0.67207000  0.48678000  1.0
  C  C41  1  0.80693500  0.58440500  0.72568000  1.0
  C  C42  1  0.80730500  0.58857000  0.84353000  1.0
  C  C43  1  0.75000000  0.50000000  0.90602000  1.0
  C  C44  1  0.69269000  0.41144000  0.84353000  1.0
  C  C45  1  0.69304000  0.41561000  0.72568000  1.0
  C  C46  1  0.74999500  0.50000500  0.03137000  1.0
  C  C47  1  0.84375500  0.56078000  0.09365000  1.0
  C  C48  1  0.83954000  0.55924500  0.21153000  1.0
  C  C49  1  0.66045000  0.44076500  0.21153000  1.0
  C  C50  1  0.65622500  0.43923000  0.09365000  1.0
  C  C51  1  0.35002000  0.92624000  0.56183000  1.0
  C  C52  1  0.25000000  0.00000000  0.62089000  1.0
  C  C53  1  0.14996500  0.07376000  0.56184000  1.0
  C  C54  1  0.14828500  0.07305000  0.44292000  1.0
  C  C55  1  0.24999000  0.00000500  0.38568000  1.0
  C  C56  1  0.35170000  0.92695000  0.44291000  1.0
  C  C57  1  0.54153500  0.77641500  0.56990000  1.0
  C  C58  1  0.48009500  0.67208500  0.51316000  1.0
  C  C59  1  0.95845000  0.22358500  0.56994000  1.0
  C  C60  1  0.01985000  0.32793000  0.51318000  1.0
  H  H1  1  0.14550000  0.35032000  0.32448000  1.0
  H  H2  1  0.14817000  0.33885000  0.11437000  1.0
  H  H3  1  0.35180000  0.66116000  0.11438000  1.0
  H  H4  1  0.35448500  0.64969000  0.32448000  1.0
  H  H5  1  0.07875500  0.39221500  0.94852000  1.0
  H  H6  1  0.09080500  0.39293500  0.73795000  1.0
  H  H7  1  0.40917500  0.60707000  0.73796000  1.0
  H  H8  1  0.42122500  0.60779000  0.94852000  1.0
  H  H9  1  0.74998500  0.00001000  0.28708000  1.0
  H  H10  1  0.93030000  0.87261500  0.60442000  1.0
  H  H11  1  0.74999500  0.00000000  0.70646000  1.0
  H  H12  1  0.56968500  0.12739500  0.60443000  1.0
  H  H13  1  0.38494500  0.25900000  0.36484000  1.0
  H  H14  1  0.39829500  0.17835500  0.49237000  1.0
  H  H15  1  0.11503500  0.74103500  0.36481000  1.0
  H  H16  1  0.10167000  0.82164500  0.49236000  1.0
  H  H33  1  0.85448500  0.64969000  0.67551000  1.0
  H  H34  1  0.85182000  0.66115000  0.88562000  1.0
  H  H35  1  0.64818500  0.33885000  0.88561000  1.0
  H  H36  1  0.64549000  0.35032500  0.67550000  1.0
  H  H37  1  0.92122500  0.60779500  0.05148000  1.0
  H  H38  1  0.90918500  0.60706500  0.26203000  1.0
  H  H39  1  0.59080500  0.39294000  0.26203000  1.0
  H  H40  1  0.57875500  0.39222000  0.05147000  1.0
  H  H41  1  0.25000000  0.99999500  0.71292000  1.0
  H  H42  1  0.06968500  0.12739500  0.39558000  1.0
  H  H43  1  0.24999000  0.00000500  0.29354000  1.0
  H  H44  1  0.43030000  0.87261500  0.39556000  1.0
  H  H45  1  0.61502500  0.74096500  0.63512000  1.0
  H  H46  1  0.60170500  0.82164500  0.50761000  1.0
  H  H47  1  0.88495000  0.25899500  0.63516000  1.0
  H  H48  1  0.89830000  0.17835000  0.50763000  1.0
  Mn  Mn1  1  0.24999500  0.49999500  0.53342000  1.0
  Mn  Mn3  1  0.74997500  0.50001500  0.46654000  1.0
  N  N1  1  0.24999500  0.50000000  0.33370000  1.0
  N  N2  1  0.24998500  0.50001000  0.72962000  1.0
  N  N5  1  0.74998000  0.50001500  0.66628000  1.0
  N  N6  1  0.74999500  0.50000000  0.27036000  1.0
  O  O1  1  0.55664500  0.14240500  0.37180000  1.0
  O  O2  1  0.43955000  0.39259500  0.55188000  1.0
  O  O3  1  0.64541000  0.34216500  0.46717000  1.0
  O  O4  1  0.94332500  0.85761500  0.37180000  1.0
  O  O5  1  0.85458000  0.65784000  0.46714000  1.0
  O  O6  1  0.06041500  0.60741000  0.55188000  1.0
  O  O13  1  0.44334000  0.85760000  0.62818000  1.0
  O  O14  1  0.56040500  0.60740500  0.44810000  1.0
  O  O15  1  0.35455000  0.65785000  0.53280000  1.0
  O  O16  1  0.05665500  0.14239000  0.62819000  1.0
  O  O17  1  0.14541000  0.34216000  0.53283000  1.0
  O  O18  1  0.93955500  0.39259500  0.44811000  1.0
