# generated using pymatgen
data_H32C47(N4O3)2
_symmetry_space_group_name_H-M   'P 1'
_cell_length_a   29.55240000
_cell_length_b   44.07930000
_cell_length_c   44.07930000
_cell_angle_alpha   90.00000000
_cell_angle_beta   90.00000000
_cell_angle_gamma   90.00000000
_symmetry_Int_Tables_number   1
_chemical_formula_structural   H32C47(N4O3)2
_chemical_formula_sum   'H256 C376 N64 O48'
_cell_volume   57419.86070813
_cell_formula_units_Z   8
loop_
 _symmetry_equiv_pos_site_id
 _symmetry_equiv_pos_as_xyz
  1  'x, y, z'
loop_
 _atom_site_type_symbol
 _atom_site_label
 _atom_site_symmetry_multiplicity
 _atom_site_fract_x
 _atom_site_fract_y
 _atom_site_fract_z
 _atom_site_occupancy
  H  25  1  0.25108600  0.17840200  0.06551200  1
  H  26  1  0.26792100  0.14821200  0.10972200  1
  H  27  1  0.26829700  0.11695300  0.15880300  1
  H  28  1  0.25274600  0.08563600  0.20261600  1
  H  29  1  0.11424500  0.08339800  0.17952500  1
  H  30  1  0.11134800  0.16273300  0.07824600  1
  H  31  1  0.13128100  0.16641600  0.17857400  1
  H  32  1  0.99224100  0.16545300  0.20023000  1
  H  33  1  0.97735900  0.13295200  0.15720200  1
  H  34  1  0.13547500  0.08439300  0.07933800  1
  H  35  1  0.97850300  0.10016600  0.10921400  1
  H  36  1  0.99583500  0.06874200  0.06600800  1
  H  39  1  0.14791900  0.07653300  0.23362600  1
  H  41  1  0.10734900  0.06365900  0.03246700  1
  H  43  1  0.09595600  0.17490900  0.23237400  1
  H  45  1  0.14124300  0.18086600  0.03032100  1
  H  70  1  0.75361100  0.57998400  0.19513700  1
  H  71  1  0.76951500  0.61026100  0.15065200  1
  H  72  1  0.76921700  0.63967400  0.10047200  1
  H  73  1  0.75275800  0.66946800  0.05575600  1
  H  74  1  0.61295500  0.66386900  0.07455100  1
  H  75  1  0.61360200  0.58537900  0.17693400  1
  H  76  1  0.63508200  0.58320800  0.07691300  1
  H  77  1  0.49528000  0.57386300  0.05948500  1
  H  78  1  0.47832000  0.60655900  0.10186800  1
  H  79  1  0.63328500  0.66666667  0.17460200  1
  H  80  1  0.47753800  0.64148400  0.14845600  1
  H  81  1  0.49296900  0.67468300  0.19072800  1
  H  84  1  0.64848600  0.67366500  0.02156500  1
  H  86  1  0.60179900  0.68207200  0.22429500  1
  H  88  1  0.60658000  0.56666000  0.02790300  1
  H  90  1  0.64954500  0.57487500  0.22970200  1
  H  115  1  0.49396700  0.07250000  0.56468400  1
  H  116  1  0.47921000  0.10315000  0.60895700  1
  H  117  1  0.48104100  0.13497200  0.65766900  1
  H  118  1  0.49864000  0.16647300  0.70097900  1
  H  119  1  0.63680800  0.16596400  0.67677100  1
  H  120  1  0.63448700  0.08600000  0.57590300  1
  H  121  1  0.61866100  0.08348700  0.67635300  1
  H  122  1  0.75937000  0.07974500  0.69227200  1
  H  123  1  0.77256700  0.11232700  0.64909300  1
  H  124  1  0.61088500  0.16507300  0.57736100  1
  H  125  1  0.76918000  0.14602200  0.60156300  1
  H  126  1  0.74983800  0.17743900  0.55871100  1
  H  129  1  0.60476300  0.17472500  0.73100900  1
  H  131  1  0.63696700  0.18192600  0.52836500  1
  H  133  1  0.65342300  0.07187900  0.72732700  1
  H  135  1  0.60219500  0.06859500  0.52797500  1
  H  160  1  0.99965500  0.67804300  0.69092900  1
  H  161  1  0.98073900  0.64632300  0.64824700  1
  H  162  1  0.97781900  0.61305600  0.60051900  1
  H  163  1  0.99139200  0.58117300  0.55687800  1
  H  164  1  0.13177400  0.58369800  0.57407400  1
  H  165  1  0.13881900  0.66497100  0.67341300  1
  H  166  1  0.11257400  0.66557700  0.57383100  1
  H  167  1  0.25024800  0.66567900  0.54848600  1
  H  168  1  0.26855400  0.63464000  0.59196700  1
  H  169  1  0.11633800  0.58564900  0.67472900  1
  H  170  1  0.27114000  0.60296100  0.64075100  1
  H  171  1  0.25701900  0.57193900  0.68483800  1
  H  174  1  0.09676100  0.57475000  0.52228100  1
  H  176  1  0.14844200  0.56645600  0.72167100  1
  H  178  1  0.14316900  0.67361900  0.51952900  1
  H  180  1  0.11203100  0.68257200  0.72213200  1
  H  205  1  0.24416100  0.82412300  0.44120700  1
  H  206  1  0.22790100  0.85698900  0.39881300  1
  H  207  1  0.22798600  0.89121100  0.35155500  1
  H  208  1  0.24438600  0.92340800  0.30865500  1
  H  209  1  0.38421300  0.91609400  0.32662000  1
  H  210  1  0.38421300  0.83304800  0.42451200  1
  H  211  1  0.36384900  0.91383000  0.42691900  1
  H  212  1  0.50396900  0.91923800  0.44471400  1
  H  213  1  0.51961600  0.88925800  0.39996700  1
  H  214  1  0.36249200  0.83593600  0.32420200  1
  H  215  1  0.51889900  0.86049400  0.34928600  1
  H  216  1  0.50199700  0.83118500  0.30431500  1
  H  219  1  0.35338900  0.92893400  0.27597500  1
  H  221  1  0.39686500  0.82705600  0.27106800  1
  H  223  1  0.40048200  0.92371600  0.47971900  1
  H  225  1  0.35448600  0.81689500  0.47370700  1
  H  250  1  0.75039300  0.91677700  0.79857400  1
  H  251  1  0.73181600  0.88564600  0.84193400  1
  H  252  1  0.72899300  0.85367700  0.89054900  1
  H  253  1  0.74311100  0.82187700  0.93409800  1
  H  254  1  0.88384700  0.83500100  0.92369800  1
  H  255  1  0.88793500  0.91640200  0.82415700  1
  H  256  1  0.86759100  0.83509400  0.82279600  1
  H  257  1  0.00790600  0.83186800  0.80549300  1
  H  258  1  0.02215000  0.86233600  0.85012600  1
  H  259  1  0.86237700  0.91520000  0.92376200  1
  H  260  1  0.01988700  0.89239300  0.90003200  1
  H  261  1  0.00158100  0.92306100  0.94379100  1
  H  264  1  0.85119000  0.81637800  0.97104000  1
  H  266  1  0.89513600  0.92734800  0.97646900  1
  H  268  1  0.90505400  0.82631900  0.77016800  1
  H  270  1  0.85755500  0.92411600  0.76989400  1
  H  295  1  0.00071300  0.32143000  0.31442600  1
  H  296  1  0.01812600  0.35137300  0.35871000  1
  H  297  1  0.01902100  0.38235600  0.40813200  1
  H  298  1  0.00381100  0.41344100  0.45217600  1
  H  299  1  0.86508700  0.41558900  0.42970500  1
  H  300  1  0.86112500  0.33654800  0.32841700  1
  H  301  1  0.88545100  0.41458900  0.32930800  1
  H  302  1  0.74572300  0.43022200  0.31645900  1
  H  303  1  0.72874000  0.39904400  0.35994400  1
  H  304  1  0.88237500  0.33318300  0.42885400  1
  H  305  1  0.72822900  0.36673400  0.40845200  1
  H  306  1  0.74380800  0.33479200  0.45179000  1
  H  309  1  0.89965600  0.42180500  0.48378500  1
  H  311  1  0.84876700  0.32549500  0.48276400  1
  H  313  1  0.85639100  0.43432400  0.28203000  1
  H  315  1  0.89008400  0.31900200  0.28023800  1
  H  340  1  0.50030100  0.41715700  0.95128700  1
  H  341  1  0.51829600  0.38546900  0.90819900  1
  H  342  1  0.52047900  0.35336300  0.85950500  1
  H  343  1  0.50582400  0.32215300  0.81558900  1
  H  344  1  0.36526700  0.33516600  0.82694300  1
  H  345  1  0.36235000  0.41642200  0.92658200  1
  H  346  1  0.38090000  0.33459200  0.92793600  1
  H  347  1  0.24019300  0.33168800  0.94397500  1
  H  348  1  0.22707300  0.36271200  0.89957600  1
  H  349  1  0.38848000  0.41492700  0.82719000  1
  H  350  1  0.23042300  0.39273500  0.84977500  1
  H  351  1  0.24971200  0.42311700  0.80601700  1
  H  354  1  0.39711500  0.31721900  0.77935400  1
  H  356  1  0.35666800  0.42665800  0.77421500  1
  H  358  1  0.34148200  0.32549700  0.98044600  1
  H  360  1  0.39325100  0.42539000  0.98058900  1
  H  371  1  0.98779800  0.94587400  0.99960200  1
  H  372  1  0.04487000  0.96977600  0.02776700  1
  H  374  1  0.01636500  0.07621300  0.00981900  1
  H  378  1  0.86613300  0.10298500  0.98957900  1
  H  380  1  0.92158700  0.97997200  0.94210100  1
  H  381  1  0.88653700  0.97802300  0.97433600  1
  H  383  1  0.09579600  0.01497500  0.02858500  1
  H  384  1  0.06032800  0.01619300  0.06033500  1
  H  395  1  0.48936800  0.80517300  0.24936400  1
  H  396  1  0.54731900  0.77917200  0.22398500  1
  H  398  1  0.51530200  0.67427300  0.24746500  1
  H  402  1  0.36332400  0.64907300  0.26344300  1
  H  404  1  0.41556400  0.77372300  0.30534300  1
  H  405  1  0.38543400  0.77672200  0.27103400  1
  H  407  1  0.59629700  0.73207300  0.22593400  1
  H  408  1  0.56205300  0.73176000  0.19349200  1
  H  419  1  0.75470000  0.30423300  0.50334500  1
  H  420  1  0.69530100  0.27834100  0.52720600  1
  H  422  1  0.72543700  0.17373500  0.50199300  1
  H  426  1  0.87772900  0.14734400  0.48769100  1
  H  428  1  0.82853200  0.27341200  0.44729600  1
  H  429  1  0.85857700  0.27511300  0.48174300  1
  H  431  1  0.64545400  0.23066400  0.52085400  1
  H  432  1  0.67488600  0.23184300  0.55530300  1
  H  443  1  0.26378000  0.44665600  0.75140700  1
  H  444  1  0.20697000  0.47150000  0.72385200  1
  H  446  1  0.23958300  0.57747500  0.74175600  1
  H  450  1  0.39056400  0.60200300  0.76164000  1
  H  452  1  0.33266000  0.47957400  0.80843500  1
  H  453  1  0.36641400  0.47717100  0.77561500  1
  H  455  1  0.15755700  0.51716300  0.72285100  1
  H  456  1  0.19356800  0.51862600  0.69137400  1
  H  467  1  0.51111900  0.19554000  0.75256800  1
  H  468  1  0.45366200  0.22117100  0.77869100  1
  H  470  1  0.48676600  0.32654800  0.75798300  1
  H  474  1  0.63803300  0.35113500  0.73926900  1
  H  476  1  0.58193600  0.22683700  0.69566600  1
  H  477  1  0.61461300  0.22510400  0.72902200  1
  H  479  1  0.40448800  0.26773300  0.77719200  1
  H  480  1  0.43867500  0.26826400  0.80961700  1
  H  491  1  0.23763000  0.69473600  0.49736200  1
  H  492  1  0.29670700  0.72046500  0.47293100  1
  H  494  1  0.26745700  0.82525100  0.49827000  1
  H  498  1  0.11595500  0.85200900  0.51406200  1
  H  500  1  0.16416000  0.72590900  0.55380100  1
  H  501  1  0.13453500  0.72406000  0.51921600  1
  H  503  1  0.34705100  0.76735500  0.47717100  1
  H  504  1  0.31461600  0.76763400  0.44392200  1
  H  515  1  0.74127700  0.55461100  0.25122400  1
  H  516  1  0.79802700  0.52955900  0.27862900  1
  H  518  1  0.76555600  0.42377900  0.25981300  1
  H  522  1  0.61442100  0.39897400  0.24039800  1
  H  524  1  0.67255800  0.52207700  0.19419100  1
  H  525  1  0.63821200  0.52441800  0.22675700  1
  H  527  1  0.84726800  0.48336700  0.27860700  1
  H  528  1  0.81241500  0.48280700  0.31069000  1
  H  539  1  0.49214600  0.94570200  0.50013700  1
  H  540  1  0.54879500  0.97185200  0.52657100  1
  H  542  1  0.51189800  0.07696500  0.50747800  1
  H  546  1  0.35966600  0.09952500  0.48959700  1
  H  548  1  0.42012500  0.97679300  0.44398600  1
  H  549  1  0.38728800  0.97393000  0.47720300  1
  H  551  1  0.59628000  0.01897300  0.52590600  1
  H  552  1  0.56195800  0.01895300  0.55827300  1
  H  563  1  0.99649500  0.80467900  0.74953500  1
  H  564  1  0.05467300  0.77881600  0.72431200  1
  H  566  1  0.02261100  0.67386000  0.74712600  1
  H  570  1  0.87016600  0.64869200  0.76211900  1
  H  572  1  0.92377300  0.77314700  0.80561300  1
  H  573  1  0.89232000  0.77602100  0.77180400  1
  H  575  1  0.10374600  0.73148600  0.72812800  1
  H  576  1  0.07223900  0.73211600  0.69450200  1
  H  587  1  0.25115400  0.30360500  0.00042000  1
  H  588  1  0.19497900  0.27749100  0.02729500  1
  H  590  1  0.23239600  0.17237900  0.00886200  1
  H  594  1  0.38482800  0.15019900  0.99097200  1
  H  596  1  0.32181400  0.27244700  0.94396800  1
  H  597  1  0.35610300  0.27542400  0.97653700  1
  H  599  1  0.14776700  0.23015100  0.02647100  1
  H  600  1  0.18143800  0.23076100  0.05912500  1
  H  611  1  0.00290200  0.19627500  0.25223400  1
  H  612  1  0.94541900  0.22234800  0.27786700  1
  H  614  1  0.98052000  0.32738700  0.25734500  1
  H  618  1  0.13289400  0.35094400  0.24048000  1
  H  620  1  0.07442500  0.22689100  0.19582300  1
  H  621  1  0.10757700  0.22511300  0.22898300  1
  H  623  1  0.89720700  0.26995000  0.27466400  1
  H  624  1  0.92884500  0.26884500  0.30820600  1
  H  635  1  0.73970300  0.69497000  0.99980900  1
  H  636  1  0.79587100  0.72058000  0.97240100  1
  H  638  1  0.76071000  0.82608500  0.99101300  1
  H  642  1  0.60939600  0.84947500  0.01058800  1
  H  644  1  0.66951900  0.72696900  0.05660700  1
  H  645  1  0.63594200  0.72398100  0.02373700  1
  H  647  1  0.84394900  0.76677900  0.97123500  1
  H  648  1  0.80755600  0.76807400  0.93992800  1
  H  659  1  0.48755100  0.44564600  0.00280200  1
  H  660  1  0.54669700  0.47086900  0.02764800  1
  H  662  1  0.51929500  0.57596100  0.00264600  1
  H  666  1  0.36815600  0.60349400  0.98596800  1
  H  668  1  0.41589200  0.47733900  0.94584200  1
  H  669  1  0.38517400  0.47591200  0.98002400  1
  H  671  1  0.59784700  0.51741700  0.02346300  1
  H  672  1  0.56549400  0.51768500  0.05674200  1
  H  683  1  0.76270300  0.94655700  0.74849100  1
  H  684  1  0.70387900  0.97316300  0.72472500  1
  H  686  1  0.73682400  0.07745100  0.75030400  1
  H  690  1  0.88926100  0.10231600  0.76514300  1
  H  692  1  0.83898800  0.97658000  0.80403400  1
  H  693  1  0.86713400  0.97442000  0.76891800  1
  H  695  1  0.65518200  0.02129600  0.72877200  1
  H  696  1  0.68789000  0.02051500  0.69560000  1
  H  707  1  0.24255500  0.05422200  0.25342500  1
  H  708  1  0.30167500  0.02756900  0.27680500  1
  H  710  1  0.26882800  0.92344900  0.25091600  1
  H  714  1  0.11615000  0.89815600  0.23711600  1
  H  716  1  0.16621700  0.02439300  0.19819200  1
  H  717  1  0.13757500  0.02626200  0.23315200  1
  H  719  1  0.35018100  0.97890800  0.27120400  1
  H  720  1  0.31971400  0.98069300  0.30525900  1
  H  731  1  0.99405800  0.44622900  0.50233500  1
  H  732  1  0.05258400  0.47425400  0.52478300  1
  H  734  1  0.01431000  0.57743400  0.49840800  1
  H  738  1  0.86050900  0.60004800  0.48624100  1
  H  740  1  0.91422700  0.47417700  0.44823000  1
  H  741  1  0.88722800  0.47180800  0.48374100  1
  H  743  1  0.09853100  0.52428000  0.51879900  1
  H  744  1  0.06855900  0.52156900  0.55301900  1
  C  1  1  0.09225400  0.10502600  0.11138100  1
  C  2  1  0.04704100  0.11015000  0.11938800  1
  C  3  1  0.04576100  0.13135500  0.14271000  1
  C  4  1  0.08996000  0.14126100  0.14848000  1
  C  5  1  0.09868600  0.16084800  0.17313300  1
  C  6  1  0.06274100  0.16960000  0.19242600  1
  C  7  1  0.01821800  0.15980800  0.18598000  1
  C  8  1  0.00931600  0.14103900  0.16082500  1
  C  9  1  0.01148400  0.09596200  0.10364100  1
  C  10  1  0.02184700  0.07773200  0.07835600  1
  C  11  1  0.06720500  0.07320700  0.06902100  1
  C  12  1  0.10259600  0.08646000  0.08624600  1
  C  13  1  0.15416300  0.14314200  0.11119400  1
  C  14  1  0.19926600  0.13838300  0.11970100  1
  C  15  1  0.20021100  0.11783300  0.14360800  1
  C  16  1  0.15600000  0.10776500  0.14909400  1
  C  17  1  0.23633400  0.10884400  0.16236400  1
  C  18  1  0.22703900  0.09077000  0.18796300  1
  C  19  1  0.18246100  0.08098100  0.19423600  1
  C  20  1  0.14691400  0.08895600  0.17427600  1
  C  21  1  0.14410200  0.16097400  0.08550000  1
  C  22  1  0.17971500  0.17381600  0.06821800  1
  C  23  1  0.22495700  0.16969900  0.07795500  1
  C  24  1  0.23501100  0.15222100  0.10382400  1
  C  37  1  0.12310500  0.12426900  0.12972000  1
  C  46  1  0.59131300  0.64314000  0.14373500  1
  C  47  1  0.54655100  0.63528600  0.13683300  1
  C  48  1  0.54696400  0.61343700  0.11408700  1
  C  49  1  0.59199300  0.60607800  0.10751300  1
  C  50  1  0.60209000  0.58671300  0.08296000  1
  C  51  1  0.56661100  0.57496800  0.06483100  1
  C  52  1  0.52124000  0.58166700  0.07265200  1
  C  53  1  0.51110900  0.60068500  0.09741500  1
  C  54  1  0.51009400  0.64777700  0.15310700  1
  C  55  1  0.51933500  0.66704300  0.17782500  1
  C  56  1  0.56439800  0.67430000  0.18591400  1
  C  57  1  0.60051000  0.66273000  0.16827400  1
  C  58  1  0.65580500  0.60757900  0.14513100  1
  C  59  1  0.70063000  0.61504800  0.13797800  1
  C  60  1  0.70048800  0.63495500  0.11353900  1
  C  61  1  0.65555800  0.64222200  0.10647900  1
  C  62  1  0.73659300  0.64577000  0.09576800  1
  C  63  1  0.72679700  0.66291200  0.06962900  1
  C  64  1  0.68161000  0.67001900  0.06187600  1
  C  65  1  0.64582200  0.66015500  0.08077100  1
  C  66  1  0.64638800  0.58931900  0.17066600  1
  C  67  1  0.68240500  0.57934400  0.18932500  1
  C  68  1  0.72747700  0.58669200  0.18148600  1
  C  69  1  0.73693900  0.60419000  0.15553200  1
  C  82  1  0.62367500  0.62474900  0.12575700  1
  C  91  1  0.65564200  0.14392100  0.60806700  1
  C  92  1  0.70115100  0.13779000  0.61444900  1
  C  93  1  0.70316100  0.11636300  0.63756000  1
  C  94  1  0.65895800  0.10759100  0.64492100  1
  C  95  1  0.65110800  0.08804500  0.66970800  1
  C  96  1  0.68801900  0.07795000  0.68745600  1
  C  97  1  0.73254600  0.08634400  0.67920500  1
  C  98  1  0.74045400  0.10525500  0.65400000  1
  C  99  1  0.73602800  0.15102400  0.59723700  1
  C  100  1  0.72449300  0.16929200  0.57219100  1
  C  101  1  0.67867900  0.17471200  0.56451800  1
  C  102  1  0.64414700  0.16251300  0.58320300  1
  C  103  1  0.59310900  0.10657900  0.60909500  1
  C  104  1  0.54841200  0.11199900  0.61813300  1
  C  105  1  0.54881500  0.13259800  0.64200400  1
  C  106  1  0.59352900  0.14185000  0.64709200  1
  C  107  1  0.51343000  0.14240700  0.66096500  1
  C  108  1  0.52390000  0.16063600  0.68624200  1
  C  109  1  0.56895600  0.16973000  0.69202900  1
  C  110  1  0.60385000  0.16082500  0.67193400  1
  C  111  1  0.60197200  0.08837300  0.58346200  1
  C  112  1  0.56552400  0.07597100  0.56668300  1
  C  113  1  0.52065800  0.08091000  0.57679600  1
  C  114  1  0.51182700  0.09870800  0.60265000  1
  C  127  1  0.62529300  0.12507300  0.62712600  1
  C  136  1  0.15725600  0.60650900  0.64145500  1
  C  137  1  0.20182500  0.61200300  0.63217400  1
  C  138  1  0.20110000  0.63257500  0.60827400  1
  C  139  1  0.15630900  0.64177900  0.60344400  1
  C  140  1  0.14562600  0.66056100  0.57851800  1
  C  141  1  0.18013700  0.66922500  0.55801700  1
  C  142  1  0.22527600  0.66015700  0.56355900  1
  C  143  1  0.23618300  0.64223500  0.58897700  1
  C  144  1  0.23861500  0.59852800  0.64727200  1
  C  145  1  0.23014300  0.58053300  0.67304100  1
  C  146  1  0.18543400  0.57552400  0.68345200  1
  C  147  1  0.14876300  0.58815300  0.66704000  1
  C  148  1  0.09437800  0.64373700  0.64255100  1
  C  149  1  0.04890700  0.63765900  0.63597800  1
  C  150  1  0.04702500  0.61628200  0.61282500  1
  C  151  1  0.09124400  0.60729400  0.60575300  1
  C  152  1  0.00988100  0.60570100  0.59588500  1
  C  153  1  0.01800500  0.58721400  0.57040100  1
  C  154  1  0.06256200  0.57866800  0.56242200  1
  C  155  1  0.09927400  0.58814900  0.58067800  1
  C  156  1  0.10561800  0.66238300  0.66742600  1
  C  157  1  0.07089300  0.67490600  0.68573200  1
  C  158  1  0.02515700  0.66967000  0.67772100  1
  C  159  1  0.01386200  0.65125500  0.65274300  1
  C  172  1  0.12481000  0.62490700  0.62353700  1
  C  181  1  0.40538800  0.85735400  0.35610600  1
  C  182  1  0.45035900  0.86471100  0.36294600  1
  C  183  1  0.45066400  0.88453000  0.38746700  1
  C  184  1  0.40587600  0.89189900  0.39482900  1
  C  185  1  0.39659700  0.90991200  0.42055100  1
  C  186  1  0.43272300  0.91983000  0.43913100  1
  C  187  1  0.47776200  0.91262500  0.43108200  1
  C  188  1  0.48707700  0.89532200  0.40496500  1
  C  189  1  0.48625500  0.85433900  0.34471900  1
  C  190  1  0.47621200  0.83741100  0.31847800  1
  C  191  1  0.43096700  0.83020100  0.31095700  1
  C  192  1  0.39542000  0.83966800  0.33026800  1
  C  193  1  0.34163700  0.85615400  0.39375400  1
  C  194  1  0.29673500  0.86371800  0.38699800  1
  C  195  1  0.29671400  0.88546500  0.36414300  1
  C  196  1  0.34159700  0.89329800  0.35760300  1
  C  197  1  0.26061600  0.89755700  0.34721300  1
  C  198  1  0.27039100  0.91630900  0.32218500  1
  C  199  1  0.31562300  0.92349800  0.31450100  1
  C  200  1  0.35132200  0.91254300  0.33288400  1
  C  201  1  0.35131800  0.83671900  0.41832300  1
  C  202  1  0.31555100  0.82500300  0.43620700  1
  C  203  1  0.27032100  0.83190900  0.42820300  1
  C  204  1  0.26060200  0.85102500  0.40344100  1
  C  217  1  0.37362800  0.87467700  0.37561600  1
  C  226  1  0.90630900  0.89322800  0.89288600  1
  C  227  1  0.95161200  0.88636100  0.88646800  1
  C  228  1  0.95298900  0.86593000  0.86246800  1
  C  229  1  0.90855600  0.85789000  0.85491100  1
  C  230  1  0.90013700  0.83929800  0.82945000  1
  C  231  1  0.93670200  0.83001300  0.81094700  1
  C  232  1  0.98140600  0.83800000  0.81909600  1
  C  233  1  0.98990300  0.85558500  0.84515800  1
  C  234  1  0.98697900  0.89811000  0.90430100  1
  C  235  1  0.97610400  0.91581700  0.92986200  1
  C  236  1  0.93055700  0.92255500  0.93701500  1
  C  237  1  0.89548400  0.91170400  0.91801100  1
  C  238  1  0.84399600  0.89279500  0.85375600  1
  C  239  1  0.79915400  0.88358400  0.85843400  1
  C  240  1  0.79834500  0.86252700  0.88189800  1
  C  241  1  0.84291300  0.85661900  0.89090000  1
  C  242  1  0.76151500  0.84896500  0.89687600  1
  C  243  1  0.76998200  0.83049600  0.92231200  1
  C  244  1  0.81471600  0.82512400  0.93247100  1
  C  245  1  0.85140600  0.83778900  0.91613700  1
  C  246  1  0.85482100  0.91168300  0.82894400  1
  C  247  1  0.82044500  0.92027700  0.80831300  1
  C  248  1  0.77524700  0.91128600  0.81374200  1
  C  249  1  0.76418200  0.89330700  0.83908500  1
  C  262  1  0.87542500  0.87527000  0.87331600  1
  C  271  1  0.84057500  0.35798900  0.39881300  1
  C  272  1  0.79633800  0.36798900  0.39333200  1
  C  273  1  0.79735700  0.38906700  0.36987900  1
  C  274  1  0.84249000  0.39412100  0.36162500  1
  C  275  1  0.85263500  0.41254300  0.33635700  1
  C  276  1  0.81710500  0.42574600  0.31925200  1
  C  277  1  0.77182200  0.42130400  0.32877800  1
  C  278  1  0.76167100  0.40317500  0.35418000  1
  C  279  1  0.76022300  0.35863300  0.41191200  1
  C  280  1  0.76951100  0.34012300  0.43720500  1
  C  281  1  0.81411000  0.33030700  0.44337600  1
  C  282  1  0.84967100  0.33858700  0.42355200  1
  C  283  1  0.90437300  0.35605300  0.36114000  1
  C  284  1  0.94959500  0.36094900  0.36928400  1
  C  285  1  0.95079300  0.38144400  0.39324300  1
  C  286  1  0.90662700  0.39145600  0.39898300  1
  C  287  1  0.98708100  0.39043200  0.41186000  1
  C  288  1  0.97799500  0.40838900  0.43758100  1
  C  289  1  0.93344000  0.41805500  0.44411700  1
  C  290  1  0.89773800  0.41019400  0.42424600  1
  C  291  1  0.89399200  0.33832000  0.33543800  1
  C  292  1  0.92936600  0.32573300  0.31775400  1
  C  293  1  0.97475000  0.32993200  0.32715600  1
  C  294  1  0.98514200  0.34725600  0.35307700  1
  C  307  1  0.87352000  0.37490400  0.37982900  1
  C  316  1  0.34386700  0.39329100  0.85785500  1
  C  317  1  0.29840700  0.38666900  0.86398100  1
  C  318  1  0.29650300  0.36613100  0.88786300  1
  C  319  1  0.34073400  0.35775900  0.89563100  1
  C  320  1  0.34851300  0.33908200  0.92111600  1
  C  321  1  0.31149200  0.32967600  0.93913600  1
  C  322  1  0.26701400  0.33790000  0.93069000  1
  C  323  1  0.25916700  0.35580400  0.90476400  1
  C  324  1  0.26343200  0.39839300  0.84578600  1
  C  325  1  0.27488300  0.41591600  0.82021400  1
  C  326  1  0.32060100  0.42247000  0.81340200  1
  C  327  1  0.35525400  0.41164000  0.83275300  1
  C  328  1  0.40591600  0.39232200  0.89710500  1
  C  329  1  0.45066700  0.38299400  0.89227800  1
  C  330  1  0.45124300  0.36206500  0.86868400  1
  C  331  1  0.40656900  0.35629600  0.85982500  1
  C  332  1  0.48788300  0.34867800  0.85333400  1
  C  333  1  0.47910800  0.33054900  0.82769200  1
  C  334  1  0.43424900  0.32529300  0.81771900  1
  C  335  1  0.39777500  0.33769800  0.83446600  1
  C  336  1  0.39537600  0.41139200  0.92182900  1
  C  337  1  0.43006300  0.42039200  0.94204000  1
  C  338  1  0.47518700  0.41131500  0.93644300  1
  C  339  1  0.48589600  0.39298000  0.91128200  1
  C  352  1  0.37428100  0.37504600  0.87748400  1
  C  361  1  0.95559400  0.98597700  0.98380300  1
  C  362  1  0.95836900  0.01802100  0.98565700  1
  C  363  1  0.99359100  0.03324000  0.00197100  1
  C  364  1  0.02639000  0.01546500  0.01814300  1
  C  365  1  0.02232300  0.98344000  0.01655200  1
  C  366  1  0.98831900  0.96905000  0.99974700  1
  C  368  1  0.96008500  0.08083100  0.98634900  1
  C  369  1  0.92486200  0.06555700  0.97127100  1
  C  375  1  0.88985700  0.08052400  0.95660500  1
  C  379  1  0.91940100  0.97107600  0.96524600  1
  C  382  1  0.06528200  0.02584000  0.03766300  1
  C  385  1  0.45461000  0.76629600  0.26582300  1
  C  386  1  0.45632900  0.73416900  0.26550100  1
  C  387  1  0.49225100  0.71774000  0.25120400  1
  C  388  1  0.52640400  0.73428100  0.23499000  1
  C  389  1  0.52366300  0.76639300  0.23521500  1
  C  390  1  0.48915500  0.78201500  0.25036000  1
  C  392  1  0.45673800  0.67141900  0.26854500  1
  C  393  1  0.42055100  0.68780800  0.28123400  1
  C  399  1  0.38419200  0.67397100  0.29552800  1
  C  403  1  0.41738100  0.78255300  0.28215000  1
  C  406  1  0.56526000  0.72236100  0.21640800  1
  C  409  1  0.78912400  0.26535600  0.48653900  1
  C  410  1  0.78673500  0.23324800  0.48621400  1
  C  411  1  0.75000400  0.21691800  0.49967600  1
  C  412  1  0.71574200  0.23345900  0.51576300  1
  C  413  1  0.71919000  0.26553500  0.51623300  1
  C  414  1  0.75454100  0.28109800  0.50194300  1
  C  416  1  0.78469100  0.17060000  0.48167200  1
  C  417  1  0.82171000  0.18683200  0.46987500  1
  C  423  1  0.85812700  0.17287900  0.45575300  1
  C  427  1  0.82683700  0.28161000  0.47072200  1
  C  430  1  0.67517400  0.22159000  0.53264200  1
  C  433  1  0.29739500  0.48621600  0.76727100  1
  C  434  1  0.29559000  0.51830200  0.76562900  1
  C  435  1  0.26067400  0.53410300  0.74958500  1
  C  436  1  0.22702100  0.51686400  0.73361800  1
  C  437  1  0.23006000  0.48478300  0.73502900  1
  C  438  1  0.26389200  0.46983500  0.75148600  1
  C  440  1  0.29609000  0.58112000  0.76508600  1
  C  441  1  0.33088400  0.56526000  0.77999800  1
  C  447  1  0.36651900  0.57963700  0.79457900  1
  C  451  1  0.33366300  0.47071000  0.78523900  1
  C  454  1  0.18845200  0.52788000  0.71419400  1
  C  457  1  0.54546500  0.23461300  0.73616600  1
  C  458  1  0.54377000  0.26673500  0.73693700  1
  C  459  1  0.50843600  0.28299700  0.75208000  1
  C  460  1  0.47437100  0.26622700  0.76815100  1
  C  461  1  0.47716900  0.23412100  0.76751200  1
  C  462  1  0.51139300  0.21870600  0.75189700  1
  C  464  1  0.54410500  0.32954400  0.73547400  1
  C  465  1  0.57941800  0.31327200  0.72159000  1
  C  471  1  0.61537800  0.32724200  0.70696600  1
  C  475  1  0.58211900  0.21854300  0.71908300  1
  C  478  1  0.43528800  0.27777600  0.78675400  1
  C  481  1  0.20396700  0.73369800  0.51462400  1
  C  482  1  0.20657300  0.76579900  0.51492600  1
  C  483  1  0.24307100  0.78204200  0.50107600  1
  C  484  1  0.27691700  0.76539500  0.48469400  1
  C  485  1  0.27326900  0.73332500  0.48427200  1
  C  486  1  0.23812800  0.71786000  0.49890700  1
  C  488  1  0.20876000  0.82846800  0.51918000  1
  C  489  1  0.17199000  0.81230600  0.53140500  1
  C  495  1  0.13588600  0.82634000  0.54580500  1
  C  499  1  0.16612000  0.71756800  0.53043700  1
  C  502  1  0.31663900  0.77715300  0.46685600  1
  C  505  1  0.70717800  0.51517600  0.23548900  1
  C  506  1  0.70888300  0.48307900  0.23698400  1
  C  507  1  0.74393000  0.46716200  0.25278500  1
  C  508  1  0.77763900  0.48427000  0.26883600  1
  C  509  1  0.77474300  0.51636000  0.26753100  1
  C  510  1  0.74090400  0.53143300  0.25119500  1
  C  512  1  0.70865700  0.42025600  0.23684300  1
  C  513  1  0.67360700  0.43621100  0.22229900  1
  C  519  1  0.63791800  0.42192300  0.20768500  1
  C  523  1  0.67116400  0.53083400  0.21742000  1
  C  526  1  0.81646900  0.47311700  0.28795400  1
  C  529  1  0.45615600  0.98446800  0.48461000  1
  C  530  1  0.45673500  0.01659100  0.48585400  1
  C  531  1  0.49164900  0.03318000  0.50107800  1
  C  532  1  0.52642400  0.01671800  0.51678200  1
  C  533  1  0.52472600  0.98458800  0.51568600  1
  C  534  1  0.49095500  0.96886700  0.49992600  1
  C  536  1  0.45426400  0.07939000  0.48524100  1
  C  537  1  0.41939400  0.06277000  0.47126400  1
  C  543  1  0.38287300  0.07638000  0.45692800  1
  C  547  1  0.42008400  0.96809500  0.46725500  1
  C  550  1  0.56520000  0.02861500  0.53546600  1
  C  553  1  0.96148900  0.76571700  0.76559200  1
  C  554  1  0.96318100  0.73359300  0.76508200  1
  C  555  1  0.99928600  0.71724800  0.75089600  1
  C  556  1  0.03363200  0.73385900  0.73495000  1
  C  557  1  0.03076500  0.76596700  0.73522000  1
  C  558  1  0.99610200  0.78150900  0.75027200  1
  C  560  1  0.96375900  0.67083800  0.76793600  1
  C  561  1  0.92738000  0.68714300  0.78049500  1
  C  567  1  0.89086900  0.67321800  0.79453600  1
  C  571  1  0.92465300  0.78191100  0.78237600  1
  C  574  1  0.07348600  0.72208200  0.71724300  1
  C  577  1  0.28745400  0.26484100  0.98518500  1
  C  578  1  0.28715700  0.23272800  0.98672300  1
  C  579  1  0.25244000  0.21615300  0.00216400  1
  C  580  1  0.21762700  0.23261700  0.01782400  1
  C  581  1  0.21913800  0.26474300  0.01651400  1
  C  582  1  0.25266300  0.28044700  0.00051000  1
  C  584  1  0.29000700  0.16993900  0.98655800  1
  C  585  1  0.32472700  0.18655400  0.97239900  1
  C  591  1  0.36130100  0.17294100  0.95812200  1
  C  595  1  0.32287500  0.28118200  0.96721300  1
  C  598  1  0.17874000  0.22075400  0.03643100  1
  C  601  1  0.03853200  0.23508100  0.23641200  1
  C  602  1  0.03745100  0.26721400  0.23724900  1
  C  603  1  0.00202800  0.28373600  0.25201400  1
  C  604  1  0.96733300  0.26724300  0.26774900  1
  C  605  1  0.96953900  0.23511700  0.26707100  1
  C  606  1  0.00380700  0.21944000  0.25176600  1
  C  608  1  0.03864000  0.33001200  0.23562300  1
  C  609  1  0.07411200  0.31348900  0.22221000  1
  C  615  1  0.11060800  0.32721000  0.20794800  1
  C  619  1  0.07484800  0.21872100  0.21927900  1
  C  622  1  0.92763400  0.27909900  0.28556200  1
  C  625  1  0.70475800  0.73407000  0.01556600  1
  C  626  1  0.70573000  0.76617800  0.01407600  1
  C  627  1  0.74040000  0.78244600  0.99826800  1
  C  628  1  0.77453300  0.76565600  0.98227200  1
  C  629  1  0.77237400  0.73354300  0.98357000  1
  C  630  1  0.73888100  0.71814400  0.99990600  1
  C  632  1  0.70385500  0.82898700  0.01404400  1
  C  633  1  0.66924200  0.81266900  0.02864700  1
  C  639  1  0.63320800  0.82658500  0.04324200  1
  C  643  1  0.66887600  0.71805800  0.03342000  1
  C  646  1  0.81268900  0.77718700  0.96280300  1
  C  649  1  0.45470400  0.48489800  0.98548200  1
  C  650  1  0.45781700  0.51697900  0.98529600  1
  C  651  1  0.49435900  0.53292300  0.99944100  1
  C  652  1  0.52774700  0.51597900  0.01594400  1
  C  653  1  0.52357500  0.48393900  0.01625400  1
  C  654  1  0.48838300  0.46877300  0.00137300  1
  C  656  1  0.46099500  0.57964100  0.98130100  1
  C  657  1  0.42420600  0.56377000  0.96873100  1
  C  663  1  0.38853400  0.57809400  0.95413900  1
  C  667  1  0.41695100  0.46908400  0.96926400  1
  C  670  1  0.56761200  0.52736500  0.03387900  1
  C  673  1  0.79790800  0.98499400  0.76555400  1
  C  674  1  0.79626000  0.01711700  0.76603200  1
  C  675  1  0.76001600  0.03390200  0.75255200  1
  C  676  1  0.72539000  0.01776100  0.73638600  1
  C  677  1  0.72789000  0.98565200  0.73595000  1
  C  678  1  0.76287900  0.96967000  0.75018400  1
  C  680  1  0.79600300  0.07977600  0.77063300  1
  C  681  1  0.83249400  0.06307200  0.78248700  1
  C  687  1  0.86916500  0.07655400  0.79676300  1
  C  691  1  0.83582400  0.96832700  0.78069500  1
  C  694  1  0.68621200  0.03017700  0.71848200  1
  C  697  1  0.20689800  0.01579400  0.23674600  1
  C  698  1  0.20855800  0.98367000  0.23618300  1
  C  699  1  0.24508400  0.96688400  0.24931600  1
  C  700  1  0.27988000  0.98298700  0.26534000  1
  C  701  1  0.27739100  0.01509400  0.26583900  1
  C  702  1  0.24219800  0.03110000  0.25185700  1
  C  704  1  0.20919300  0.92104600  0.23110400  1
  C  705  1  0.17235800  0.93772300  0.21968400  1
  C  711  1  0.13555400  0.92423400  0.20556300  1
  C  715  1  0.16901300  0.03249500  0.22160500  1
  C  718  1  0.31968400  0.97051400  0.28257000  1
  C  721  1  0.95609200  0.48379100  0.48597100  1
  C  722  1  0.95624100  0.51592900  0.48516800  1
  C  723  1  0.99236300  0.53354500  0.49768900  1
  C  724  1  0.02831300  0.51827500  0.51338300  1
  C  725  1  0.02743500  0.48613700  0.51403000  1
  C  726  1  0.99259300  0.46932000  0.50062200  1
  C  728  1  0.95396300  0.57848900  0.47952600  1
  C  729  1  0.91753300  0.56099500  0.46877100  1
  C  735  1  0.87981000  0.57362900  0.45494300  1
  C  739  1  0.91843700  0.46621800  0.47159700  1
  C  742  1  0.06764800  0.53173400  0.53033200  1
  N  38  1  0.17377000  0.06610900  0.22202900  1
  N  40  1  0.07565700  0.05871800  0.04074700  1
  N  42  1  0.07075800  0.18508700  0.21994400  1
  N  44  1  0.17159400  0.18754100  0.03958600  1
  N  83  1  0.67329900  0.68444500  0.03383000  1
  N  85  1  0.57252200  0.68917800  0.21387700  1
  N  87  1  0.57572300  0.56046700  0.03674100  1
  N  89  1  0.67451000  0.56450700  0.21722200  1
  N  128  1  0.57855900  0.18487300  0.71952500  1
  N  130  1  0.66831500  0.18839600  0.53617200  1
  N  132  1  0.68076000  0.06343300  0.71563000  1
  N  134  1  0.57256300  0.06182100  0.53816400  1
  N  173  1  0.07021300  0.56508100  0.53385300  1
  N  175  1  0.17887900  0.56089100  0.71182100  1
  N  177  1  0.16990700  0.68389400  0.53033000  1
  N  179  1  0.08080600  0.68889900  0.71399700  1
  N  218  1  0.32459300  0.93724600  0.28610000  1
  N  220  1  0.42217900  0.81615300  0.28275200  1
  N  222  1  0.42491000  0.93450100  0.46711500  1
  N  224  1  0.32422200  0.81032500  0.46424200  1
  N  263  1  0.82135100  0.81028900  0.96069100  1
  N  265  1  0.92124900  0.93734900  0.96477000  1
  N  267  1  0.92942400  0.81550500  0.78279800  1
  N  269  1  0.83098500  0.93472100  0.78056500  1
  N  308  1  0.92489000  0.43272700  0.47203300  1
  N  310  1  0.82283400  0.31526300  0.47107600  1
  N  312  1  0.82534400  0.44005200  0.29088700  1
  N  314  1  0.92072700  0.31230300  0.28904000  1
  N  353  1  0.42715000  0.31091200  0.78931300  1
  N  355  1  0.33059600  0.43702300  0.78563600  1
  N  357  1  0.31787500  0.31475100  0.96712700  1
  N  359  1  0.42002700  0.43538500  0.96957400  1
  N  367  1  0.99277600  0.06438800  0.00061700  1
  N  370  1  0.92621900  0.03488700  0.97147800  1
  N  391  1  0.49085400  0.68675300  0.25456100  1
  N  394  1  0.42268700  0.71840700  0.27939800  1
  N  415  1  0.75052800  0.18602200  0.49552000  1
  N  418  1  0.82034600  0.21740800  0.47237300  1
  N  439  1  0.26271300  0.56523100  0.75091200  1
  N  442  1  0.32847500  0.53462200  0.77968700  1
  N  463  1  0.51035500  0.31406600  0.74970700  1
  N  466  1  0.57703300  0.28264900  0.72280400  1
  N  487  1  0.24257400  0.81296800  0.50504600  1
  N  490  1  0.17326300  0.78172200  0.52899800  1
  N  511  1  0.74211600  0.43605200  0.25103800  1
  N  514  1  0.67593500  0.46685100  0.22288300  1
  N  535  1  0.48865100  0.06424000  0.49913600  1
  N  538  1  0.42282900  0.03218000  0.47205300  1
  N  559  1  0.99802700  0.68625800  0.75419900  1
  N  562  1  0.92944800  0.71775600  0.77878900  1
  N  583  1  0.25556800  0.18509100  0.00039600  1
  N  586  1  0.32109300  0.21714000  0.97295200  1
  N  607  1  0.00430100  0.31477800  0.24948400  1
  N  610  1  0.07126200  0.28288300  0.22343200  1
  N  631  1  0.73769000  0.81353800  0.99987200  1
  N  634  1  0.67235500  0.78206000  0.02812200  1
  N  655  1  0.49436900  0.56386700  0.99560300  1
  N  658  1  0.42497400  0.53317000  0.97103800  1
  N  679  1  0.76152200  0.06479800  0.75667200  1
  N  682  1  0.83027800  0.03252500  0.77992300  1
  N  703  1  0.24382300  0.93602800  0.24490200  1
  N  706  1  0.17442500  0.96826100  0.22242300  1
  N  727  1  0.98961500  0.56432100  0.49300000  1
  N  730  1  0.92104200  0.53053400  0.47173800  1
  O  373  1  0.96217200  0.11155600  0.98654800  1
  O  376  1  0.87511700  0.06955800  0.93313100  1
  O  377  1  0.86209300  0.09587200  0.97097200  1
  O  397  1  0.45845400  0.64074500  0.27048300  1
  O  400  1  0.36749300  0.68657800  0.31754300  1
  O  401  1  0.35774100  0.65748000  0.28131500  1
  O  421  1  0.78224500  0.14000300  0.47900400  1
  O  424  1  0.87560400  0.18568000  0.43412600  1
  O  425  1  0.88394500  0.15600100  0.47003200  1
  O  445  1  0.29509100  0.61187200  0.76494300  1
  O  448  1  0.38115400  0.56833200  0.81791800  1
  O  449  1  0.39456000  0.59473700  0.78019300  1
  O  469  1  0.54290400  0.36027800  0.73450700  1
  O  472  1  0.63090700  0.31512300  0.68430300  1
  O  473  1  0.64269200  0.34318100  0.72107300  1
  O  493  1  0.21131700  0.85907400  0.52170300  1
  O  496  1  0.11866700  0.81356700  0.56754000  1
  O  497  1  0.10998800  0.84336800  0.53176600  1
  O  517  1  0.70986100  0.38950900  0.23656200  1
  O  520  1  0.62293400  0.43350000  0.18457800  1
  O  521  1  0.61017400  0.40648300  0.22196700  1
  O  541  1  0.45442300  0.11014400  0.48467800  1
  O  544  1  0.36758800  0.06431900  0.43416000  1
  O  545  1  0.35513900  0.09173500  0.47131600  1
  O  565  1  0.96548900  0.64015700  0.76974600  1
  O  568  1  0.87401700  0.68566100  0.81659100  1
  O  569  1  0.86443800  0.65696300  0.78003700  1
  O  589  1  0.29004400  0.13918300  0.98621900  1
  O  592  1  0.37640600  0.18485500  0.93522500  1
  O  593  1  0.38922700  0.15784600  0.97261400  1
  O  613  1  0.03784900  0.36074700  0.23452300  1
  O  616  1  0.12646400  0.31497300  0.18544900  1
  O  617  1  0.13785900  0.34294300  0.22234000  1
  O  637  1  0.70428500  0.85974300  0.01423500  1
  O  640  1  0.61837000  0.81481500  0.06629500  1
  O  641  1  0.60525700  0.84189600  0.02899900  1
  O  661  1  0.46398900  0.61024500  0.97895500  1
  O  664  1  0.37166500  0.56560100  0.93211700  1
  O  665  1  0.36246100  0.59503200  0.96813400  1
  O  685  1  0.79431100  0.11038800  0.77340500  1
  O  688  1  0.88633800  0.06342200  0.81830200  1
  O  689  1  0.89524700  0.09346500  0.78274100  1
  O  709  1  0.21107600  0.89046700  0.22805000  1
  O  712  1  0.11793800  0.93748200  0.18425800  1
  O  713  1  0.10981400  0.90713000  0.21963600  1
  O  733  1  0.95451500  0.60905200  0.47608000  1
  O  736  1  0.86202500  0.55975400  0.43410800  1
  O  737  1  0.85398500  0.59068900  0.46899800  1
