# generated using pymatgen
data_H32C43N8
_symmetry_space_group_name_H-M   'P 1'
_cell_length_a   30.37940000
_cell_length_b   47.29685000
_cell_length_c   47.29690000
_cell_angle_alpha   120.00010491
_cell_angle_beta   90.00000000
_cell_angle_gamma   90.00000000
_symmetry_Int_Tables_number   1
_chemical_formula_structural   H32C43N8
_chemical_formula_sum   'H192 C258 N48'
_cell_volume   58853.76607284
_cell_formula_units_Z   6
loop_
 _symmetry_equiv_pos_site_id
 _symmetry_equiv_pos_as_xyz
  1  'x, y, z'
loop_
 _atom_site_type_symbol
 _atom_site_label
 _atom_site_symmetry_multiplicity
 _atom_site_fract_x
 _atom_site_fract_y
 _atom_site_fract_z
 _atom_site_occupancy
  H  25  1  0.07416400  0.52030400  0.52144900  1
  H  26  1  0.00539000  0.54446400  0.54359000  1
  H  27  1  0.13222600  0.57522800  0.61451700  1
  H  28  1  0.06299800  0.59942300  0.63666900  1
  H  29  1  0.01095300  0.65259700  0.65436200  1
  H  30  1  0.02431100  0.69984600  0.65004600  1
  H  31  1  0.98913200  0.64727300  0.55053800  1
  H  32  1  0.97583800  0.60029400  0.55492300  1
  H  33  1  0.90213000  0.60626300  0.58775400  1
  H  34  1  0.84351100  0.57196300  0.55573500  1
  H  35  1  0.96430700  0.52558400  0.58574600  1
  H  36  1  0.00702900  0.55750600  0.64079100  1
  H  37  1  0.92344400  0.63389900  0.65305500  1
  H  38  1  0.90164800  0.64232400  0.70485400  1
  H  39  1  0.98543300  0.56595000  0.69268100  1
  H  42  1  0.99344800  0.70869000  0.58132000  1
  H  43  1  0.17745800  0.54007900  0.56761500  1
  H  45  1  0.91600800  0.63311000  0.75069600  1
  H  57  1  0.74085600  0.95747500  0.44475600  1
  H  58  1  0.67208200  0.95549000  0.42061600  1
  H  59  1  0.67774300  0.95817800  0.31257000  1
  H  60  1  0.69117500  0.90661100  0.26534400  1
  H  61  1  0.65576600  0.85969000  0.31788500  1
  H  62  1  0.64240800  0.91105700  0.36483500  1
  H  63  1  0.56875000  0.93799300  0.35888100  1
  H  64  1  0.51011500  0.94030100  0.39318100  1
  H  65  1  0.66025900  0.82902600  0.25648400  1
  H  81  1  0.29898400  0.95209200  0.59268500  1
  H  82  1  0.22973300  0.95398800  0.61677300  1
  H  83  1  0.07237000  0.92831600  0.50885600  1
  H  84  1  0.13108400  0.93113900  0.54295600  1
  H  85  1  0.17374500  0.90797000  0.57488600  1
  H  86  1  0.09014800  0.97211300  0.65125300  1
  H  87  1  0.06832100  0.92875000  0.65967900  1
  H  88  1  0.15213500  0.86453300  0.58333600  1
  H  91  1  0.34410400  0.96394900  0.55773100  1
  H  93  1  0.01027200  0.95562200  0.50024900  1
  H  94  1  0.08262400  0.87375100  0.65048800  1
  H  120  1  0.83882500  0.52616900  0.97290900  1
  H  121  1  0.96565700  0.59707900  0.01310100  1
  H  122  1  0.89639900  0.61927100  0.01122100  1
  H  123  1  0.84440500  0.63695400  0.97570100  1
  H  124  1  0.85779300  0.63264000  0.92413700  1
  H  125  1  0.82247800  0.53315800  0.87719100  1
  H  126  1  0.80916400  0.53754600  0.92854900  1
  H  127  1  0.73548400  0.57040200  0.95547200  1
  H  128  1  0.67687500  0.53837500  0.95774700  1
  H  129  1  0.73909400  0.53694300  0.03682400  1
  H  130  1  0.79778900  0.56824600  0.03402400  1
  H  131  1  0.84046500  0.62340500  0.05720500  1
  H  132  1  0.75680800  0.63563500  0.99309100  1
  H  133  1  0.73511500  0.68747100  0.03643800  1
  H  134  1  0.81902300  0.67535800  0.10061600  1
  H  137  1  0.82685400  0.56393100  0.84655800  1
  H  138  1  0.01079200  0.55025700  0.00121300  1
  H  140  1  0.74905000  0.73317800  0.09139800  1
  H  141  1  0.23652700  0.52560500  0.52642000  1
  H  144  1  0.90321500  0.95721000  0.43951800  1
  H  146  1  0.68051700  0.55440500  0.49362400  1
  H  147  1  0.62516600  0.56537000  0.51435700  1
  H  155  1  0.28906000  0.95819300  0.45229100  1
  H  156  1  0.25987600  0.90801100  0.44875400  1
  H  157  1  0.31532800  0.89820100  0.45951300  1
  H  158  1  0.34721800  0.89566800  0.41074900  1
  H  159  1  0.29185500  0.90540400  0.39977300  1
  H  168  1  0.05737600  0.78550200  0.65978500  1
  H  172  1  0.02532800  0.71745400  0.53522400  1
  H  173  1  0.07388100  0.67058100  0.52248100  1
  H  174  1  0.11278600  0.69778100  0.55626100  1
  H  175  1  0.12552400  0.73028000  0.52985100  1
  H  176  1  0.08671800  0.70318500  0.49594300  1
  H  185  1  0.72418600  0.83075900  0.17969700  1
  H  189  1  0.69205100  0.77409600  0.24761300  1
  H  190  1  0.74059200  0.80819800  0.29451300  1
  H  191  1  0.77949200  0.81483600  0.26735000  1
  H  192  1  0.79225100  0.75593700  0.23478100  1
  H  193  1  0.75345500  0.74906500  0.26184200  1
  H  202  1  0.89078000  0.64239100  0.84820400  1
  H  205  1  0.85869300  0.51784100  0.79168200  1
  H  206  1  0.94618100  0.53883800  0.83235400  1
  H  209  1  0.98193700  0.51772400  0.06692100  1
  H  211  1  0.90559800  0.49148600  0.55445900  1
  H  213  1  0.84352400  0.48287100  0.51853700  1
  H  225  1  0.40744000  0.44371100  0.00757900  1
  H  226  1  0.33869200  0.42156000  0.00962400  1
  H  227  1  0.32245400  0.41465700  0.10547200  1
  H  228  1  0.30908300  0.41023000  0.05410200  1
  H  229  1  0.23540200  0.37736400  0.02719500  1
  H  230  1  0.17678000  0.40936200  0.02488700  1
  H  231  1  0.23893400  0.41067500  0.94572900  1
  H  232  1  0.29764500  0.37940500  0.94856600  1
  H  234  1  0.32695100  0.38394500  0.13615400  1
  H  235  1  0.51072000  0.39761700  0.98145300  1
  H  237  1  0.17683900  0.44658000  0.97300900  1
  H  248  1  0.57426000  0.42728000  0.46119000  1
  H  249  1  0.50544400  0.40327600  0.43900000  1
  H  250  1  0.34355400  0.37580800  0.42683500  1
  H  251  1  0.40565200  0.45629500  0.42814100  1
  H  252  1  0.46436300  0.42220000  0.39685100  1
  H  253  1  0.50715900  0.39021800  0.34172200  1
  H  254  1  0.48566700  0.38168300  0.28977900  1
  H  256  1  0.67743400  0.40739700  0.41491100  1
  H  258  1  0.34358400  0.46489700  0.46408900  1
  H  259  1  0.90763900  0.50397300  0.97471900  1
  H  261  1  0.67697200  0.50105000  0.00952500  1
  H  271  1  0.12245300  0.43482100  0.46776800  1
  H  272  1  0.09311400  0.43119700  0.51432600  1
  H  273  1  0.14851400  0.44194300  0.53497800  1
  H  274  1  0.18049600  0.39322300  0.48874800  1
  H  275  1  0.12518200  0.38225800  0.46795600  1
  H  284  1  0.56983900  0.43876300  0.00793100  1
  H  288  1  0.45583800  0.49744800  0.97577200  1
  H  289  1  0.42648900  0.45087800  0.92560300  1
  H  290  1  0.48187500  0.43021100  0.91571500  1
  H  291  1  0.51390300  0.47640800  0.91319200  1
  H  292  1  0.45859900  0.49721800  0.92300100  1
  H  301  1  0.73657700  0.42208500  0.45621900  1
  H  304  1  0.62241100  0.51284400  0.51461400  1
  H  305  1  0.59317400  0.51639300  0.46798700  1
  H  306  1  0.64861300  0.50564500  0.44739600  1
  H  315  1  0.06993100  0.50894500  0.97458100  1
  H  319  1  0.95570800  0.45052800  0.00688100  1
  H  320  1  0.92648900  0.49714800  0.05707000  1
  H  321  1  0.01381400  0.47147400  0.06942600  1
  H  322  1  0.95845000  0.45075300  0.05965000  1
  H  330  1  0.35885700  0.42999500  0.19104900  1
  H  331  1  0.40742000  0.44271500  0.15690100  1
  H  332  1  0.44625500  0.40887800  0.15025900  1
  H  333  1  0.45907000  0.43522300  0.20915300  1
  H  334  1  0.42034000  0.46919100  0.21602800  1
  H  336  1  0.90726400  0.50506700  0.82578000  1
  H  337  1  0.95887400  0.51244000  0.77343900  1
  H  338  1  0.92005800  0.47854000  0.76663100  1
  H  339  1  0.63230900  0.37242200  0.36811500  1
  H  354  1  0.46554200  0.35065600  0.96944500  1
  H  355  1  0.39632400  0.32849600  0.97149900  1
  H  356  1  0.34434700  0.31083000  0.00699700  1
  H  357  1  0.35779400  0.31518200  0.05856500  1
  H  358  1  0.34031500  0.32437700  0.92544900  1
  H  359  1  0.25679100  0.31206700  0.98956900  1
  H  360  1  0.23499400  0.26027600  0.94618600  1
  H  361  1  0.31873100  0.27249700  0.88199200  1
  H  364  1  0.24929900  0.21450400  0.89116900  1
  H  380  1  0.56304900  0.34835700  0.34593000  1
  H  381  1  0.51097700  0.29516400  0.32820100  1
  H  382  1  0.52439100  0.24793100  0.33253900  1
  H  383  1  0.48925500  0.30053600  0.43205500  1
  H  384  1  0.47591400  0.34749000  0.42764400  1
  H  385  1  0.40217600  0.34151300  0.39482000  1
  H  386  1  0.42341400  0.31395400  0.32957400  1
  H  387  1  0.40166600  0.30546700  0.27775000  1
  H  389  1  0.49359400  0.23912200  0.40130600  1
  H  391  1  0.41554100  0.31469800  0.23202500  1
  H  396  1  0.39072100  0.30538400  0.13442500  1
  H  403  1  0.55744000  0.16227800  0.32279900  1
  H  407  1  0.52538800  0.23028700  0.44736900  1
  H  408  1  0.57396400  0.27716200  0.46015200  1
  H  409  1  0.61286500  0.24997400  0.42636300  1
  H  410  1  0.62556800  0.21742800  0.45272700  1
  H  411  1  0.58676900  0.24451200  0.48664500  1
  H  419  1  0.19195800  0.17351800  0.73489100  1
  H  420  1  0.29213800  0.19176400  0.74772400  1
  H  421  1  0.25331200  0.19857400  0.72063800  1
  H  437  1  0.79890100  0.99572300  0.38991900  1
  H  438  1  0.72966900  0.99370900  0.36574500  1
  H  439  1  0.57230500  0.01941100  0.47367000  1
  H  440  1  0.63102600  0.01657600  0.43957300  1
  H  441  1  0.67363300  0.03972500  0.40766600  1
  H  442  1  0.59016200  0.97558700  0.33120700  1
  H  443  1  0.56835500  0.01896800  0.32280100  1
  H  444  1  0.65204000  0.08318000  0.39924200  1
  H  447  1  0.84414500  0.98389600  0.42501600  1
  H  449  1  0.51015400  0.99218300  0.48228400  1
  H  450  1  0.58262800  0.07399500  0.33205700  1
  H  462  1  0.24093500  0.99039800  0.53790400  1
  H  463  1  0.17212800  0.99223200  0.56193200  1
  H  464  1  0.17770800  0.98949700  0.66998000  1
  H  465  1  0.19107600  0.04106200  0.71723100  1
  H  466  1  0.15584400  0.08800100  0.66467100  1
  H  467  1  0.14253600  0.03663800  0.61769800  1
  H  468  1  0.06883500  0.00974900  0.62364300  1
  H  469  1  0.01020900  0.00745300  0.58934100  1
  H  470  1  0.16015000  0.11862900  0.72608800  1
  H  479  1  0.78913000  0.98935700  0.53029800  1
  H  480  1  0.75979100  0.03953100  0.53390000  1
  H  481  1  0.81519100  0.04943200  0.52315100  1
  H  482  1  0.84716700  0.05194300  0.57188300  1
  H  483  1  0.79185300  0.04212000  0.58284800  1
  H  488  1  0.40322300  0.99061400  0.54306300  1
  H  494  1  0.22411400  0.11697200  0.80289200  1
  H  496  1  0.24052400  0.13942600  0.68801300  1
  H  497  1  0.27945100  0.13285000  0.71520400  1
  C  1  1  0.94152600  0.60520900  0.70442400  1
  C  2  1  0.92450500  0.62457000  0.69186100  1
  C  3  1  0.93782000  0.61974400  0.66120500  1
  C  4  1  0.97026200  0.59634500  0.64184400  1
  C  5  1  0.98582800  0.57627200  0.65425000  1
  C  6  1  0.97234200  0.58076200  0.68481600  1
  C  7  1  0.98140000  0.59025400  0.60753900  1
  C  8  1  0.94167600  0.56941300  0.58835200  1
  C  9  1  0.93931900  0.53598100  0.57960500  1
  C  10  1  0.86881300  0.52799300  0.55117600  1
  C  11  1  0.86887500  0.56177800  0.56182600  1
  C  12  1  0.90413100  0.58199000  0.58037800  1
  C  13  1  0.98832300  0.62157300  0.60579600  1
  C  14  1  0.02529800  0.57278200  0.59335200  1
  C  15  1  0.03115100  0.55036300  0.55944500  1
  C  16  1  0.07217900  0.53609400  0.54607900  1
  C  17  1  0.11015500  0.54411800  0.56589500  1
  C  18  1  0.10542200  0.56769200  0.59936000  1
  C  19  1  0.06424300  0.58190900  0.61253600  1
  C  20  1  0.00477100  0.65110300  0.63242600  1
  C  21  1  0.01357000  0.67906000  0.62981900  1
  C  22  1  0.00732900  0.67868800  0.60000900  1
  C  23  1  0.99320400  0.64903400  0.57286700  1
  C  24  1  0.98497800  0.62119300  0.57560900  1
  C  40  1  0.15152200  0.53146400  0.55284300  1
  C  41  1  0.92938600  0.61147100  0.73559400  1
  C  44  1  0.01337300  0.70609600  0.59658000  1
  C  46  1  0.64807000  0.97371800  0.37488700  1
  C  47  1  0.53550400  0.95654900  0.40336900  1
  C  48  1  0.57076800  0.95487600  0.38315600  1
  C  49  1  0.65495600  0.94065100  0.34356800  1
  C  50  1  0.69784000  0.96545700  0.41472800  1
  C  51  1  0.73886300  0.96635500  0.42900000  1
  C  52  1  0.67152500  0.93773700  0.31406000  1
  C  53  1  0.68035700  0.90717200  0.28611200  1
  C  54  1  0.67406900  0.87773400  0.28647800  1
  C  55  1  0.65986800  0.88025500  0.31612100  1
  C  56  1  0.65159900  0.91084400  0.34394600  1
  C  66  1  0.68016700  0.84689000  0.25908400  1
  C  67  1  0.10822000  0.89205700  0.62258600  1
  C  68  1  0.09118900  0.92398000  0.64193100  1
  C  69  1  0.10452000  0.94980600  0.63710100  1
  C  70  1  0.13701300  0.94577100  0.61373000  1
  C  71  1  0.15253000  0.91328200  0.59364500  1
  C  72  1  0.13904000  0.88721100  0.59814100  1
  C  73  1  0.10841400  0.97233800  0.58679100  1
  C  74  1  0.10605700  0.94764100  0.55336100  1
  C  75  1  0.07116800  0.94591100  0.53303000  1
  C  76  1  0.03554200  0.96807000  0.54536800  1
  C  77  1  0.19203000  0.97070300  0.59017600  1
  C  78  1  0.27693600  0.96966600  0.56161700  1
  C  79  1  0.27217300  0.95969100  0.58512800  1
  C  80  1  0.23098100  0.96063800  0.59928100  1
  C  89  1  0.31837600  0.97032800  0.54914400  1
  C  90  1  0.09610300  0.86714900  0.62886400  1
  C  92  1  0.00297400  0.96677500  0.52395100  1
  C  95  1  0.77498700  0.68705500  0.07313600  1
  C  96  1  0.75791300  0.67445800  0.04121800  1
  C  97  1  0.77118200  0.64378200  0.01539500  1
  C  98  1  0.80363600  0.62442600  0.01942800  1
  C  99  1  0.81924300  0.63685200  0.05190000  1
  C  100  1  0.80583000  0.66745100  0.07796100  1
  C  101  1  0.81479400  0.59012500  0.99120800  1
  C  102  1  0.77509200  0.57091700  0.99285000  1
  C  103  1  0.77275700  0.56215800  0.01752800  1
  C  104  1  0.73787900  0.54354000  0.01924200  1
  C  105  1  0.70224300  0.53373800  0.99709600  1
  C  106  1  0.70226800  0.54443000  0.97399500  1
  C  107  1  0.73751400  0.56298900  0.97233600  1
  C  108  1  0.82168100  0.58841500  0.95815800  1
  C  109  1  0.85870500  0.57595000  0.99448200  1
  C  110  1  0.86457700  0.54202200  0.98290500  1
  C  111  1  0.90562600  0.52862800  0.98370700  1
  C  112  1  0.94362500  0.54842900  0.99548100  1
  C  113  1  0.93885100  0.58192200  0.00549300  1
  C  114  1  0.89765200  0.59512400  0.00455200  1
  C  115  1  0.83820800  0.61502400  0.95525600  1
  C  116  1  0.84701500  0.61242100  0.92469400  1
  C  117  1  0.84073800  0.58261800  0.89525000  1
  C  118  1  0.82657400  0.55548300  0.89776100  1
  C  119  1  0.81833000  0.55822900  0.92834600  1
  C  135  1  0.98506100  0.53529100  0.99482600  1
  C  136  1  0.76318200  0.71836100  0.09798500  1
  C  139  1  0.84678600  0.57918700  0.86441200  1
  C  142  1  0.89897900  0.96720800  0.46410600  1
  C  145  1  0.64890600  0.54679800  0.49856100  1
  C  148  1  0.35548300  0.95452500  0.46937700  1
  C  149  1  0.35800800  0.96714300  0.50357000  1
  C  150  1  0.43056100  0.96866100  0.46763900  1
  C  152  1  0.31438000  0.94102300  0.45059700  1
  C  153  1  0.31559400  0.90819700  0.41834900  1
  C  154  1  0.29566600  0.90994900  0.44891900  1
  C  162  1  0.06220800  0.75354500  0.57879500  1
  C  163  1  0.05440000  0.75368700  0.60851900  1
  C  164  1  0.06139200  0.78371400  0.63748700  1
  C  166  1  0.07908200  0.81069700  0.60776400  1
  C  169  1  0.05803100  0.72401400  0.54622700  1
  C  170  1  0.09604400  0.71504100  0.52165300  1
  C  171  1  0.08809800  0.69470000  0.53815100  1
  C  179  1  0.72892400  0.78164400  0.21156300  1
  C  180  1  0.72122400  0.81126600  0.21147500  1
  C  181  1  0.72817600  0.81023200  0.18145700  1
  C  183  1  0.74578300  0.75350300  0.15440300  1
  C  186  1  0.72474600  0.77857200  0.24107300  1
  C  187  1  0.76276700  0.76295200  0.25001600  1
  C  188  1  0.75481000  0.79978300  0.27039900  1
  C  196  1  0.89558900  0.56140400  0.79916100  1
  C  197  1  0.88779600  0.59112700  0.82875000  1
  C  198  1  0.89479400  0.62009600  0.82769400  1
  C  200  1  0.91243800  0.59037900  0.77097800  1
  C  203  1  0.89140000  0.52883400  0.79611500  1
  C  204  1  0.92147900  0.52073900  0.81733100  1
  C  210  1  0.90441800  0.51565600  0.56101300  1
  C  212  1  0.83623500  0.50657600  0.53106300  1
  C  214  1  0.27498800  0.37679200  0.98977800  1
  C  215  1  0.27264100  0.38553400  0.96509000  1
  C  216  1  0.23773900  0.40411700  0.96334100  1
  C  217  1  0.20211300  0.41393600  0.98549400  1
  C  218  1  0.20215900  0.40328300  0.00862700  1
  C  219  1  0.23741300  0.38474000  0.01030200  1
  C  220  1  0.36445600  0.40570900  0.99967200  1
  C  221  1  0.40546100  0.41907900  0.99873000  1
  C  222  1  0.44345400  0.39927500  0.98696300  1
  C  223  1  0.32653600  0.39232300  0.08491000  1
  C  224  1  0.31825700  0.38955400  0.05431900  1
  C  233  1  0.48477800  0.41235800  0.98728000  1
  C  236  1  0.16954400  0.43405500  0.98419000  1
  C  238  1  0.44172600  0.37836900  0.39423800  1
  C  239  1  0.43934900  0.41179500  0.40295900  1
  C  240  1  0.40446700  0.43212400  0.42157700  1
  C  241  1  0.36886100  0.41978200  0.43140700  1
  C  242  1  0.36892700  0.38599600  0.42075600  1
  C  243  1  0.52532900  0.37501300  0.38922900  1
  C  244  1  0.53120800  0.39737500  0.42315000  1
  C  245  1  0.57226200  0.41156400  0.43654400  1
  C  246  1  0.61026200  0.40353400  0.41674600  1
  C  247  1  0.60549200  0.38001300  0.38326500  1
  C  255  1  0.65170800  0.41599600  0.42988000  1
  C  257  1  0.33628900  0.44119400  0.45153300  1
  C  260  1  0.66967700  0.51361200  0.99838400  1
  C  262  1  0.18883400  0.45190400  0.48863400  1
  C  263  1  0.19133600  0.48608300  0.51026000  1
  C  264  1  0.23229400  0.50101600  0.51182600  1
  C  266  1  0.26394100  0.45022400  0.47285400  1
  C  268  1  0.14772400  0.43310500  0.48326600  1
  C  269  1  0.14889900  0.40083100  0.48379200  1
  C  270  1  0.12891200  0.43137400  0.51260900  1
  C  278  1  0.52219800  0.47656500  0.97201000  1
  C  279  1  0.52467700  0.45493900  0.98456600  1
  C  280  1  0.56562900  0.45335300  0.99792900  1
  C  282  1  0.59731900  0.49230400  0.98609700  1
  C  285  1  0.48110500  0.48193700  0.95856700  1
  C  286  1  0.48230000  0.48138200  0.92575400  1
  C  287  1  0.46228600  0.45258500  0.92750100  1
  C  295  1  0.68882700  0.49576900  0.49382800  1
  C  296  1  0.69135400  0.46157700  0.47225500  1
  C  297  1  0.73232200  0.44667800  0.47075800  1
  C  299  1  0.76391200  0.49751100  0.50969100  1
  C  302  1  0.64771500  0.51454700  0.49912900  1
  C  303  1  0.62896500  0.51623100  0.46974400  1
  C  309  1  0.02213800  0.47129700  0.01059900  1
  C  310  1  0.02468300  0.49289100  0.99800400  1
  C  311  1  0.06566100  0.49439200  0.98461800  1
  C  313  1  0.09722200  0.45543300  0.99648800  1
  C  316  1  0.98101700  0.46600100  0.02407000  1
  C  317  1  0.98220000  0.46654900  0.05688100  1
  C  318  1  0.96227900  0.49538200  0.05515100  1
  C  325  1  0.39564500  0.38636600  0.18350300  1
  C  327  1  0.39153100  0.41894600  0.18656000  1
  C  328  1  0.42960300  0.44346900  0.20214700  1
  C  329  1  0.42160700  0.42701200  0.16531900  1
  C  335  1  0.92939700  0.50424800  0.78049100  1
  C  340  1  0.27485600  0.26072500  0.90950200  1
  C  341  1  0.25784100  0.27327700  0.94142600  1
  C  342  1  0.27115300  0.30393100  0.96726300  1
  C  343  1  0.30360900  0.32329700  0.96324300  1
  C  344  1  0.31912000  0.31091300  0.93075200  1
  C  345  1  0.30564700  0.28035000  0.90466900  1
  C  346  1  0.31470900  0.35761100  0.99144900  1
  C  347  1  0.32159500  0.35936200  0.02451600  1
  C  348  1  0.35859700  0.37179700  0.98815900  1
  C  349  1  0.43873700  0.36581400  0.97708900  1
  C  350  1  0.39756100  0.35263300  0.97812900  1
  C  351  1  0.33814900  0.33276700  0.02743400  1
  C  352  1  0.34699100  0.33539200  0.05800100  1
  C  353  1  0.34072700  0.36520300  0.08743600  1
  C  362  1  0.26275600  0.22954100  0.88457700  1
  C  363  1  0.34683600  0.36866300  0.11828400  1
  C  365  1  0.44161100  0.34252200  0.27811000  1
  C  366  1  0.42451000  0.32323200  0.29073400  1
  C  367  1  0.43780600  0.32809100  0.32140900  1
  C  368  1  0.47032800  0.35143900  0.34072800  1
  C  369  1  0.48590400  0.37148200  0.32829300  1
  C  370  1  0.47247400  0.36694200  0.29769700  1
  C  371  1  0.48144100  0.35753100  0.37503900  1
  C  372  1  0.40417400  0.36578500  0.40219600  1
  C  373  1  0.48834300  0.32619600  0.37676000  1
  C  374  1  0.56429300  0.36586400  0.37006800  1
  C  375  1  0.50481500  0.29666600  0.35014400  1
  C  376  1  0.51363300  0.26871600  0.35276000  1
  C  377  1  0.50742500  0.26910100  0.38258000  1
  C  378  1  0.49330400  0.29876200  0.40971800  1
  C  379  1  0.48504800  0.32659000  0.40695700  1
  C  388  1  0.42974100  0.33608200  0.24682200  1
  C  390  1  0.51350500  0.24170800  0.38603400  1
  C  392  1  0.38787700  0.35665700  0.15389700  1
  C  393  1  0.39475700  0.32767400  0.15494500  1
  C  395  1  0.41243000  0.35735100  0.21166100  1
  C  399  1  0.56226200  0.19421100  0.40378700  1
  C  400  1  0.55452000  0.19409100  0.37406500  1
  C  401  1  0.56144200  0.16405700  0.34509400  1
  C  404  1  0.55808500  0.22373300  0.43636300  1
  C  405  1  0.59609400  0.23267300  0.46093400  1
  C  406  1  0.58817100  0.25304300  0.44446700  1
  C  413  1  0.22886400  0.16603600  0.77097000  1
  C  415  1  0.24572500  0.19421000  0.82812600  1
  C  417  1  0.22466700  0.16908700  0.74144800  1
  C  418  1  0.26266000  0.18471200  0.73248400  1
  C  423  1  0.60818500  0.05566200  0.35994700  1
  C  424  1  0.59119300  0.02373300  0.34056600  1
  C  425  1  0.60451400  0.99789800  0.34538600  1
  C  426  1  0.63696100  0.00192100  0.36877600  1
  C  427  1  0.65245800  0.03441700  0.38888900  1
  C  428  1  0.63896900  0.06049900  0.38441000  1
  C  429  1  0.60835200  0.97538000  0.39573600  1
  C  430  1  0.60601500  0.00005700  0.42917200  1
  C  431  1  0.57110700  0.00180800  0.44950000  1
  C  432  1  0.53546700  0.97966500  0.43715900  1
  C  433  1  0.69196100  0.97700700  0.39235800  1
  C  434  1  0.77684000  0.97816000  0.42099100  1
  C  435  1  0.77210100  0.98807200  0.39743400  1
  C  436  1  0.73091700  0.98705900  0.38323800  1
  C  445  1  0.81820700  0.97775000  0.43364000  1
  C  446  1  0.59608100  0.08058700  0.35368800  1
  C  448  1  0.50287900  0.98098000  0.45857600  1
  C  451  1  0.14812500  0.97398500  0.60763500  1
  C  452  1  0.03559500  0.99120100  0.57915500  1
  C  453  1  0.07084600  0.99286300  0.59936700  1
  C  454  1  0.15502100  0.00703700  0.63897300  1
  C  455  1  0.19789300  0.98226300  0.56781300  1
  C  456  1  0.23893700  0.98144600  0.55360000  1
  C  457  1  0.17151900  0.00994300  0.66849300  1
  C  458  1  0.18030800  0.04050400  0.69645100  1
  C  459  1  0.17406700  0.06994200  0.69608000  1
  C  460  1  0.15992600  0.06743000  0.66642900  1
  C  461  1  0.15169000  0.03684500  0.63859100  1
  C  471  1  0.18008800  0.10078000  0.72349500  1
  C  472  1  0.85551100  0.99313700  0.51321400  1
  C  473  1  0.85801100  0.98056200  0.47903000  1
  C  474  1  0.93062200  0.97905100  0.51490600  1
  C  476  1  0.81440000  0.00657100  0.53201100  1
  C  477  1  0.81556900  0.03937700  0.56427500  1
  C  478  1  0.79558600  0.03763900  0.53372600  1
  C  486  1  0.39897000  0.98055800  0.51846900  1
  C  490  1  0.57906900  0.13704500  0.37480300  1
  C  492  1  0.22109300  0.13644200  0.77109500  1
  C  493  1  0.22809400  0.13749200  0.80111700  1
  C  495  1  0.25474400  0.14787200  0.71213000  1
  N  143  1  0.93349200  0.96687200  0.48212200  1
  N  151  1  0.39143500  0.95592900  0.45289800  1
  N  160  1  0.32252700  0.96690400  0.52020300  1
  N  161  1  0.46402700  0.96883200  0.44954900  1
  N  165  1  0.07308400  0.81091500  0.63639700  1
  N  167  1  0.07361700  0.78184600  0.57964000  1
  N  177  1  0.04409100  0.72739200  0.61097200  1
  N  178  1  0.09112300  0.83686000  0.60585100  1
  N  182  1  0.73983400  0.78194800  0.15423500  1
  N  184  1  0.74029500  0.75419500  0.18323700  1
  N  194  1  0.71086500  0.83999700  0.23777700  1
  N  195  1  0.75781600  0.72544700  0.12820000  1
  N  199  1  0.90646400  0.61900900  0.79939900  1
  N  201  1  0.90698300  0.56225400  0.77170400  1
  N  207  1  0.87749600  0.59357700  0.85749800  1
  N  208  1  0.92447000  0.58847000  0.74290200  1
  N  265  1  0.26680800  0.48300700  0.49346600  1
  N  267  1  0.22480900  0.43545600  0.47076500  1
  N  276  1  0.15582500  0.50267500  0.52710700  1
  N  277  1  0.29741800  0.43215700  0.45459600  1
  N  281  1  0.60016300  0.47169500  0.99827300  1
  N  283  1  0.55819300  0.49440800  0.97342000  1
  N  293  1  0.48914000  0.43813500  0.98433700  1
  N  294  1  0.63080200  0.51055600  0.98629000  1
  N  298  1  0.76680300  0.46472000  0.48913300  1
  N  300  1  0.72477900  0.51224900  0.51170900  1
  N  307  1  0.65586800  0.44494400  0.45538800  1
  N  308  1  0.79737400  0.51560400  0.52795700  1
  N  312  1  0.10013200  0.47600700  0.98427700  1
  N  314  1  0.05808400  0.45341000  0.00919700  1
  N  323  1  0.98920800  0.50976900  0.99824400  1
  N  324  1  0.13067900  0.43716200  0.99631300  1
  N  326  1  0.40700800  0.38549200  0.21095400  1
  N  394  1  0.40641600  0.32873700  0.18323000  1
  N  397  1  0.37751100  0.35422400  0.12516500  1
  N  398  1  0.42446400  0.35920700  0.23971800  1
  N  402  1  0.57362500  0.16589500  0.40292900  1
  N  412  1  0.54418700  0.22038800  0.37161900  1
  N  414  1  0.23977000  0.16578300  0.82832700  1
  N  416  1  0.24025400  0.19349100  0.79927700  1
  N  422  1  0.25776200  0.22228100  0.85429500  1
  N  475  1  0.89148800  0.99173000  0.52966800  1
  N  484  1  0.82250700  0.98082200  0.46243400  1
  N  485  1  0.96409900  0.97887000  0.53297900  1
  N  487  1  0.43345100  0.98089700  0.50042900  1
  N  489  1  0.57309500  0.13684300  0.34617500  1
  N  491  1  0.59109400  0.11087400  0.37670700  1
  N  498  1  0.21080300  0.10769500  0.74479500  1
