# generated using pymatgen
data_Nd2H39C72(NO2)6
_symmetry_space_group_name_H-M   'P 1'
_cell_length_a   16.20438000
_cell_length_b   16.21127000
_cell_length_c   31.21583000
_cell_angle_alpha   99.76401000
_cell_angle_beta   99.80738000
_cell_angle_gamma   96.49103000
_symmetry_Int_Tables_number   1
_chemical_formula_structural   Nd2H39C72(NO2)6
_chemical_formula_sum   'Nd8 H156 C288 N24 O48'
_cell_volume   7877.79798665
_cell_formula_units_Z   4
loop_
 _symmetry_equiv_pos_site_id
 _symmetry_equiv_pos_as_xyz
  1  'x, y, z'
loop_
 _atom_site_type_symbol
 _atom_site_label
 _atom_site_symmetry_multiplicity
 _atom_site_fract_x
 _atom_site_fract_y
 _atom_site_fract_z
 _atom_site_occupancy
  Nd  Nd0  1  0.18757000  0.14570000  0.20249000  1
  Nd  Nd1  1  0.35226000  0.31142000  0.29684000  1
  Nd  Nd2  1  0.35576000  0.47889000  0.41534000  1
  Nd  Nd3  1  0.02093000  0.14174000  0.08417000  1
  Nd  Nd4  1  0.81226000  0.85372000  0.79691000  1
  Nd  Nd5  1  0.64875000  0.68898000  0.70343000  1
  Nd  Nd6  1  0.64162000  0.52135000  0.58458000  1
  Nd  Nd7  1  0.97927000  0.85856000  0.91601000  1
  H  H8  1  0.72704000  0.48050000  0.16342000  1
  H  H9  1  0.63108000  0.54650000  0.21979000  1
  H  H10  1  0.35260000  0.69783000  0.19788000  1
  H  H11  1  0.29396000  0.79336000  0.13924000  1
  H  H12  1  0.38364000  0.87153000  0.99353000  1
  H  H13  1  0.47883000  0.80169000  0.93710000  1
  H  H14  1  0.62677000  0.52356000  0.92595000  1
  H  H15  1  0.68548000  0.42909000  0.98470000  1
  H  H16  1  0.54431000  0.60437000  0.09349000  1
  H  H17  1  0.49698000  0.67636000  0.04677000  1
  H  H18  1  0.58775000  0.68078000  0.25936000  1
  H  H19  1  0.55458000  0.64463000  0.32914000  1
  H  H20  1  0.32458000  0.48802000  0.25590000  1
  H  H21  1  0.35596000  0.52848000  0.18681000  1
  H  H22  1  0.22182000  0.77221000  0.02742000  1
  H  H23  1  0.12091000  0.87585000  0.03981000  1
  H  H24  1  0.32361000  0.05328000  0.12627000  1
  H  H25  1  0.42417000  0.94921000  0.11420000  1
  H  H26  1  0.47702000  0.57126000  0.88578000  1
  H  H27  1  0.51402000  0.58695000  0.81306000  1
  H  H28  1  0.70872000  0.79560000  0.87946000  1
  H  H29  1  0.66952000  0.78057000  0.95123000  1
  H  H30  1  0.64825000  0.35052000  0.10118000  1
  H  H31  1  0.75387000  0.24971000  0.10636000  1
  H  H32  1  0.91881000  0.40663000  0.04909000  1
  H  H33  1  0.81534000  0.51060000  0.04657000  1
  H  H34  1  0.96713000  0.54501000  0.16504000  1
  H  H35  1  0.90064000  0.64180000  0.10875000  1
  H  H36  1  0.68690000  0.85868000  0.10920000  1
  H  H37  1  0.59117000  0.92469000  0.16584000  1
  H  H38  1  0.57481000  0.90792000  0.33443000  1
  H  H39  1  0.64298000  0.81341000  0.39125000  1
  H  H40  1  0.85806000  0.59697000  0.39046000  1
  H  H41  1  0.95327000  0.53045000  0.33340000  1
  H  H42  1  0.80822000  0.69697000  0.22863000  1
  H  H43  1  0.73910000  0.76071000  0.27234000  1
  H  H44  1  0.92175000  0.85785000  0.13600000  1
  H  H45  1  0.96408000  0.88821000  0.06702000  1
  H  H46  1  0.75630000  0.70291000  0.99038000  1
  H  H47  1  0.71029000  0.67867000  0.05977000  1
  H  H48  1  0.64710000  0.02882000  0.30136000  1
  H  H49  1  0.54475000  0.13189000  0.30109000  1
  H  H50  1  0.36852000  0.95559000  0.19828000  1
  H  H51  1  0.47189000  0.85368000  0.19791000  1
  H  H52  1  0.64434000  0.57731000  0.36420000  1
  H  H53  1  0.61337000  0.53604000  0.43338000  1
  H  H54  1  0.79726000  0.74485000  0.50988000  1
  H  H55  1  0.82293000  0.78991000  0.44045000  1
  H  H56  1  0.18517000  0.50966000  0.28975000  1
  H  H57  1  0.08167000  0.61275000  0.28937000  1
  H  H58  1  0.98972000  0.31430000  0.21028000  1
  H  H59  1  0.88668000  0.41750000  0.21043000  1
  H  H60  1  0.01711000  0.77186000  0.33602000  1
  H  H61  1  0.95246000  0.86943000  0.28011000  1
  H  H62  1  0.80067000  0.14670000  0.30167000  1
  H  H63  1  0.70548000  0.20546000  0.36046000  1
  H  H64  1  0.62839000  0.11596000  0.50642000  1
  H  H65  1  0.69836000  0.02086000  0.56280000  1
  H  H66  1  0.97690000  0.87260000  0.57381000  1
  H  H67  1  0.07078000  0.81375000  0.51474000  1
  H  H68  1  0.89595000  0.95623000  0.40657000  1
  H  H69  1  0.82369000  0.00297000  0.45327000  1
  H  H70  1  0.97203000  0.14332000  0.31317000  1
  H  H71  1  0.01259000  0.17447000  0.24400000  1
  H  H72  1  0.85455000  0.94552000  0.17071000  1
  H  H73  1  0.81744000  0.91240000  0.24005000  1
  H  H74  1  0.72930000  0.27848000  0.47218000  1
  H  H75  1  0.62617000  0.38015000  0.46006000  1
  H  H76  1  0.44662000  0.17795000  0.37449000  1
  H  H77  1  0.55011000  0.07675000  0.38618000  1
  H  H78  1  0.93035000  0.02249000  0.61438000  1
  H  H79  1  0.91387000  0.98556000  0.68704000  1
  H  H80  1  0.70487000  0.79141000  0.62022000  1
  H  H81  1  0.72028000  0.83117000  0.54870000  1
  H  H82  1  0.14769000  0.85095000  0.39806000  1
  H  H83  1  0.24866000  0.74571000  0.39264000  1
  H  H84  1  0.09359000  0.58139000  0.45089000  1
  H  H85  1  0.98887000  0.68416000  0.45324000  1
  H  H86  1  0.27295000  0.51952000  0.83658000  1
  H  H87  1  0.36889000  0.45347000  0.78021000  1
  H  H88  1  0.64740000  0.30217000  0.80212000  1
  H  H89  1  0.70605000  0.20664000  0.86076000  1
  H  H90  1  0.61636000  0.12847000  0.00647000  1
  H  H91  1  0.52116000  0.19833000  0.06289000  1
  H  H92  1  0.37324000  0.47643000  0.07404000  1
  H  H93  1  0.31451000  0.57091000  0.01530000  1
  H  H94  1  0.45567000  0.39564000  0.90651000  1
  H  H95  1  0.50304000  0.32363000  0.95322000  1
  H  H96  1  0.41226000  0.31919000  0.74067000  1
  H  H97  1  0.44541000  0.35534000  0.67089000  1
  H  H98  1  0.67535000  0.51200000  0.74411000  1
  H  H99  1  0.64403000  0.47150000  0.81323000  1
  H  H100  1  0.77824000  0.22779000  0.97260000  1
  H  H101  1  0.87910000  0.12405000  0.96016000  1
  H  H102  1  0.67627000  0.94671000  0.87369000  1
  H  H103  1  0.57573000  0.05080000  0.88581000  1
  H  H104  1  0.52296000  0.42872000  0.11409000  1
  H  H105  1  0.48571000  0.41280000  0.18680000  1
  H  H106  1  0.29118000  0.20420000  0.12025000  1
  H  H107  1  0.33054000  0.21939000  0.04851000  1
  H  H108  1  0.35179000  0.64945000  0.89883000  1
  H  H109  1  0.24609000  0.75023000  0.89365000  1
  H  H110  1  0.08122000  0.59335000  0.95090000  1
  H  H111  1  0.18470000  0.48937000  0.95343000  1
  H  H112  1  0.03287000  0.45499000  0.83495000  1
  H  H113  1  0.09936000  0.35818000  0.89125000  1
  H  H114  1  0.31310000  0.14135000  0.89079000  1
  H  H115  1  0.40886000  0.07525000  0.83417000  1
  H  H116  1  0.42524000  0.09203000  0.66556000  1
  H  H117  1  0.35700000  0.18658000  0.60877000  1
  H  H118  1  0.14192000  0.40300000  0.60955000  1
  H  H119  1  0.04676000  0.46956000  0.66666667  1
  H  H120  1  0.19176000  0.30302000  0.77136000  1
  H  H121  1  0.26096000  0.23922000  0.72770000  1
  H  H122  1  0.07828000  0.14216000  0.86397000  1
  H  H123  1  0.03600000  0.11193000  0.93299000  1
  H  H124  1  0.24378000  0.29713000  0.00960000  1
  H  H125  1  0.28983000  0.32137000  0.94018000  1
  H  H126  1  0.35314000  0.97099000  0.69865000  1
  H  H127  1  0.45546000  0.86800000  0.69891000  1
  H  H128  1  0.63159000  0.04415000  0.80170000  1
  H  H129  1  0.52837000  0.14605000  0.80208000  1
  H  H130  1  0.35558000  0.42261000  0.63587000  1
  H  H131  1  0.38660000  0.46403000  0.56672000  1
  H  H132  1  0.20270000  0.25509000  0.49016000  1
  H  H133  1  0.17703000  0.21005000  0.55955000  1
  H  H134  1  0.81481000  0.49007000  0.71020000  1
  H  H135  1  0.91847000  0.38719000  0.71068000  1
  H  H136  1  0.01012000  0.68564000  0.78966000  1
  H  H137  1  0.11323000  0.58245000  0.78954000  1
  H  H138  1  0.98289000  0.22812000  0.66398000  1
  H  H139  1  0.04754000  0.13058000  0.71990000  1
  H  H140  1  0.19933000  0.85329000  0.69834000  1
  H  H141  1  0.29452000  0.79453000  0.63954000  1
  H  H142  1  0.37162000  0.88402000  0.49359000  1
  H  H143  1  0.30161000  0.97912000  0.43722000  1
  H  H144  1  0.02311000  0.12738000  0.42621000  1
  H  H145  1  0.92923000  0.18624000  0.48526000  1
  H  H146  1  0.10404000  0.04373000  0.59344000  1
  H  H147  1  0.17633000  0.99698000  0.54676000  1
  H  H148  1  0.02794000  0.85665000  0.68680000  1
  H  H149  1  0.98736000  0.82551000  0.75599000  1
  H  H150  1  0.14535000  0.05441000  0.82931000  1
  H  H151  1  0.18258000  0.08760000  0.75998000  1
  H  H152  1  0.27068000  0.72154000  0.52782000  1
  H  H153  1  0.37381000  0.61984000  0.53989000  1
  H  H154  1  0.55331000  0.82193000  0.62544000  1
  H  H155  1  0.44986000  0.92317000  0.61379000  1
  H  H156  1  0.06967000  0.97750000  0.38570000  1
  H  H157  1  0.08606000  0.01436000  0.31299000  1
  H  H158  1  0.29524000  0.20861000  0.37987000  1
  H  H159  1  0.27978000  0.16884000  0.45137000  1
  H  H160  1  0.85246000  0.14877000  0.60195000  1
  H  H161  1  0.75146000  0.25421000  0.60734000  1
  H  H162  1  0.90650000  0.41855000  0.54912000  1
  H  H163  1  0.01139000  0.31572000  0.54674000  1
  C  C164  1  0.64245000  0.53249000  0.11345000  1
  C  C165  1  0.67408000  0.51474000  0.15620000  1
  C  C166  1  0.62540000  0.54820000  0.18487000  1
  C  C167  1  0.56387000  0.58886000  0.16091000  1
  C  C168  1  0.49504000  0.62265000  0.17542000  1
  C  C169  1  0.44187000  0.66819000  0.15102000  1
  C  C170  1  0.37333000  0.70631000  0.16758000  1
  C  C171  1  0.34432000  0.75475000  0.13822000  1
  C  C172  1  0.39530000  0.74456000  0.10398000  1
  C  C173  1  0.38620000  0.78886000  0.06894000  1
  C  C174  1  0.42738000  0.77666000  0.03321000  1
  C  C175  1  0.42105000  0.82057000  0.99685000  1
  C  C176  1  0.46922000  0.78557000  0.96838000  1
  C  C177  1  0.50568000  0.71925000  0.98646000  1
  C  C178  1  0.55249000  0.66222000  0.96639000  1
  C  C179  1  0.58398000  0.59585000  0.98467000  1
  C  C180  1  0.62402000  0.53152000  0.96077000  1
  C  C181  1  0.65395000  0.48430000  0.99057000  1
  C  C182  1  0.63371000  0.52229000  0.03259000  1
  C  C183  1  0.66494000  0.49970000  0.07317000  1
  C  C184  1  0.47536000  0.60518000  0.21814000  1
  C  C185  1  0.53057000  0.63835000  0.25878000  1
  C  C186  1  0.51182000  0.61724000  0.29794000  1
  C  C187  1  0.43914000  0.56057000  0.29719000  1
  C  C188  1  0.38225000  0.53001000  0.25679000  1
  C  C189  1  0.40000000  0.55297000  0.21794000  1
  C  C190  1  0.42329000  0.53074000  0.33810000  1
  C  C191  1  0.32858000  0.85386000  0.07094000  1
  C  C192  1  0.24369000  0.83391000  0.04888000  1
  C  C193  1  0.18741000  0.89143000  0.05581000  1
  C  C194  1  0.21610000  0.96961000  0.08491000  1
  C  C195  1  0.30196000  0.99159000  0.10490000  1
  C  C196  1  0.35785000  0.93382000  0.09795000  1
  C  C197  1  0.15445000  0.02743000  0.09481000  1
  C  C198  1  0.57159000  0.67422000  0.92287000  1
  C  C199  1  0.52708000  0.62007000  0.88393000  1
  C  C200  1  0.54768000  0.62896000  0.84341000  1
  C  C201  1  0.61364000  0.69148000  0.84170000  1
  C  C202  1  0.65750000  0.74696000  0.88048000  1
  C  C203  1  0.63558000  0.73854000  0.92090000  1
  C  C204  1  0.63617000  0.69645000  0.79851000  1
  C  C205  1  0.72568000  0.43790000  0.07426000  1
  C  C206  1  0.70845000  0.36361000  0.09083000  1
  C  C207  1  0.76691000  0.30699000  0.09337000  1
  C  C208  1  0.84321000  0.32253000  0.07851000  1
  C  C209  1  0.85968000  0.39541000  0.06072000  1
  C  C210  1  0.80193000  0.45280000  0.05910000  1
  C  C211  1  0.90632000  0.26214000  0.08113000  1
  C  C212  1  0.89355000  0.61253000  0.21084000  1
  C  C213  1  0.92482000  0.59138000  0.17071000  1
  C  C214  1  0.89134000  0.64012000  0.14213000  1
  C  C215  1  0.83784000  0.69107000  0.16356000  1
  C  C216  1  0.79155000  0.74845000  0.14497000  1
  C  C217  1  0.73277000  0.79186000  0.16433000  1
  C  C218  1  0.68374000  0.84749000  0.14211000  1
  C  C219  1  0.63580000  0.88058000  0.17073000  1
  C  C220  1  0.65748000  0.84563000  0.21057000  1
  C  C221  1  0.62797000  0.87267000  0.24979000  1
  C  C222  1  0.65324000  0.84539000  0.28966000  1
  C  C223  1  0.62006000  0.86438000  0.32942000  1
  C  C224  1  0.65422000  0.81651000  0.35830000  1
  C  C225  1  0.70979000  0.76746000  0.33752000  1
  C  C226  1  0.75347000  0.70743000  0.35512000  1
  C  C227  1  0.80923000  0.66106000  0.33461000  1
  C  C228  1  0.85959000  0.60654000  0.35716000  1
  C  C229  1  0.90733000  0.57334000  0.32846000  1
  C  C230  1  0.88374000  0.60705000  0.28844000  1
  C  C231  1  0.91576000  0.58264000  0.24997000  1
  C  C232  1  0.81287000  0.76670000  0.10240000  1
  C  C233  1  0.88451000  0.82519000  0.10406000  1
  C  C234  1  0.90928000  0.84161000  0.06539000  1
  C  C235  1  0.86339000  0.79779000  0.02384000  1
  C  C236  1  0.79208000  0.73840000  0.02209000  1
  C  C237  1  0.76608000  0.72381000  0.06105000  1
  C  C238  1  0.89375000  0.81668000  0.98330000  1
  C  C239  1  0.56650000  0.93403000  0.24968000  1
  C  C240  1  0.58591000  0.01272000  0.27896000  1
  C  C241  1  0.52872000  0.07069000  0.27878000  1
  C  C242  1  0.44944000  0.05104000  0.24988000  1
  C  C243  1  0.42969000  0.97200000  0.22072000  1
  C  C244  1  0.48762000  0.91471000  0.22046000  1
  C  C245  1  0.38814000  0.11343000  0.25008000  1
  C  C246  1  0.73543000  0.68651000  0.39776000  1
  C  C247  1  0.67692000  0.61476000  0.39613000  1
  C  C248  1  0.65985000  0.59087000  0.43488000  1
  C  C249  1  0.70367000  0.63671000  0.47640000  1
  C  C250  1  0.76237000  0.70873000  0.47812000  1
  C  C251  1  0.77787000  0.73386000  0.43909000  1
  C  C252  1  0.68425000  0.60682000  0.51707000  1
  C  C253  1  0.97754000  0.52144000  0.25012000  1
  C  C254  1  0.11980000  0.48995000  0.27248000  1
  C  C255  1  0.06186000  0.54723000  0.27234000  1
  C  C256  1  0.09399000  0.40560000  0.24997000  1
  C  C257  1  0.00971000  0.37965000  0.22756000  1
  C  C258  1  0.95208000  0.43720000  0.22765000  1
  C  C259  1  0.15557000  0.34395000  0.25005000  1
  C  C260  1  0.96655000  0.85727000  0.38627000  1
  C  C261  1  0.98375000  0.82540000  0.34348000  1
  C  C262  1  0.95075000  0.87458000  0.31497000  1
  C  C263  1  0.91056000  0.93636000  0.33899000  1
  C  C264  1  0.87681000  0.00512000  0.32442000  1
  C  C265  1  0.83118000  0.05815000  0.34876000  1
  C  C266  1  0.79273000  0.12641000  0.33213000  1
  C  C267  1  0.74445000  0.15542000  0.36159000  1
  C  C268  1  0.75508000  0.10467000  0.39593000  1
  C  C269  1  0.71111000  0.11387000  0.43110000  1
  C  C270  1  0.72330000  0.07247000  0.46675000  1
  C  C271  1  0.67940000  0.07866000  0.50310000  1
  C  C272  1  0.71459000  0.03054000  0.53158000  1
  C  C273  1  0.78099000  0.99424000  0.51355000  1
  C  C274  1  0.83853000  0.94790000  0.53368000  1
  C  C275  1  0.90484000  0.91648000  0.51534000  1
  C  C276  1  0.96899000  0.87590000  0.53905000  1
  C  C277  1  0.01575000  0.84567000  0.50909000  1
  C  C278  1  0.97764000  0.86627000  0.46717000  1
  C  C279  1  0.99952000  0.83468000  0.42650000  1
  C  C280  1  0.89429000  0.02462000  0.28168000  1
  C  C281  1  0.94733000  0.09950000  0.28197000  1
  C  C282  1  0.97030000  0.11704000  0.24311000  1
  C  C283  1  0.93945000  0.06033000  0.20273000  1
  C  C284  1  0.88213000  0.98805000  0.20192000  1
  C  C285  1  0.86069000  0.96944000  0.24105000  1
  C  C286  1  0.96882000  0.07650000  0.16173000  1
  C  C287  1  0.64639000  0.17189000  0.42929000  1
  C  C288  1  0.66710000  0.25686000  0.45104000  1
  C  C289  1  0.60985000  0.31357000  0.44428000  1
  C  C290  1  0.53102000  0.28525000  0.41547000  1
  C  C291  1  0.50861000  0.19935000  0.39571000  1
  C  C292  1  0.56603000  0.14304000  0.40246000  1
  C  C293  1  0.47263000  0.34693000  0.40565000  1
  C  C294  1  0.82659000  0.92889000  0.57721000  1
  C  C295  1  0.88110000  0.97290000  0.61618000  1
  C  C296  1  0.87187000  0.95217000  0.65662000  1
  C  C297  1  0.80911000  0.88649000  0.65824000  1
  C  C298  1  0.75354000  0.84269000  0.61939000  1
  C  C299  1  0.76218000  0.86501000  0.57910000  1
  C  C300  1  0.80358000  0.86451000  0.70148000  1
  C  C301  1  0.06103000  0.77372000  0.42530000  1
  C  C302  1  0.13501000  0.79089000  0.40855000  1
  C  C303  1  0.19176000  0.73269000  0.40587000  1
  C  C304  1  0.17686000  0.65674000  0.42108000  1
  C  C305  1  0.10428000  0.64028000  0.43903000  1
  C  C306  1  0.04656000  0.69764000  0.44066000  1
  C  C307  1  0.23676000  0.59363000  0.41821000  1
  C  C308  1  0.35755000  0.46751000  0.88655000  1
  C  C309  1  0.32591000  0.48524000  0.84379000  1
  C  C310  1  0.37457000  0.45177000  0.81512000  1
  C  C311  1  0.43610000  0.41113000  0.83909000  1
  C  C312  1  0.50494000  0.37731000  0.82460000  1
  C  C313  1  0.55813000  0.33180000  0.84900000  1
  C  C314  1  0.62667000  0.29369000  0.83242000  1
  C  C315  1  0.65568000  0.24525000  0.86179000  1
  C  C316  1  0.60472000  0.25544000  0.89603000  1
  C  C317  1  0.61383000  0.21113000  0.93105000  1
  C  C318  1  0.57265000  0.22332000  0.96678000  1
  C  C319  1  0.57895000  0.17943000  0.00315000  1
  C  C320  1  0.53078000  0.21444000  0.03161000  1
  C  C321  1  0.49434000  0.28073000  0.01348000  1
  C  C322  1  0.44747000  0.33773000  0.03350000  1
  C  C323  1  0.41605000  0.40418000  0.01529000  1
  C  C324  1  0.37600000  0.46848000  0.03922000  1
  C  C325  1  0.34605000  0.51571000  0.00942000  1
  C  C326  1  0.36629000  0.47774000  0.96740000  1
  C  C327  1  0.33506000  0.50029000  0.92682000  1
  C  C328  1  0.52464000  0.39482000  0.78188000  1
  C  C329  1  0.46941000  0.36164000  0.74124000  1
  C  C330  1  0.48813000  0.38278000  0.70209000  1
  C  C331  1  0.56077000  0.43940000  0.70283000  1
  C  C332  1  0.61768000  0.47005000  0.74323000  1
  C  C333  1  0.59998000  0.44703000  0.78209000  1
  C  C334  1  0.57666000  0.46898000  0.66190000  1
  C  C335  1  0.67142000  0.14614000  0.92905000  1
  C  C336  1  0.75630000  0.16609000  0.95114000  1
  C  C337  1  0.81255000  0.10855000  0.94419000  1
  C  C338  1  0.78387000  0.03040000  0.91508000  1
  C  C339  1  0.69798000  0.00838000  0.89508000  1
  C  C340  1  0.64208000  0.06617000  0.90204000  1
  C  C341  1  0.84555000  0.97260000  0.90510000  1
  C  C342  1  0.42832000  0.32569000  0.07698000  1
  C  C343  1  0.47284000  0.37985000  0.11590000  1
  C  C344  1  0.45216000  0.37087000  0.15642000  1
  C  C345  1  0.38629000  0.30837000  0.15827000  1
  C  C346  1  0.34243000  0.25292000  0.11939000  1
  C  C347  1  0.36433000  0.26135000  0.07894000  1
  C  C348  1  0.36379000  0.30320000  0.20155000  1
  C  C349  1  0.27433000  0.56207000  0.92573000  1
  C  C350  1  0.29157000  0.63634000  0.90916000  1
  C  C351  1  0.23313000  0.69298000  0.90665000  1
  C  C352  1  0.15685000  0.67751000  0.92152000  1
  C  C353  1  0.14034000  0.60459000  0.93928000  1
  C  C354  1  0.19807000  0.54717000  0.94089000  1
  C  C355  1  0.09373000  0.73795000  0.91887000  1
  C  C356  1  0.10646000  0.38746000  0.78917000  1
  C  C357  1  0.07519000  0.40861000  0.82929000  1
  C  C358  1  0.10866000  0.35986000  0.85788000  1
  C  C359  1  0.16217000  0.30889000  0.83643000  1
  C  C360  1  0.20847000  0.25151000  0.85499000  1
  C  C361  1  0.26725000  0.20809000  0.83564000  1
  C  C362  1  0.31629000  0.15249000  0.85788000  1
  C  C363  1  0.36424000  0.11937000  0.82927000  1
  C  C364  1  0.34260000  0.15427000  0.78942000  1
  C  C365  1  0.37216000  0.12723000  0.75021000  1
  C  C366  1  0.34686000  0.15456000  0.71036000  1
  C  C367  1  0.38000000  0.13557000  0.67059000  1
  C  C368  1  0.34578000  0.18343000  0.64172000  1
  C  C369  1  0.29020000  0.23248000  0.66250000  1
  C  C370  1  0.24649000  0.29248000  0.64489000  1
  C  C371  1  0.19077000  0.33889000  0.66539000  1
  C  C372  1  0.14041000  0.39343000  0.64284000  1
  C  C373  1  0.09269000  0.42667000  0.67156000  1
  C  C374  1  0.11629000  0.39294000  0.71157000  1
  C  C375  1  0.08422000  0.41731000  0.75002000  1
  C  C376  1  0.18720000  0.23331000  0.89757000  1
  C  C377  1  0.11553000  0.17487000  0.89589000  1
  C  C378  1  0.09076000  0.15850000  0.93457000  1
  C  C379  1  0.13669000  0.20229000  0.97611000  1
  C  C380  1  0.20801000  0.26168000  0.97787000  1
  C  C381  1  0.23401000  0.27625000  0.93890000  1
  C  C382  1  0.10611000  0.18331000  0.01657000  1
  C  C383  1  0.43365000  0.06582000  0.75032000  1
  C  C384  1  0.41430000  0.98713000  0.72105000  1
  C  C385  1  0.47148000  0.92916000  0.72123000  1
  C  C386  1  0.55073000  0.94887000  0.75015000  1
  C  C387  1  0.57044000  0.02784000  0.77927000  1
  C  C388  1  0.51252000  0.08509000  0.77952000  1
  C  C389  1  0.61188000  0.88655000  0.74998000  1
  C  C390  1  0.26452000  0.31344000  0.60225000  1
  C  C391  1  0.32302000  0.38521000  0.60392000  1
  C  C392  1  0.34015000  0.40915000  0.56519000  1
  C  C393  1  0.29633000  0.36324000  0.52366000  1
  C  C394  1  0.23763000  0.29125000  0.52190000  1
  C  C395  1  0.22209000  0.26609000  0.56091000  1
  C  C396  1  0.31599000  0.39317000  0.48309000  1
  C  C397  1  0.02241000  0.47850000  0.74986000  1
  C  C398  1  0.88013000  0.51000000  0.72748000  1
  C  C399  1  0.93809000  0.45274000  0.72765000  1
  C  C400  1  0.90606000  0.59434000  0.74998000  1
  C  C401  1  0.99028000  0.62028000  0.77239000  1
  C  C402  1  0.04786000  0.56272000  0.77233000  1
  C  C403  1  0.84474000  0.65594000  0.74998000  1
  C  C404  1  0.03348000  0.14270000  0.61374000  1
  C  C405  1  0.01628000  0.17459000  0.65653000  1
  C  C406  1  0.04927000  0.12542000  0.68505000  1
  C  C407  1  0.08944000  0.06362000  0.66103000  1
  C  C408  1  0.12320000  0.99486000  0.67559000  1
  C  C409  1  0.16882000  0.94185000  0.65126000  1
  C  C410  1  0.20727000  0.87358000  0.66788000  1
  C  C411  1  0.25555000  0.84457000  0.63842000  1
  C  C412  1  0.24491000  0.89532000  0.60408000  1
  C  C413  1  0.28885000  0.88610000  0.56891000  1
  C  C414  1  0.27671000  0.92750000  0.53327000  1
  C  C415  1  0.32061000  0.92132000  0.49692000  1
  C  C416  1  0.28543000  0.96945000  0.46845000  1
  C  C417  1  0.21904000  0.00577000  0.48648000  1
  C  C418  1  0.16151000  0.05211000  0.46635000  1
  C  C419  1  0.09516000  0.08350000  0.48468000  1
  C  C420  1  0.03103000  0.12409000  0.46097000  1
  C  C421  1  0.98427000  0.15431000  0.49092000  1
  C  C422  1  0.02237000  0.13368000  0.53283000  1
  C  C423  1  0.00056000  0.16525000  0.57351000  1
  C  C424  1  0.10569000  0.97536000  0.71833000  1
  C  C425  1  0.05261000  0.90048000  0.71802000  1
  C  C426  1  0.02968000  0.88294000  0.75689000  1
  C  C427  1  0.06057000  0.93964000  0.79730000  1
  C  C428  1  0.11783000  0.01191000  0.79807000  1
  C  C429  1  0.13927000  0.03057000  0.75895000  1
  C  C430  1  0.03129000  0.92344000  0.83832000  1
  C  C431  1  0.35357000  0.82808000  0.57070000  1
  C  C432  1  0.33292000  0.74310000  0.54894000  1
  C  C433  1  0.39019000  0.68640000  0.55569000  1
  C  C434  1  0.46901000  0.71470000  0.58451000  1
  C  C435  1  0.49136000  0.80059000  0.60424000  1
  C  C436  1  0.43394000  0.85690000  0.59751000  1
  C  C437  1  0.52752000  0.65339000  0.59452000  1
  C  C438  1  0.17343000  0.07115000  0.42283000  1
  C  C439  1  0.11890000  0.02713000  0.38386000  1
  C  C440  1  0.12815000  0.04783000  0.34341000  1
  C  C441  1  0.19098000  0.11353000  0.34181000  1
  C  C442  1  0.24653000  0.15732000  0.38067000  1
  C  C443  1  0.23786000  0.13502000  0.42097000  1
  C  C444  1  0.19672000  0.13573000  0.29855000  1
  C  C445  1  0.93911000  0.22617000  0.57470000  1
  C  C446  1  0.86517000  0.20885000  0.59147000  1
  C  C447  1  0.80842000  0.26704000  0.59411000  1
  C  C448  1  0.82334000  0.34298000  0.57889000  1
  C  C449  1  0.89595000  0.35959000  0.56096000  1
  C  C450  1  0.95368000  0.30224000  0.55934000  1
  C  C451  1  0.76283000  0.40585000  0.58169000  1
  N  N452  1  0.57873000  0.58084000  0.11832000  1
  N  N453  1  0.45281000  0.69034000  0.11156000  1
  N  N454  1  0.47978000  0.71694000  0.02593000  1
  N  N455  1  0.58783000  0.58757000  0.02798000  1
  N  N456  1  0.84034000  0.67191000  0.20500000  1
  N  N457  1  0.71575000  0.79088000  0.20606000  1
  N  N458  1  0.70878000  0.78815000  0.29629000  1
  N  N459  1  0.82481000  0.66117000  0.29276000  1
  N  N460  1  0.91859000  0.92137000  0.38158000  1
  N  N461  1  0.80929000  0.04717000  0.38825000  1
  N  N462  1  0.78302000  0.01994000  0.47399000  1
  N  N463  1  0.91278000  0.91266000  0.47198000  1
  N  N464  1  0.42127000  0.41917000  0.88168000  1
  N  N465  1  0.54720000  0.30966000  0.88845000  1
  N  N466  1  0.52027000  0.28305000  0.97404000  1
  N  N467  1  0.41220000  0.41249000  0.97200000  1
  N  N468  1  0.15967000  0.32809000  0.79501000  1
  N  N469  1  0.28431000  0.20904000  0.79391000  1
  N  N470  1  0.29129000  0.21180000  0.70374000  1
  N  N471  1  0.17523000  0.33882000  0.70725000  1
  N  N472  1  0.08143000  0.07859000  0.61844000  1
  N  N473  1  0.19070000  0.95283000  0.61176000  1
  N  N474  1  0.21700000  0.98006000  0.52604000  1
  N  N475  1  0.08722000  0.08730000  0.52803000  1
  O  O476  1  0.37300000  0.45857000  0.33319000  1
  O  O477  1  0.45538000  0.57146000  0.37637000  1
  O  O478  1  0.17966000  0.09571000  0.12546000  1
  O  O479  1  0.07915000  0.01035000  0.07380000  1
  O  O480  1  0.70364000  0.74505000  0.79642000  1
  O  O481  1  0.58923000  0.65160000  0.76334000  1
  O  O482  1  0.90454000  0.21048000  0.10814000  1
  O  O483  1  0.96176000  0.26232000  0.05634000  1
  O  O484  1  0.85973000  0.77665000  0.94435000  1
  O  O485  1  0.95696000  0.87702000  0.98944000  1
  O  O486  1  0.31472000  0.09053000  0.22514000  1
  O  O487  1  0.41151000  0.18664000  0.27505000  1
  O  O488  1  0.62696000  0.54094000  0.51095000  1
  O  O489  1  0.72271000  0.64220000  0.55605000  1
  O  O490  1  0.22974000  0.36837000  0.27355000  1
  O  O491  1  0.13107000  0.26989000  0.22662000  1
  O  O492  1  0.04119000  0.12701000  0.16676000  1
  O  O493  1  0.92898000  0.04418000  0.12358000  1
  O  O494  1  0.40423000  0.32156000  0.37505000  1
  O  O495  1  0.49011000  0.42227000  0.42675000  1
  O  O496  1  0.75514000  0.79697000  0.70350000  1
  O  O497  1  0.84783000  0.91160000  0.73671000  1
  O  O498  1  0.23725000  0.53860000  0.44323000  1
  O  O499  1  0.28801000  0.59491000  0.39088000  1
  O  O500  1  0.62716000  0.54109000  0.66666667  1
  O  O501  1  0.54440000  0.42830000  0.62362000  1
  O  O502  1  0.82057000  0.90426000  0.87457000  1
  O  O503  1  0.92101000  0.99001000  0.92623000  1
  O  O504  1  0.29661000  0.25432000  0.20353000  1
  O  O505  1  0.41048000  0.34821000  0.23685000  1
  O  O506  1  0.09560000  0.78969000  0.89185000  1
  O  O507  1  0.03829000  0.73777000  0.94360000  1
  O  O508  1  0.14038000  0.22335000  0.05557000  1
  O  O509  1  0.04276000  0.12328000  0.01053000  1
  O  O510  1  0.68547000  0.90922000  0.77490000  1
  O  O511  1  0.58832000  0.81344000  0.72496000  1
  O  O512  1  0.37344000  0.45877000  0.48919000  1
  O  O513  1  0.27720000  0.35797000  0.44402000  1
  O  O514  1  0.77049000  0.63164000  0.72662000  1
  O  O515  1  0.86906000  0.73004000  0.77346000  1
  O  O516  1  0.95902000  0.87287000  0.83330000  1
  O  O517  1  0.07129000  0.95608000  0.87648000  1
  O  O518  1  0.59570000  0.67876000  0.62520000  1
  O  O519  1  0.50985000  0.57788000  0.57343000  1
  O  O520  1  0.24513000  0.20304000  0.29646000  1
  O  O521  1  0.15220000  0.08849000  0.26335000  1
  O  O522  1  0.76287000  0.46149000  0.55702000  1
  O  O523  1  0.71103000  0.40360000  0.60856000  1
