# generated using pymatgen
data_BaH8C14SO6
_symmetry_space_group_name_H-M   'P 1'
_cell_length_a   4.65445000
_cell_length_b   14.12997000
_cell_length_c   23.39221000
_cell_angle_alpha   97.78672000
_cell_angle_beta   89.97278000
_cell_angle_gamma   89.86797000
_symmetry_Int_Tables_number   1
_chemical_formula_structural   BaH8C14SO6
_chemical_formula_sum   'Ba4 H32 C56 S4 O24'
_cell_volume   1524.25098483
_cell_formula_units_Z   4
loop_
 _symmetry_equiv_pos_site_id
 _symmetry_equiv_pos_as_xyz
  1  'x, y, z'
loop_
 _atom_site_type_symbol
 _atom_site_label
 _atom_site_symmetry_multiplicity
 _atom_site_fract_x
 _atom_site_fract_y
 _atom_site_fract_z
 _atom_site_occupancy
  Ba  Ba1  1  0.68781000  0.11077000  0.74152000  1.0
  Ba  Ba2  1  0.19070000  0.39440000  0.75918000  1.0
  Ba  Ba3  1  0.31218000  0.88924000  0.25848000  1.0
  Ba  Ba4  1  0.80929000  0.60561000  0.24082000  1.0
  H  H1  1  0.80627000  0.93669000  0.85049000  1.0
  H  H2  1  0.66596000  0.79614000  0.89876000  1.0
  H  H3  1  0.53717000  0.78299000  0.77551000  1.0
  H  H4  1  0.39855000  0.64145000  0.82190000  1.0
  H  H5  1  0.75386000  0.75958000  0.09420000  1.0
  H  H6  1  0.64321000  0.72693000  0.98873000  1.0
  H  H7  1  0.40254000  0.55207000  0.96385000  1.0
  H  H8  1  0.50885000  0.58640000  0.07001000  1.0
  H  H9  1  0.30942000  0.56494000  0.65053000  1.0
  H  H10  1  0.16080000  0.70425000  0.60154000  1.0
  H  H11  1  0.03344000  0.72215000  0.72452000  1.0
  H  H12  1  0.88884000  0.86201000  0.67658000  1.0
  H  H13  1  0.24972000  0.73796000  0.40627000  1.0
  H  H14  1  0.14035000  0.77378000  0.51150000  1.0
  H  H15  1  0.89552000  0.94960000  0.53390000  1.0
  H  H16  1  0.00110000  0.91230000  0.42798000  1.0
  H  H17  1  0.19372000  0.06332000  0.14952000  1.0
  H  H18  1  0.33403000  0.20386000  0.10124000  1.0
  H  H19  1  0.46282000  0.21702000  0.22450000  1.0
  H  H20  1  0.60144000  0.35856000  0.17810000  1.0
  H  H21  1  0.24614000  0.24042000  0.90580000  1.0
  H  H22  1  0.35678000  0.27308000  0.01128000  1.0
  H  H23  1  0.59745000  0.44794000  0.03615000  1.0
  H  H24  1  0.49115000  0.41361000  0.92999000  1.0
  H  H25  1  0.69058000  0.43507000  0.34947000  1.0
  H  H26  1  0.83920000  0.29575000  0.39846000  1.0
  H  H27  1  0.96655000  0.27786000  0.27548000  1.0
  H  H28  1  0.11116000  0.13799000  0.32343000  1.0
  H  H29  1  0.75027000  0.26205000  0.59373000  1.0
  H  H30  1  0.85964000  0.22623000  0.48850000  1.0
  H  H31  1  0.10447000  0.05041000  0.46610000  1.0
  H  H32  1  0.99889000  0.08771000  0.57202000  1.0
  C  C1  1  0.29863000  0.95328000  0.78575000  1.0
  C  C2  1  0.19249000  0.87137000  0.81426000  1.0
  C  C3  1  0.94066000  0.87325000  0.84629000  1.0
  C  C4  1  0.85126000  0.79228000  0.87051000  1.0
  C  C5  1  0.35855000  0.78678000  0.80526000  1.0
  C  C6  1  0.27016000  0.70587000  0.82842000  1.0
  C  C7  1  0.02588000  0.70978000  0.86218000  1.0
  C  C8  1  0.20109000  0.70200000  0.15048000  1.0
  C  C9  1  0.14772000  0.68162000  0.08709000  1.0
  C  C10  1  0.90084000  0.71797000  0.06455000  1.0
  C  C11  1  0.83039000  0.69531000  0.00621000  1.0
  C  C12  1  0.01719000  0.63482000  0.97050000  1.0
  C  C13  1  0.25951000  0.59622000  0.99275000  1.0
  C  C14  1  0.32901000  0.61995000  0.05109000  1.0
  C  C15  1  0.80251000  0.55151000  0.71563000  1.0
  C  C16  1  0.69134000  0.63237000  0.68666000  1.0
  C  C17  1  0.43934000  0.62914000  0.65466000  1.0
  C  C18  1  0.34546000  0.70931000  0.62995000  1.0
  C  C19  1  0.85445000  0.71739000  0.69489000  1.0
  C  C20  1  0.76236000  0.79736000  0.67110000  1.0
  C  C21  1  0.51728000  0.79223000  0.63763000  1.0
  C  C22  1  0.69348000  0.79352000  0.34854000  1.0
  C  C23  1  0.64343000  0.81569000  0.41206000  1.0
  C  C24  1  0.39729000  0.78021000  0.43530000  1.0
  C  C25  1  0.32725000  0.80457000  0.49353000  1.0
  C  C26  1  0.51340000  0.86570000  0.52868000  1.0
  C  C27  1  0.75382000  0.90403000  0.50569000  1.0
  C  C28  1  0.82326000  0.87862000  0.44739000  1.0
  C  C29  1  0.70137000  0.04672000  0.21425000  1.0
  C  C30  1  0.80751000  0.12863000  0.18574000  1.0
  C  C31  1  0.05933000  0.12676000  0.15372000  1.0
  C  C32  1  0.14873000  0.20773000  0.12949000  1.0
  C  C33  1  0.64144000  0.21323000  0.19474000  1.0
  C  C34  1  0.72984000  0.29414000  0.17159000  1.0
  C  C35  1  0.97411000  0.29023000  0.13782000  1.0
  C  C36  1  0.79890000  0.29801000  0.84952000  1.0
  C  C37  1  0.85227000  0.31839000  0.91291000  1.0
  C  C38  1  0.09916000  0.28204000  0.93545000  1.0
  C  C39  1  0.16961000  0.30470000  0.99379000  1.0
  C  C40  1  0.98281000  0.36519000  0.02950000  1.0
  C  C41  1  0.74049000  0.40379000  0.00725000  1.0
  C  C42  1  0.67099000  0.38006000  0.94891000  1.0
  C  C43  1  0.19748000  0.44850000  0.28437000  1.0
  C  C44  1  0.30865000  0.36764000  0.31334000  1.0
  C  C45  1  0.56066000  0.37086000  0.34534000  1.0
  C  C46  1  0.65453000  0.29070000  0.37005000  1.0
  C  C47  1  0.14554000  0.28262000  0.30511000  1.0
  C  C48  1  0.23764000  0.20264000  0.32890000  1.0
  C  C49  1  0.48272000  0.20778000  0.36238000  1.0
  C  C50  1  0.30652000  0.20649000  0.65146000  1.0
  C  C51  1  0.35657000  0.18432000  0.58795000  1.0
  C  C52  1  0.60271000  0.21980000  0.56471000  1.0
  C  C53  1  0.67274000  0.19543000  0.50647000  1.0
  C  C54  1  0.48659000  0.13431000  0.47132000  1.0
  C  C55  1  0.24617000  0.09597000  0.49431000  1.0
  C  C56  1  0.17673000  0.12139000  0.55262000  1.0
  S  S1  1  0.92231000  0.60886000  0.89581000  1.0
  S  S2  1  0.41490000  0.89241000  0.60321000  1.0
  S  S3  1  0.07769000  0.39114000  0.10419000  1.0
  S  S4  1  0.58510000  0.10760000  0.39680000  1.0
  O  O1  1  0.53829000  0.93810000  0.75985000  1.0
  O  O2  1  0.02188000  0.75701000  0.18070000  1.0
  O  O3  1  0.06260000  0.52085000  0.86881000  1.0
  O  O4  1  0.15812000  0.03266000  0.78809000  1.0
  O  O5  1  0.41346000  0.66187000  0.17193000  1.0
  O  O6  1  0.60840000  0.61426000  0.89763000  1.0
  O  O7  1  0.04292000  0.56750000  0.74074000  1.0
  O  O8  1  0.51357000  0.73775000  0.31942000  1.0
  O  O9  1  0.55426000  0.98023000  0.63041000  1.0
  O  O10  1  0.66556000  0.47177000  0.71441000  1.0
  O  O11  1  0.90134000  0.83350000  0.32552000  1.0
  O  O12  1  0.10097000  0.88606000  0.60011000  1.0
  O  O13  1  0.46171000  0.06191000  0.24015000  1.0
  O  O14  1  0.97811000  0.24300000  0.81931000  1.0
  O  O15  1  0.93740000  0.47916000  0.13120000  1.0
  O  O16  1  0.84188000  0.96735000  0.21192000  1.0
  O  O17  1  0.58654000  0.33814000  0.82808000  1.0
  O  O18  1  0.39160000  0.38575000  0.10237000  1.0
  O  O19  1  0.95707000  0.43251000  0.25926000  1.0
  O  O20  1  0.48642000  0.26226000  0.68059000  1.0
  O  O21  1  0.44573000  0.01978000  0.36960000  1.0
  O  O22  1  0.33443000  0.52823000  0.28559000  1.0
  O  O23  1  0.09865000  0.16651000  0.67448000  1.0
  O  O24  1  0.89903000  0.11395000  0.39990000  1.0
