# generated using pymatgen
data_EuH6C12N3O7
_symmetry_space_group_name_H-M   'P 1'
_cell_length_a   9.22360000
_cell_length_b   10.36570000
_cell_length_c   12.88390000
_cell_angle_alpha   75.57600000
_cell_angle_beta   69.46900000
_cell_angle_gamma   86.16800000
_symmetry_Int_Tables_number   1
_chemical_formula_structural   EuH6C12N3O7
_chemical_formula_sum   'Eu2 H12 C24 N6 O14'
_cell_volume   1116.92757411
_cell_formula_units_Z   2
loop_
 _symmetry_equiv_pos_site_id
 _symmetry_equiv_pos_as_xyz
  1  'x, y, z'
loop_
 _atom_site_type_symbol
 _atom_site_label
 _atom_site_symmetry_multiplicity
 _atom_site_fract_x
 _atom_site_fract_y
 _atom_site_fract_z
 _atom_site_occupancy
  Eu  Eu1  1  0.95574000  0.75083000  0.99803000  1.0
  Eu  Eu2  1  0.04426000  0.24917000  0.00197000  1.0
  H  H1  1  0.37730000  0.43230000  0.69050000  1.0
  H  H2  1  0.10660000  0.74540000  0.64230000  1.0
  H  H3  1  0.24970000  0.78750000  0.45070000  1.0
  H  H4  1  0.92240000  0.93490000  0.69120000  1.0
  H  H5  1  0.17760000  0.24840000  0.66380000  1.0
  H  H6  1  0.24690000  0.28810000  0.46930000  1.0
  H  H7  1  0.62270000  0.56770000  0.30950000  1.0
  H  H8  1  0.89340000  0.25460000  0.35770000  1.0
  H  H9  1  0.75030000  0.21250000  0.54930000  1.0
  H  H10  1  0.07760000  0.06510000  0.30880000  1.0
  H  H11  1  0.82240000  0.75160000  0.33620000  1.0
  H  H12  1  0.75310000  0.71190000  0.53070000  1.0
  C  C1  1  0.13690000  0.55470000  0.81510000  1.0
  C  C2  1  0.43360000  0.53970000  0.52530000  1.0
  C  C3  1  0.35070000  0.50610000  0.64310000  1.0
  C  C4  1  0.22690000  0.58550000  0.68820000  1.0
  C  C5  1  0.18890000  0.69150000  0.61520000  1.0
  C  C6  1  0.27700000  0.71590000  0.50000000  1.0
  C  C7  1  0.99010000  0.05590000  0.83040000  1.0
  C  C8  1  0.03120000  0.03980000  0.52960000  1.0
  C  C9  1  0.98690000  0.00850000  0.64750000  1.0
  C  C10  1  0.03950000  0.08800000  0.70020000  1.0
  C  C11  1  0.13870000  0.19390000  0.63170000  1.0
  C  C12  1  0.17900000  0.21720000  0.51470000  1.0
  C  C13  1  0.86310000  0.44530000  0.18490000  1.0
  C  C14  1  0.56640000  0.46030000  0.47470000  1.0
  C  C15  1  0.64930000  0.49390000  0.35690000  1.0
  C  C16  1  0.77310000  0.41450000  0.31180000  1.0
  C  C17  1  0.81110000  0.30850000  0.38480000  1.0
  C  C18  1  0.72300000  0.28410000  0.50000000  1.0
  C  C19  1  0.00990000  0.94410000  0.16960000  1.0
  C  C20  1  0.96880000  0.96020000  0.47040000  1.0
  C  C21  1  0.01310000  0.99150000  0.35250000  1.0
  C  C22  1  0.96050000  0.91200000  0.29980000  1.0
  C  C23  1  0.86130000  0.80610000  0.36830000  1.0
  C  C24  1  0.82100000  0.78280000  0.48530000  1.0
  N  N1  1  0.39730000  0.64360000  0.45460000  1.0
  N  N2  1  0.12610000  0.14340000  0.46250000  1.0
  N  N3  1  0.62360000  0.76050000  0.04750000  1.0
  N  N4  1  0.60270000  0.35640000  0.54540000  1.0
  N  N5  1  0.87390000  0.85660000  0.53750000  1.0
  N  N6  1  0.37640000  0.23950000  0.95250000  1.0
  O  O1  1  0.16770000  0.45060000  0.87550000  1.0
  O  O2  1  0.03700000  0.63750000  0.85100000  1.0
  O  O3  1  0.90640000  0.95450000  0.88570000  1.0
  O  O4  1  0.03670000  0.13560000  0.86980000  1.0
  O  O5  1  0.71290000  0.72110000  0.96170000  1.0
  O  O6  1  0.68030000  0.80270000  0.10690000  1.0
  O  O7  1  0.48200000  0.75690000  0.06790000  1.0
  O  O8  1  0.83230000  0.54940000  0.12450000  1.0
  O  O9  1  0.96300000  0.36250000  0.14900000  1.0
  O  O10  1  0.09360000  0.04550000  0.11430000  1.0
  O  O11  1  0.96330000  0.86440000  0.13020000  1.0
  O  O12  1  0.28710000  0.27890000  0.03830000  1.0
  O  O13  1  0.31970000  0.19730000  0.89310000  1.0
  O  O14  1  0.51800000  0.24310000  0.93210000  1.0
