# generated using pymatgen
data_H9C14(NO2)2
_symmetry_space_group_name_H-M   'P 1'
_cell_length_a   10.92496667
_cell_length_b   23.45910000
_cell_length_c   30.14470000
_cell_angle_alpha   90.00000000
_cell_angle_beta   90.00000000
_cell_angle_gamma   90.00000000
_symmetry_Int_Tables_number   1
_chemical_formula_structural   H9C14(NO2)2
_chemical_formula_sum   'H72 C112 N16 O32'
_cell_volume   7725.78171234
_cell_formula_units_Z   8
loop_
 _symmetry_equiv_pos_site_id
 _symmetry_equiv_pos_as_xyz
  1  'x, y, z'
loop_
 _atom_site_type_symbol
 _atom_site_label
 _atom_site_symmetry_multiplicity
 _atom_site_fract_x
 _atom_site_fract_y
 _atom_site_fract_z
 _atom_site_occupancy
  C  1  1  0.92161400  0.99464700  0.98394300  1
  C  2  1  0.84589800  0.94424400  0.98796900  1
  C  3  1  0.75591500  0.92798700  0.95630800  1
  C  4  1  0.74695800  0.96339700  0.91852100  1
  C  5  1  0.81532800  0.01390800  0.91307100  1
  C  6  1  0.89713800  0.02985600  0.94674600  1
  C  10  1  0.01843000  0.01078800  0.01402100  1
  C  11  1  0.02277200  0.98430500  0.05619500  1
  C  12  1  0.11660800  0.99423400  0.08701300  1
  C  13  1  0.20887500  0.03376200  0.07605900  1
  C  14  1  0.20773400  0.06603500  0.03637700  1
  C  15  1  0.11256200  0.05283200  0.00575500  1
  C  19  1  0.29893300  0.10958600  0.03294400  1
  C  20  1  0.80639700  0.04620500  0.87387700  1
  C  21  1  0.67636700  0.87953200  0.95707700  1
  C  22  1  0.11133200  0.96778800  0.12882400  1
  C  27  1  0.06352300  0.49050800  0.98383900  1
  C  28  1  0.13964300  0.54078400  0.98784600  1
  C  29  1  0.22832000  0.55737700  0.95581400  1
  C  30  1  0.23552900  0.52246300  0.91770400  1
  C  31  1  0.16700200  0.47198400  0.91231600  1
  C  32  1  0.08670300  0.45562200  0.94635000  1
  C  36  1  0.96712900  0.47437300  0.01410100  1
  C  37  1  0.96331600  0.50090700  0.05626400  1
  C  38  1  0.86906400  0.49158400  0.08702600  1
  C  39  1  0.77589700  0.45252900  0.07605900  1
  C  40  1  0.77668400  0.42000400  0.03649300  1
  C  41  1  0.87246100  0.43255000  0.00595000  1
  C  45  1  0.68423100  0.37702300  0.03307000  1
  C  46  1  0.17438900  0.44014800  0.87285000  1
  C  47  1  0.30808800  0.60575300  0.95655000  1
  C  48  1  0.87468900  0.51820500  0.12876500  1
  C  53  1  0.41911700  0.49143900  0.50979100  1
  C  54  1  0.34344200  0.54178200  0.50524900  1
  C  55  1  0.25394000  0.55871800  0.53687700  1
  C  56  1  0.24523600  0.52390200  0.57501600  1
  C  57  1  0.31383500  0.47354200  0.58102000  1
  C  58  1  0.39571200  0.45706600  0.54751900  1
  C  62  1  0.51545200  0.47482100  0.47972600  1
  C  63  1  0.51678400  0.49951900  0.43691500  1
  C  64  1  0.61222600  0.49083400  0.40655500  1
  C  65  1  0.70800600  0.45354600  0.41823200  1
  C  66  1  0.70756700  0.42138100  0.45800400  1
  C  67  1  0.61153900  0.43393100  0.48847700  1
  C  71  1  0.79990500  0.37836600  0.46161600  1
  C  72  1  0.30528700  0.44196000  0.62057600  1
  C  73  1  0.17461700  0.60727600  0.53578900  1
  C  74  1  0.60440400  0.51533600  0.36415300  1
  C  79  1  0.56544400  0.99801900  0.50997300  1
  C  80  1  0.64123300  0.94770600  0.50546800  1
  C  81  1  0.72977300  0.93048000  0.53735100  1
  C  82  1  0.73706000  0.96484700  0.57577200  1
  C  83  1  0.66832700  0.01517200  0.58175400  1
  C  84  1  0.58774500  0.03205900  0.54796700  1
  C  88  1  0.46958800  0.01472900  0.47973600  1
  C  89  1  0.46879700  0.99007400  0.43691200  1
  C  90  1  0.37316300  0.99833900  0.40656800  1
  C  91  1  0.27660500  0.03516900  0.41826500  1
  C  92  1  0.27663600  0.06748200  0.45797100  1
  C  93  1  0.37309800  0.05544700  0.48839400  1
  C  97  1  0.18326800  0.11001800  0.46157600  1
  C  98  1  0.67558100  0.04634200  0.62153500  1
  C  99  1  0.80913800  0.88194400  0.53627300  1
  C  100  1  0.38128700  0.97372600  0.36421600  1
  C  105  1  0.57641200  0.29143200  0.00411300  1
  C  106  1  0.52724700  0.26828700  0.04403300  1
  C  107  1  0.44721400  0.22047000  0.04386400  1
  C  108  1  0.40538700  0.19513200  0.00367500  1
  C  109  1  0.45002000  0.21988800  0.96387200  1
  C  110  1  0.53687100  0.26523100  0.96414300  1
  C  121  1  0.07589800  0.19579500  0.49052000  1
  C  122  1  0.02770200  0.21925700  0.45056300  1
  C  123  1  0.94836800  0.26734500  0.45067600  1
  C  124  1  0.90596500  0.29256800  0.49082900  1
  C  125  1  0.94958600  0.26748200  0.53066000  1
  C  126  1  0.03601400  0.22194900  0.53046400  1
  C  137  1  0.41080100  0.69291000  0.98553500  1
  C  138  1  0.45389600  0.71823800  0.94550400  1
  C  139  1  0.53108600  0.76706000  0.94558700  1
  C  140  1  0.57503600  0.79187700  0.98569200  1
  C  141  1  0.53413400  0.76585000  0.02554900  1
  C  142  1  0.45265600  0.71838800  0.02547600  1
  C  153  1  0.91102800  0.79459400  0.50720600  1
  C  154  1  0.95388400  0.76915200  0.54723300  1
  C  155  1  0.03050400  0.72012300  0.54715700  1
  C  156  1  0.07403700  0.69510100  0.50706700  1
  C  157  1  0.03332500  0.72121400  0.46721300  1
  C  158  1  0.95250200  0.76893900  0.46727900  1
  C  169  1  0.22138700  0.96517800  0.20133500  1
  C  170  1  0.34184500  0.97471800  0.21654500  1
  C  171  1  0.36811500  0.97321900  0.26224400  1
  C  172  1  0.27156500  0.96525700  0.29300300  1
  C  173  1  0.15120800  0.95562300  0.27773600  1
  C  174  1  0.12636000  0.95355900  0.23192700  1
  C  185  1  0.76450000  0.52186400  0.20120200  1
  C  186  1  0.64384100  0.51296600  0.21644500  1
  C  187  1  0.61753900  0.51500200  0.26213200  1
  C  188  1  0.71419000  0.52285600  0.29286300  1
  C  189  1  0.83473900  0.53186500  0.27756400  1
  C  190  1  0.85968700  0.53339300  0.23175100  1
  C  201  1  0.76345300  0.02156200  0.79339100  1
  C  202  1  0.75548500  0.96938900  0.77030600  1
  C  203  1  0.73916400  0.96948900  0.72413900  1
  C  204  1  0.72623600  0.02173300  0.70145600  1
  C  205  1  0.73245500  0.07409600  0.72449900  1
  C  206  1  0.75521800  0.07403600  0.77060800  1
  C  217  1  0.21389500  0.46545200  0.79230900  1
  C  218  1  0.21944600  0.51772300  0.76926400  1
  C  219  1  0.23577500  0.51785300  0.72309800  1
  C  220  1  0.25113600  0.46577800  0.70037600  1
  C  221  1  0.24680100  0.41332600  0.72335000  1
  C  222  1  0.22402700  0.41309600  0.76945800  1
  H  7  1  0.85940800  0.91593700  0.01314900  1
  H  8  1  0.94242400  0.06749700  0.94251400  1
  H  9  1  0.68449600  0.95328900  0.89435100  1
  H  16  1  0.95345300  0.95816300  0.06621300  1
  H  17  1  0.27496000  0.04197800  0.09934300  1
  H  18  1  0.11603200  0.07401700  0.97625700  1
  H  23  1  0.35909000  0.11043800  0.05879600  1
  H  24  1  0.84823100  0.08495800  0.87054600  1
  H  25  1  0.62025400  0.87685100  0.93022900  1
  H  26  1  0.03582400  0.94478200  0.13770800  1
  H  33  1  0.12709400  0.56888900  0.01322200  1
  H  34  1  0.04112100  0.41806700  0.94208600  1
  H  35  1  0.29693700  0.53286000  0.89325400  1
  H  42  1  0.03313000  0.52676400  0.06626300  1
  H  43  1  0.70941200  0.44481300  0.09929700  1
  H  44  1  0.86867500  0.41125300  0.97650800  1
  H  49  1  0.62285700  0.37730000  0.05850400  1
  H  50  1  0.13323100  0.40120600  0.86973600  1
  H  51  1  0.36294300  0.60884900  0.92939800  1
  H  52  1  0.95062200  0.54093000  0.13760500  1
  H  59  1  0.35715400  0.56963000  0.47975200  1
  H  60  1  0.44141400  0.41958000  0.55209300  1
  H  61  1  0.18305100  0.53451800  0.59913600  1
  H  68  1  0.44518600  0.52406400  0.42645900  1
  H  69  1  0.77463400  0.44587500  0.39501700  1
  H  70  1  0.61584500  0.41332900  0.51822000  1
  H  75  1  0.86045100  0.37780300  0.43587000  1
  H  76  1  0.34642500  0.40304000  0.62407300  1
  H  77  1  0.11851300  0.61022200  0.56261300  1
  H  78  1  0.52444000  0.53380800  0.35386600  1
  H  85  1  0.62849100  0.92014200  0.47972200  1
  H  86  1  0.54188600  0.06949700  0.55257400  1
  H  87  1  0.79833700  0.95395500  0.60012200  1
  H  94  1  0.54079700  0.96577600  0.42647600  1
  H  95  1  0.20974400  0.04248400  0.39507100  1
  H  96  1  0.36835300  0.07603100  0.51813700  1
  H  101  1  0.12177600  0.10966000  0.43616600  1
  H  102  1  0.63498600  0.08538800  0.62501800  1
  H  103  1  0.86450600  0.87873400  0.56328300  1
  H  104  1  0.46149700  0.95544800  0.35396900  1
  H  112  1  0.46365800  0.18489700  0.10021900  1
  H  116  1  0.34350000  0.21769300  0.91460400  1
  H  117  1  0.50098900  0.30721000  0.09845800  1
  H  118  1  0.52452600  0.31494100  0.91496200  1
  H  128  1  0.96671800  0.30341200  0.39461300  1
  H  132  1  0.84223600  0.26952600  0.57969700  1
  H  133  1  0.00184700  0.18058800  0.39601300  1
  H  134  1  0.02218600  0.17208400  0.57950100  1
  H  144  1  0.50632200  0.80447000  0.89040600  1
  H  148  1  0.51088000  0.81593700  0.07397200  1
  H  149  1  0.47744700  0.68147800  0.89000000  1
  H  150  1  0.47693500  0.66763600  0.07341200  1
  H  160  1  0.00548700  0.68287500  0.60239400  1
  H  164  1  0.00916700  0.67120000  0.41880300  1
  H  165  1  0.97791100  0.80585800  0.60273600  1
  H  166  1  0.97743900  0.81948700  0.41925700  1
  H  176  1  0.48595600  0.02820400  0.27934900  1
  H  180  1  0.05454300  0.90986200  0.31569700  1
  H  181  1  0.43395100  0.02843000  0.18354700  1
  H  182  1  0.99074100  0.90709000  0.21819700  1
  H  192  1  0.49862700  0.46065600  0.27950500  1
  H  196  1  0.93220800  0.57758000  0.31528900  1
  H  197  1  0.55081600  0.45932600  0.18371600  1
  H  198  1  0.99618700  0.57920100  0.21781900  1
  H  208  1  0.64717700  0.90789300  0.70091900  1
  H  212  1  0.80083100  0.13496800  0.69187600  1
  H  213  1  0.85072500  0.90904700  0.79373200  1
  H  214  1  0.84229600  0.13900900  0.78966800  1
  H  224  1  0.32557400  0.58030000  0.70010600  1
  H  228  1  0.18170200  0.35186900  0.69053000  1
  H  229  1  0.12210900  0.57717600  0.79291100  1
  H  230  1  0.14016400  0.34726900  0.78861100  1
  N  119  1  0.65722400  0.33678700  0.00179000  1
  N  120  1  0.32665400  0.14902800  0.00114400  1
  N  135  1  0.15642900  0.15032200  0.49283900  1
  N  136  1  0.82719100  0.33867600  0.49329400  1
  N  151  1  0.33610100  0.64536300  0.98819800  1
  N  152  1  0.64964900  0.83944000  0.98850200  1
  N  167  1  0.83673900  0.84231400  0.50457600  1
  N  168  1  0.14817800  0.64734400  0.50429400  1
  N  183  1  0.20359300  0.97444200  0.15780100  1
  N  184  1  0.28395100  0.97302200  0.33699700  1
  N  199  1  0.78216600  0.51216200  0.15771500  1
  N  200  1  0.70165000  0.51548100  0.33689100  1
  N  215  1  0.77894900  0.01638700  0.83724400  1
  N  216  1  0.70758400  0.01674300  0.65776400  1
  N  231  1  0.19968400  0.47039800  0.83623600  1
  N  232  1  0.27109400  0.47106800  0.65678200  1
  O  111  1  0.39852600  0.20468900  0.08367200  1
  O  113  1  0.56846300  0.28594100  0.08444200  1
  O  114  1  0.41695300  0.19679500  0.92421600  1
  O  115  1  0.58084000  0.28465000  0.92466000  1
  O  127  1  0.90093200  0.28358400  0.41079100  1
  O  129  1  0.06939900  0.20158400  0.41022400  1
  O  130  1  0.91592000  0.29041300  0.57030900  1
  O  131  1  0.07907400  0.20224200  0.56999400  1
  O  143  1  0.57416600  0.78459300  0.90540200  1
  O  145  1  0.40999200  0.70126800  0.90529200  1
  O  146  1  0.57205100  0.78724400  0.06524100  1
  O  147  1  0.41562600  0.69647200  0.06510800  1
  O  159  1  0.07349700  0.70256800  0.58735300  1
  O  161  1  0.91022200  0.78623300  0.58745300  1
  O  162  1  0.07084200  0.69966200  0.42752100  1
  O  163  1  0.91565500  0.79091100  0.42764300  1
  O  175  1  0.48401900  0.98657400  0.27520500  1
  O  177  1  0.43402400  0.98676600  0.18745200  1
  O  178  1  0.05651700  0.95026100  0.30692200  1
  O  179  1  0.00773300  0.94828100  0.21896600  1
  O  191  1  0.50138200  0.50224500  0.27516200  1
  O  193  1  0.55147500  0.50102200  0.18740500  1
  O  194  1  0.92949100  0.53711000  0.30674000  1
  O  195  1  0.97843700  0.53808800  0.21880400  1
  O  207  1  0.73421200  0.91859300  0.70226600  1
  O  209  1  0.76303200  0.91836700  0.79189200  1
  O  210  1  0.71900800  0.12457600  0.70288300  1
  O  211  1  0.75853700  0.12423000  0.79310700  1
  O  223  1  0.23896600  0.56883300  0.70129700  1
  O  225  1  0.21013300  0.56862900  0.79092100  1
  O  226  1  0.26287000  0.36303000  0.70171200  1
  O  227  1  0.22329000  0.36285000  0.79191500  1
