# generated using pymatgen
data_H7(C5N2)2
_symmetry_space_group_name_H-M   'P 1'
_cell_length_a   21.41562500
_cell_length_b   21.41560000
_cell_length_c   27.07820000
_cell_angle_alpha   90.00000000
_cell_angle_beta   90.00000000
_cell_angle_gamma   119.99988415
_symmetry_Int_Tables_number   1
_chemical_formula_structural   H7(C5N2)2
_chemical_formula_sum   'H168 C240 N96'
_cell_volume   10755.03753255
_cell_formula_units_Z   24
loop_
 _symmetry_equiv_pos_site_id
 _symmetry_equiv_pos_as_xyz
  1  'x, y, z'
loop_
 _atom_site_type_symbol
 _atom_site_label
 _atom_site_symmetry_multiplicity
 _atom_site_fract_x
 _atom_site_fract_y
 _atom_site_fract_z
 _atom_site_occupancy
  C  1  1  0.76988600  0.16129700  0.00970100  1
  C  2  1  0.69773900  0.12903900  0.99206000  1
  C  3  1  0.64234800  0.06220100  0.01061400  1
  C  4  1  0.66066050  0.03179350  0.05041700  1
  C  5  1  0.72980000  0.06558400  0.07240100  1
  C  6  1  0.78662900  0.12858000  0.04980800  1
  C  9  1  0.82543300  0.22065100  0.98354900  1
  C  10  1  0.86095400  0.21000100  0.94227800  1
  C  11  1  0.92442850  0.27030750  0.92264000  1
  C  12  1  0.95297000  0.33790100  0.94658700  1
  C  13  1  0.91872500  0.35036600  0.98677200  1
  C  14  1  0.85448700  0.29056100  0.00455300  1
  C  23  1  0.37270300  0.21509000  0.34300700  1
  C  24  1  0.41265300  0.28722900  0.32535400  1
  C  25  1  0.40134950  0.34267650  0.34397800  1
  C  26  1  0.35281100  0.32444600  0.38387700  1
  C  27  1  0.31728800  0.25527000  0.40580200  1
  C  28  1  0.32332300  0.19839000  0.38316100  1
  C  31  1  0.37647200  0.15950500  0.31686400  1
  C  32  1  0.33036400  0.12407300  0.27554600  1
  C  33  1  0.32716950  0.06058150  0.25591800  1
  C  34  1  0.36611650  0.03195750  0.27991100  1
  C  35  1  0.41280450  0.06617950  0.32011000  1
  C  36  1  0.41724150  0.13040150  0.33792500  1
  C  45  1  0.82371000  0.61248000  0.67639400  1
  C  46  1  0.85582200  0.57237400  0.65890200  1
  C  47  1  0.92257100  0.58372100  0.67757500  1
  C  48  1  0.95295600  0.63249800  0.71735200  1
  C  49  1  0.91929850  0.66808250  0.73916400  1
  C  50  1  0.85641500  0.66201300  0.71645800  1
  C  53  1  0.76433400  0.60859700  0.65022700  1
  C  54  1  0.77499850  0.65463750  0.60887000  1
  C  55  1  0.71466950  0.65772250  0.58917500  1
  C  56  1  0.64712350  0.61889850  0.61322000  1
  C  57  1  0.63465850  0.57222750  0.65342500  1
  C  58  1  0.69443750  0.56778450  0.67124300  1
  C  67  1  0.21309200  0.83269300  0.00683900  1
  C  68  1  0.28371250  0.86162350  0.98713000  1
  C  69  1  0.34308550  0.92486250  0.00654000  1
  C  70  1  0.33029550  0.95676550  0.04801300  1
  C  71  1  0.26193550  0.92707050  0.07087600  1
  C  72  1  0.20152050  0.86656350  0.04867000  1
  C  75  1  0.15423000  0.77627300  0.98087500  1
  C  76  1  0.11831400  0.79196300  0.94231900  1
  C  77  1  0.05165550  0.73527350  0.92344100  1
  C  78  1  0.01981850  0.66712750  0.94695400  1
  C  79  1  0.05410350  0.64935450  0.98443300  1
  C  80  1  0.12293000  0.70487400  0.99981000  1
  C  89  1  0.60086850  0.77185750  0.34017800  1
  C  90  1  0.55921250  0.70122950  0.32047200  1
  C  91  1  0.56309200  0.64186800  0.33989000  1
  C  92  1  0.60786350  0.65469850  0.38132100  1
  C  93  1  0.64648050  0.72305150  0.40419600  1
  C  94  1  0.64636000  0.78345300  0.38198600  1
  C  97  1  0.60332850  0.83070950  0.31419400  1
  C  98  1  0.65495400  0.86667200  0.27565300  1
  C  99  1  0.66490350  0.93331050  0.25675600  1
  C  100  1  0.62844650  0.96503350  0.28020700  1
  C  101  1  0.57646600  0.93081500  0.31773500  1
  C  102  1  0.56326450  0.86203950  0.33315700  1
  C  111  1  0.15228900  0.38418400  0.67352300  1
  C  112  1  0.12320900  0.42576200  0.65384400  1
  C  113  1  0.06010650  0.42196650  0.67344500  1
  C  114  1  0.02841550  0.37737150  0.71498000  1
  C  115  1  0.05817050  0.33870350  0.73774800  1
  C  116  1  0.11862150  0.33880950  0.71542600  1
  C  119  1  0.20872200  0.38183800  0.64750300  1
  C  120  1  0.19310500  0.33036100  0.60887000  1
  C  121  1  0.24984250  0.32048650  0.58997600  1
  C  122  1  0.31799050  0.35686050  0.61347900  1
  C  123  1  0.33566000  0.40867600  0.65110800  1
  C  124  1  0.28005200  0.42177900  0.66658800  1
  C  133  1  0.94709700  0.42299400  0.00244500  1
  C  135  1  0.05793900  0.53864000  0.00889300  1
  C  136  1  0.02042600  0.57593900  0.99974500  1
  C  138  1  0.90790700  0.46036300  0.99971900  1
  C  143  1  0.45693050  0.03764550  0.33574600  1
  C  145  1  0.46187700  0.92694100  0.34223100  1
  C  146  1  0.53668600  0.96444000  0.33306900  1
  C  148  1  0.53350000  0.07691400  0.33284000  1
  C  153  1  0.56203850  0.52813050  0.66912300  1
  C  155  1  0.44637200  0.52321800  0.67553700  1
  C  156  1  0.40898850  0.44835550  0.66659200  1
  C  158  1  0.52468800  0.45154900  0.66639300  1
  C  163  1  0.51853950  0.56902550  0.32508800  1
  C  165  1  0.51426050  0.45388950  0.31774600  1
  C  166  1  0.44006000  0.41626200  0.32911700  1
  C  168  1  0.44237100  0.53134800  0.33082700  1
  C  173  1  0.41593050  0.95311550  0.99175300  1
  C  175  1  0.53110850  0.06393350  0.98456600  1
  C  176  1  0.56869200  0.02732300  0.99591100  1
  C  178  1  0.45359250  0.91461950  0.99760300  1
  C  183  1  0.03157700  0.46630800  0.65865300  1
  C  185  1  0.92083750  0.47071650  0.65148100  1
  C  186  1  0.95740300  0.54488400  0.66289400  1
  C  188  1  0.07008950  0.54245550  0.66471700  1
  C  193  1  0.73485850  0.03738050  0.11925100  1
  C  195  1  0.68794050  0.92808450  0.16708300  1
  C  196  1  0.70186900  0.96690000  0.21169400  1
  C  198  1  0.75133100  0.07759800  0.16390300  1
  C  203  1  0.28393150  0.25007750  0.45263300  1
  C  205  1  0.22144700  0.29714500  0.50025800  1
  C  206  1  0.24642450  0.28347750  0.54492200  1
  C  208  1  0.30758650  0.23373550  0.49735200  1
  C  213  1  0.94737450  0.70142650  0.78600400  1
  C  215  1  0.05682150  0.76365650  0.83381300  1
  C  216  1  0.01799300  0.73863200  0.87840000  1
  C  218  1  0.90729050  0.67764750  0.83070200  1
  C  223  1  0.26054600  0.95631200  0.11807300  1
  C  225  1  0.30860650  0.06577550  0.16555000  1
  C  226  1  0.29344200  0.02689200  0.21020200  1
  C  228  1  0.24402100  0.91619800  0.16275100  1
  C  233  1  0.67721450  0.72447950  0.45135200  1
  C  235  1  0.73862350  0.67636550  0.49880300  1
  C  236  1  0.71476000  0.69141500  0.54341500  1
  C  238  1  0.65370250  0.74107150  0.49605200  1
  C  243  1  0.02898450  0.30785350  0.78490300  1
  C  245  1  0.91935650  0.24628850  0.83226700  1
  C  246  1  0.95812500  0.27018300  0.87694900  1
  C  248  1  0.06895200  0.33138000  0.82963400  1
  C  1009  1  0.76988600  0.16129700  0.52961000  1
  C  1010  1  0.69773900  0.12903900  0.51196900  1
  C  1011  1  0.64234800  0.06220100  0.53052300  1
  C  1012  1  0.66066050  0.03179350  0.57032600  1
  C  1013  1  0.72980000  0.06558400  0.59231000  1
  C  1014  1  0.78662900  0.12858000  0.56971700  1
  C  1017  1  0.82543300  0.22065100  0.50345800  1
  C  1018  1  0.86095400  0.21000100  0.46218700  1
  C  1019  1  0.92442850  0.27030750  0.44254900  1
  C  1020  1  0.95297000  0.33790100  0.46649600  1
  C  1021  1  0.91872500  0.35036600  0.50668100  1
  C  1022  1  0.85448700  0.29056100  0.52446200  1
  C  1031  1  0.37270300  0.21509000  0.86291600  1
  C  1032  1  0.41265300  0.28722900  0.84526300  1
  C  1033  1  0.40134950  0.34267650  0.86388700  1
  C  1034  1  0.35281100  0.32444600  0.90378600  1
  C  1035  1  0.31728800  0.25527000  0.92571100  1
  C  1036  1  0.32332300  0.19839000  0.90307000  1
  C  1039  1  0.37647200  0.15950500  0.83677300  1
  C  1040  1  0.33036400  0.12407300  0.79545500  1
  C  1041  1  0.32716950  0.06058150  0.77582700  1
  C  1042  1  0.36611650  0.03195750  0.79982000  1
  C  1043  1  0.41280450  0.06617950  0.84001900  1
  C  1044  1  0.41724150  0.13040150  0.85783400  1
  C  1053  1  0.82371000  0.61248000  0.19630300  1
  C  1054  1  0.85582200  0.57237400  0.17881100  1
  C  1055  1  0.92257100  0.58372100  0.19748400  1
  C  1056  1  0.95295600  0.63249800  0.23726100  1
  C  1057  1  0.91929850  0.66808250  0.25907300  1
  C  1058  1  0.85641500  0.66201300  0.23636700  1
  C  1061  1  0.76433400  0.60859700  0.17013600  1
  C  1062  1  0.77499850  0.65463750  0.12877900  1
  C  1063  1  0.71466950  0.65772250  0.10908400  1
  C  1064  1  0.64712350  0.61889850  0.13312900  1
  C  1065  1  0.63465850  0.57222750  0.17333400  1
  C  1066  1  0.69443750  0.56778450  0.19115200  1
  C  1075  1  0.21309200  0.83269300  0.52674800  1
  C  1076  1  0.28371250  0.86162350  0.50703900  1
  C  1077  1  0.34308550  0.92486250  0.52644900  1
  C  1078  1  0.33029550  0.95676550  0.56792200  1
  C  1079  1  0.26193550  0.92707050  0.59078500  1
  C  1080  1  0.20152050  0.86656350  0.56857900  1
  C  1083  1  0.15423000  0.77627300  0.50078400  1
  C  1084  1  0.11831400  0.79196300  0.46222800  1
  C  1085  1  0.05165550  0.73527350  0.44335000  1
  C  1086  1  0.01981850  0.66712750  0.46686300  1
  C  1087  1  0.05410350  0.64935450  0.50434200  1
  C  1088  1  0.12293000  0.70487400  0.51971900  1
  C  1097  1  0.60086850  0.77185750  0.86008700  1
  C  1098  1  0.55921250  0.70122950  0.84038100  1
  C  1099  1  0.56309200  0.64186800  0.85979900  1
  C  1100  1  0.60786350  0.65469850  0.90123000  1
  C  1101  1  0.64648050  0.72305150  0.92410500  1
  C  1102  1  0.64636000  0.78345300  0.90189500  1
  C  1105  1  0.60332850  0.83070950  0.83410300  1
  C  1106  1  0.65495400  0.86667200  0.79556200  1
  C  1107  1  0.66490350  0.93331050  0.77666500  1
  C  1108  1  0.62844650  0.96503350  0.80011600  1
  C  1109  1  0.57646600  0.93081500  0.83764400  1
  C  1110  1  0.56326450  0.86203950  0.85306600  1
  C  1119  1  0.15228900  0.38418400  0.19343200  1
  C  1120  1  0.12320900  0.42576200  0.17375300  1
  C  1121  1  0.06010650  0.42196650  0.19335400  1
  C  1122  1  0.02841550  0.37737150  0.23488900  1
  C  1123  1  0.05817050  0.33870350  0.25765700  1
  C  1124  1  0.11862150  0.33880950  0.23533500  1
  C  1127  1  0.20872200  0.38183800  0.16741200  1
  C  1128  1  0.19310500  0.33036100  0.12877900  1
  C  1129  1  0.24984250  0.32048650  0.10988500  1
  C  1130  1  0.31799050  0.35686050  0.13338800  1
  C  1131  1  0.33566000  0.40867600  0.17101700  1
  C  1132  1  0.28005200  0.42177900  0.18649700  1
  C  1141  1  0.94709700  0.42299400  0.52235400  1
  C  1143  1  0.05793900  0.53864000  0.52880200  1
  C  1144  1  0.02042600  0.57593900  0.51965400  1
  C  1146  1  0.90790700  0.46036300  0.51962800  1
  C  1151  1  0.45693050  0.03764550  0.85565500  1
  C  1153  1  0.46187700  0.92694100  0.86214000  1
  C  1154  1  0.53668600  0.96444000  0.85297800  1
  C  1156  1  0.53350000  0.07691400  0.85274900  1
  C  1161  1  0.56203850  0.52813050  0.18903200  1
  C  1163  1  0.44637200  0.52321800  0.19544600  1
  C  1164  1  0.40898850  0.44835550  0.18650100  1
  C  1166  1  0.52468800  0.45154900  0.18630200  1
  C  1171  1  0.51853950  0.56902550  0.84499700  1
  C  1173  1  0.51426050  0.45388950  0.83765500  1
  C  1174  1  0.44006000  0.41626200  0.84902600  1
  C  1176  1  0.44237100  0.53134800  0.85073600  1
  C  1181  1  0.41593050  0.95311550  0.51166200  1
  C  1183  1  0.53110850  0.06393350  0.50447500  1
  C  1184  1  0.56869200  0.02732300  0.51582000  1
  C  1186  1  0.45359250  0.91461950  0.51751200  1
  C  1191  1  0.03157700  0.46630800  0.17856200  1
  C  1193  1  0.92083750  0.47071650  0.17139000  1
  C  1194  1  0.95740300  0.54488400  0.18280300  1
  C  1196  1  0.07008950  0.54245550  0.18462600  1
  C  1201  1  0.73485850  0.03738050  0.63916000  1
  C  1203  1  0.68794050  0.92808450  0.68699200  1
  C  1204  1  0.70186900  0.96690000  0.73160300  1
  C  1206  1  0.75133100  0.07759800  0.68381200  1
  C  1211  1  0.28393150  0.25007750  0.97254200  1
  C  1213  1  0.22144700  0.29714500  0.02016700  1
  C  1214  1  0.24642450  0.28347750  0.06483100  1
  C  1216  1  0.30758650  0.23373550  0.01726100  1
  C  1221  1  0.94737450  0.70142650  0.30591300  1
  C  1223  1  0.05682150  0.76365650  0.35372200  1
  C  1224  1  0.01799300  0.73863200  0.39830900  1
  C  1226  1  0.90729050  0.67764750  0.35061100  1
  C  1231  1  0.26054600  0.95631200  0.63798200  1
  C  1233  1  0.30860650  0.06577550  0.68545900  1
  C  1234  1  0.29344200  0.02689200  0.73011100  1
  C  1236  1  0.24402100  0.91619800  0.68266000  1
  C  1241  1  0.67721450  0.72447950  0.97126100  1
  C  1243  1  0.73862350  0.67636550  0.01871200  1
  C  1244  1  0.71476000  0.69141500  0.06332400  1
  C  1246  1  0.65370250  0.74107150  0.01596100  1
  C  1251  1  0.02898450  0.30785350  0.30481200  1
  C  1253  1  0.91935650  0.24628850  0.35217600  1
  C  1254  1  0.95812500  0.27018300  0.39685800  1
  C  1256  1  0.06895200  0.33138000  0.34954300  1
  H  7  1  0.68639450  0.15208350  0.96282500  1
  H  8  1  0.61995200  0.98751600  0.06773700  1
  H  15  1  0.99651150  0.38175450  0.93102100  1
  H  16  1  0.83034650  0.29749750  0.03509500  1
  H  19  1  0.89630000  0.19721000  0.05127000  1
  H  20  1  0.86775250  0.13079350  0.09136100  1
  H  21  1  0.86400400  0.13360300  0.89827300  1
  H  22  1  0.79470100  0.10033900  0.93602600  1
  H  29  1  0.44687300  0.29847700  0.29602800  1
  H  30  1  0.34920200  0.36516300  0.40115300  1
  H  37  1  0.36639050  0.98838550  0.26436800  1
  H  38  1  0.44836350  0.15456850  0.36844400  1
  H  41  1  0.28207850  0.08867950  0.38452700  1
  H  42  1  0.24436950  0.11727950  0.42470300  1
  H  43  1  0.25103200  0.12112200  0.23147400  1
  H  44  1  0.28702900  0.19038700  0.26926800  1
  H  51  1  0.83288400  0.53808800  0.62960600  1
  H  52  1  0.99720700  0.63603500  0.73469700  1
  H  59  1  0.60329100  0.61857200  0.59761000  1
  H  60  1  0.68748250  0.53668450  0.70177600  1
  H  63  1  0.78787250  0.70316850  0.71775700  1
  H  64  1  0.85418800  0.74102000  0.75792000  1
  H  65  1  0.85136050  0.73408950  0.56489000  1
  H  66  1  0.88466850  0.69819250  0.60274300  1
  H  73  1  0.29163600  0.83819300  0.95658100  1
  H  74  1  0.37381800  0.99878300  0.06514800  1
  H  81  1  0.97338250  0.62598650  0.93215500  1
  H  82  1  0.14812800  0.69443700  0.02811900  1
  H  85  1  0.09127150  0.80270050  0.05265900  1
  H  86  1  0.12520200  0.86819000  0.09359200  1
  H  87  1  0.11781000  0.87308100  0.90245700  1
  H  88  1  0.18967850  0.90081650  0.93734600  1
  H  95  1  0.52774100  0.69326600  0.28998200  1
  H  96  1  0.60640450  0.61119450  0.39844200  1
  H  103  1  0.63382550  0.01153150  0.26545300  1
  H  104  1  0.52765800  0.83685000  0.36148300  1
  H  107  1  0.69286750  0.89371050  0.38587100  1
  H  108  1  0.72445300  0.85978900  0.42679000  1
  H  109  1  0.73653350  0.86711350  0.23573600  1
  H  110  1  0.69237900  0.79526200  0.27063500  1
  H  117  1  0.14653800  0.45711100  0.62327600  1
  H  118  1  0.98628100  0.37868100  0.73209800  1
  H  125  1  0.35915000  0.35154900  0.59872100  1
  H  126  1  0.29040850  0.45733150  0.69494200  1
  H  129  1  0.18234550  0.29225850  0.71912300  1
  H  130  1  0.11708850  0.26081550  0.76022400  1
  H  131  1  0.11200750  0.24893350  0.56882700  1
  H  132  1  0.08427550  0.29296250  0.60381400  1
  H  139  1  0.11296950  0.56434550  0.00805100  1
  H  141  1  0.80385550  0.37903850  0.99040200  1
  H  142  1  0.81445650  0.46102750  0.98860500  1
  H  149  1  0.43279300  0.87188100  0.34183200  1
  H  151  1  0.55616400  0.18091400  0.32331200  1
  H  152  1  0.62755050  0.17032250  0.32145000  1
  H  159  1  0.42042450  0.55233050  0.67502300  1
  H  161  1  0.60591850  0.42882950  0.65650800  1
  H  162  1  0.52390900  0.35746400  0.65479500  1
  H  169  1  0.54362600  0.42822600  0.31723300  1
  H  171  1  0.42056600  0.61306000  0.34126300  1
  H  172  1  0.34932450  0.53110550  0.34576200  1
  H  179  1  0.55664900  0.11896100  0.98383100  1
  H  181  1  0.37178600  0.81105100  0.00769600  1
  H  182  1  0.45369800  0.82168800  0.01228700  1
  H  189  1  0.86580850  0.44146050  0.65033000  1
  H  191  1  0.17365300  0.56422800  0.67489900  1
  H  192  1  0.16295400  0.63545000  0.67963500  1
  H  199  1  0.65879450  0.87302950  0.16635900  1
  H  201  1  0.78162600  0.17906000  0.13937400  1
  H  202  1  0.78038250  0.17116750  0.20025000  1
  H  209  1  0.19606950  0.32679150  0.49942800  1
  H  211  1  0.37818650  0.20258650  0.47294900  1
  H  212  1  0.37167050  0.20420650  0.53382100  1
  H  219  1  0.11185550  0.78914850  0.83298400  1
  H  221  1  0.80552150  0.60737250  0.80615000  1
  H  222  1  0.81349350  0.61375950  0.86702500  1
  H  229  1  0.33748900  0.12085600  0.16495600  1
  H  231  1  0.21061800  0.81429700  0.13769700  1
  H  232  1  0.21223550  0.82174850  0.19867600  1
  H  239  1  0.76480200  0.64746600  0.49820900  1
  H  241  1  0.58484500  0.77402400  0.47103600  1
  H  242  1  0.59071300  0.77239300  0.53201500  1
  H  249  1  0.86429900  0.22050700  0.83160200  1
  H  251  1  0.17092700  0.39985600  0.80467500  1
  H  252  1  0.16330450  0.39411950  0.86565300  1
  H  1015  1  0.68639450  0.15208350  0.48273400  1
  H  1016  1  0.61995200  0.98751600  0.58764600  1
  H  1023  1  0.99651150  0.38175450  0.45093000  1
  H  1024  1  0.83034650  0.29749750  0.55500400  1
  H  1027  1  0.89630000  0.19721000  0.57117900  1
  H  1028  1  0.86775250  0.13079350  0.61127000  1
  H  1029  1  0.86400400  0.13360300  0.41818200  1
  H  1030  1  0.79470100  0.10033900  0.45593500  1
  H  1037  1  0.44687300  0.29847700  0.81593700  1
  H  1038  1  0.34920200  0.36516300  0.92106200  1
  H  1045  1  0.36639050  0.98838550  0.78427700  1
  H  1046  1  0.44836350  0.15456850  0.88835300  1
  H  1049  1  0.28207850  0.08867950  0.90443600  1
  H  1050  1  0.24436950  0.11727950  0.94461200  1
  H  1051  1  0.25103200  0.12112200  0.75138300  1
  H  1052  1  0.28702900  0.19038700  0.78917700  1
  H  1059  1  0.83288400  0.53808800  0.14951500  1
  H  1060  1  0.99720700  0.63603500  0.25460600  1
  H  1067  1  0.60329100  0.61857200  0.11751900  1
  H  1068  1  0.68748250  0.53668450  0.22168500  1
  H  1071  1  0.78787250  0.70316850  0.23766600  1
  H  1072  1  0.85418800  0.74102000  0.27782900  1
  H  1073  1  0.85136050  0.73408950  0.08479900  1
  H  1074  1  0.88466850  0.69819250  0.12265200  1
  H  1081  1  0.29163600  0.83819300  0.47649000  1
  H  1082  1  0.37381800  0.99878300  0.58505700  1
  H  1089  1  0.97338250  0.62598650  0.45206400  1
  H  1090  1  0.14812800  0.69443700  0.54802800  1
  H  1093  1  0.09127150  0.80270050  0.57256800  1
  H  1094  1  0.12520200  0.86819000  0.61350100  1
  H  1095  1  0.11781000  0.87308100  0.42236600  1
  H  1096  1  0.18967850  0.90081650  0.45725500  1
  H  1103  1  0.52774100  0.69326600  0.80989100  1
  H  1104  1  0.60640450  0.61119450  0.91835100  1
  H  1111  1  0.63382550  0.01153150  0.78536200  1
  H  1112  1  0.52765800  0.83685000  0.88139200  1
  H  1115  1  0.69286750  0.89371050  0.90578000  1
  H  1116  1  0.72445300  0.85978900  0.94669900  1
  H  1117  1  0.73653350  0.86711350  0.75564500  1
  H  1118  1  0.69237900  0.79526200  0.79054400  1
  H  1125  1  0.14653800  0.45711100  0.14318500  1
  H  1126  1  0.98628100  0.37868100  0.25200700  1
  H  1133  1  0.35915000  0.35154900  0.11863000  1
  H  1134  1  0.29040850  0.45733150  0.21485100  1
  H  1137  1  0.18234550  0.29225850  0.23903200  1
  H  1138  1  0.11708850  0.26081550  0.28013300  1
  H  1139  1  0.11200750  0.24893350  0.08873600  1
  H  1140  1  0.08427550  0.29296250  0.12372300  1
  H  1147  1  0.11296950  0.56434550  0.52796000  1
  H  1149  1  0.80385550  0.37903850  0.51031100  1
  H  1150  1  0.81445650  0.46102750  0.50851400  1
  H  1157  1  0.43279300  0.87188100  0.86174100  1
  H  1159  1  0.55616400  0.18091400  0.84322100  1
  H  1160  1  0.62755050  0.17032250  0.84135900  1
  H  1167  1  0.42042450  0.55233050  0.19493200  1
  H  1169  1  0.60591850  0.42882950  0.17641700  1
  H  1170  1  0.52390900  0.35746400  0.17470400  1
  H  1177  1  0.54362600  0.42822600  0.83714200  1
  H  1179  1  0.42056600  0.61306000  0.86117200  1
  H  1180  1  0.34932450  0.53110550  0.86567100  1
  H  1187  1  0.55664900  0.11896100  0.50374000  1
  H  1189  1  0.37178600  0.81105100  0.52760500  1
  H  1190  1  0.45369800  0.82168800  0.53219600  1
  H  1197  1  0.86580850  0.44146050  0.17023900  1
  H  1199  1  0.17365300  0.56422800  0.19480800  1
  H  1200  1  0.16295400  0.63545000  0.19954400  1
  H  1207  1  0.65879450  0.87302950  0.68626800  1
  H  1209  1  0.78162600  0.17906000  0.65928300  1
  H  1210  1  0.78038250  0.17116750  0.72015900  1
  H  1217  1  0.19606950  0.32679150  0.01933700  1
  H  1219  1  0.37818650  0.20258650  0.99285800  1
  H  1220  1  0.37167050  0.20420650  0.05373000  1
  H  1227  1  0.11185550  0.78914850  0.35289300  1
  H  1229  1  0.80552150  0.60737250  0.32605900  1
  H  1230  1  0.81349350  0.61375950  0.38693400  1
  H  1237  1  0.33748900  0.12085600  0.68486500  1
  H  1239  1  0.21061800  0.81429700  0.65760600  1
  H  1240  1  0.21223550  0.82174850  0.71858500  1
  H  1247  1  0.76480200  0.64746600  0.01811800  1
  H  1249  1  0.58484500  0.77402400  0.99094500  1
  H  1250  1  0.59071300  0.77239300  0.05192400  1
  H  1257  1  0.86429900  0.22050700  0.35151100  1
  H  1259  1  0.17092700  0.39985600  0.32458400  1
  H  1260  1  0.16330450  0.39411950  0.38556200  1
  N  17  1  0.85573700  0.15545500  0.06624500  1
  N  18  1  0.83692450  0.14272350  0.92315800  1
  N  39  1  0.28100250  0.12927150  0.39955800  1
  N  40  1  0.28718850  0.14816650  0.25639400  1
  N  61  1  0.82966300  0.70442800  0.73273200  1
  N  62  1  0.84225550  0.69777150  0.58967700  1
  N  83  1  0.13390600  0.84300400  0.06703900  1
  N  84  1  0.14517400  0.86059900  0.92494800  1
  N  105  1  0.69037100  0.85107200  0.40037400  1
  N  106  1  0.69679200  0.83986100  0.25832600  1
  N  127  1  0.14231200  0.29483100  0.73374300  1
  N  128  1  0.12447800  0.28859500  0.59147900  1
  N  134  1  0.02045350  0.46535850  0.00610500  1
  N  137  1  0.94731850  0.53358150  0.99661700  1
  N  140  1  0.83592400  0.43057700  0.99253100  1
  N  144  1  0.42599550  0.96433450  0.33960200  1
  N  147  1  0.56734150  0.03752850  0.32977800  1
  N  150  1  0.57565650  0.14886850  0.32549100  1
  N  154  1  0.51963700  0.55905800  0.67285000  1
  N  157  1  0.45146000  0.41774100  0.66329100  1
  N  160  1  0.55439250  0.40935350  0.65885500  1
  N  164  1  0.54989450  0.52720750  0.32010200  1
  N  167  1  0.40912500  0.45820200  0.33441300  1
  N  170  1  0.40087950  0.56137950  0.34006000  1
  N  174  1  0.45777600  0.02629400  0.98677400  1
  N  177  1  0.52674400  0.95444900  0.00113700  1
  N  180  1  0.42346950  0.84302650  0.00659900  1
  N  184  1  0.95844500  0.43499500  0.65351400  1
  N  187  1  0.03025550  0.57577750  0.66825500  1
  N  190  1  0.14165450  0.58391250  0.67384200  1
  N  194  1  0.70331900  0.96433900  0.12366400  1
  N  197  1  0.73316350  0.03973550  0.20686700  1
  N  200  1  0.77489150  0.14910350  0.16792500  1
  N  204  1  0.24256950  0.28180150  0.45692100  1
  N  207  1  0.28792600  0.25210900  0.54024600  1
  N  210  1  0.35549350  0.21014650  0.50147000  1
  N  214  1  0.02046200  0.74272400  0.79042700  1
  N  217  1  0.94514750  0.69725350  0.87366500  1
  N  220  1  0.83571950  0.62996750  0.83470700  1
  N  224  1  0.29300450  0.02943550  0.12213500  1
  N  227  1  0.26209150  0.95401850  0.20575600  1
  N  230  1  0.21878600  0.84435500  0.16646200  1
  N  234  1  0.71787350  0.69200450  0.45541100  1
  N  237  1  0.67333400  0.72287000  0.53905700  1
  N  240  1  0.60702200  0.76621700  0.49978600  1
  N  244  1  0.95583700  0.26725500  0.78891400  1
  N  247  1  0.03101400  0.31172500  0.87259200  1
  N  250  1  0.14074600  0.37814500  0.83341400  1
  N  1025  1  0.85573700  0.15545500  0.58615400  1
  N  1026  1  0.83692450  0.14272350  0.44306700  1
  N  1047  1  0.28100250  0.12927150  0.91946700  1
  N  1048  1  0.28718850  0.14816650  0.77630300  1
  N  1069  1  0.82966300  0.70442800  0.25264100  1
  N  1070  1  0.84225550  0.69777150  0.10958600  1
  N  1091  1  0.13390600  0.84300400  0.58694800  1
  N  1092  1  0.14517400  0.86059900  0.44485700  1
  N  1113  1  0.69037100  0.85107200  0.92028300  1
  N  1114  1  0.69679200  0.83986100  0.77823500  1
  N  1135  1  0.14231200  0.29483100  0.25365200  1
  N  1136  1  0.12447800  0.28859500  0.11138800  1
  N  1142  1  0.02045350  0.46535850  0.52601400  1
  N  1145  1  0.94731850  0.53358150  0.51652600  1
  N  1148  1  0.83592400  0.43057700  0.51244000  1
  N  1152  1  0.42599550  0.96433450  0.85951100  1
  N  1155  1  0.56734150  0.03752850  0.84968700  1
  N  1158  1  0.57565650  0.14886850  0.84540000  1
  N  1162  1  0.51963700  0.55905800  0.19275900  1
  N  1165  1  0.45146000  0.41774100  0.18320000  1
  N  1168  1  0.55439250  0.40935350  0.17876400  1
  N  1172  1  0.54989450  0.52720750  0.84001100  1
  N  1175  1  0.40912500  0.45820200  0.85432200  1
  N  1178  1  0.40087950  0.56137950  0.85996900  1
  N  1182  1  0.45777600  0.02629400  0.50668300  1
  N  1185  1  0.52674400  0.95444900  0.52104600  1
  N  1188  1  0.42346950  0.84302650  0.52650800  1
  N  1192  1  0.95844500  0.43499500  0.17342300  1
  N  1195  1  0.03025550  0.57577750  0.18816400  1
  N  1198  1  0.14165450  0.58391250  0.19375100  1
  N  1202  1  0.70331900  0.96433900  0.64357300  1
  N  1205  1  0.73316350  0.03973550  0.72677600  1
  N  1208  1  0.77489150  0.14910350  0.68783400  1
  N  1212  1  0.24256950  0.28180150  0.97683000  1
  N  1215  1  0.28792600  0.25210900  0.06015500  1
  N  1218  1  0.35549350  0.21014650  0.02137900  1
  N  1222  1  0.02046200  0.74272400  0.31033600  1
  N  1225  1  0.94514750  0.69725350  0.39357400  1
  N  1228  1  0.83571950  0.62996750  0.35461600  1
  N  1232  1  0.29300450  0.02943550  0.64204400  1
  N  1235  1  0.26209150  0.95401850  0.72566500  1
  N  1238  1  0.21878600  0.84435500  0.68637100  1
  N  1242  1  0.71787350  0.69200450  0.97532000  1
  N  1245  1  0.67333400  0.72287000  0.05896600  1
  N  1248  1  0.60702200  0.76621700  0.01969500  1
  N  1252  1  0.95583700  0.26725500  0.30882300  1
  N  1255  1  0.03101400  0.31172500  0.39250100  1
  N  1258  1  0.14074600  0.37814500  0.35332300  1
