# generated using pymatgen
data_Cr3H11C25O13
_symmetry_space_group_name_H-M   'P 1'
_cell_length_a   10.71696000
_cell_length_b   10.78514000
_cell_length_c   17.10825000
_cell_angle_alpha   80.16406000
_cell_angle_beta   79.96752000
_cell_angle_gamma   60.51806000
_symmetry_Int_Tables_number   1
_chemical_formula_structural   Cr3H11C25O13
_chemical_formula_sum   'Cr6 H22 C50 O26'
_cell_volume   1686.68806749
_cell_formula_units_Z   2
loop_
 _symmetry_equiv_pos_site_id
 _symmetry_equiv_pos_as_xyz
  1  'x, y, z'
loop_
 _atom_site_type_symbol
 _atom_site_label
 _atom_site_symmetry_multiplicity
 _atom_site_fract_x
 _atom_site_fract_y
 _atom_site_fract_z
 _atom_site_occupancy
  Cr  Cr0  1  0.39190000  0.38914000  0.52225000  1
  Cr  Cr1  1  0.71111000  0.40001000  0.48842000  1
  Cr  Cr2  1  0.39696000  0.71081000  0.48939000  1
  Cr  Cr3  1  0.94604000  0.94775000  0.96738000  1
  Cr  Cr4  1  0.94011000  0.62684000  0.99271000  1
  Cr  Cr5  1  0.62663000  0.93831000  0.99171000  1
  H  H6  1  0.13869000  0.47031000  0.34472000  1
  H  H7  1  0.30953000  0.02447000  0.25156000  1
  H  H8  1  0.34921000  0.00062000  0.39095000  1
  H  H9  1  0.82484000  0.45321000  0.68215000  1
  H  H10  1  0.54342000  0.01573000  0.80618000  1
  H  H11  1  0.88704000  0.51046000  0.79659000  1
  H  H12  1  0.30125000  0.16828000  0.76743000  1
  H  H13  1  0.18702000  0.06761000  0.70203000  1
  H  H14  1  0.32406000  0.82341000  0.66666667  1
  H  H15  1  0.17038000  0.91656000  0.09343000  1
  H  H16  1  0.08945000  0.13531000  0.15273000  1
  H  H17  1  0.03010000  0.14313000  0.29860000  1
  H  H18  1  0.05853000  0.92718000  0.38503000  1
  H  H19  1  0.77425000  0.31035000  0.27041000  1
  H  H20  1  0.43017000  0.11412000  0.14609000  1
  H  H21  1  0.77970000  0.28069000  0.13448000  1
  H  H22  1  0.59902000  0.87723000  0.45224000  1
  H  H23  1  0.68030000  0.98483000  0.44795000  1
  H  H24  1  0.49424000  0.04779000  0.49197000  1
  H  H25  1  0.19512000  0.33271000  0.24869000  1
  H  H26  1  0.06109000  0.43705000  0.18317000  1
  H  H27  1  0.25152000  0.38218000  0.14964000  1
  C  C28  1  0.64426000  0.23194000  0.39792000  1
  C  C29  1  0.13204000  0.79613000  0.20366000  1
  C  C30  1  0.11823000  0.79634000  0.28736000  1
  C  C31  1  0.13598000  0.56161000  0.30533000  1
  C  C32  1  0.14651000  0.55704000  0.22460000  1
  C  C33  1  0.13416000  0.91690000  0.15632000  1
  C  C34  1  0.09307000  0.04212000  0.19017000  1
  C  C35  1  0.06095000  0.04624000  0.27234000  1
  C  C36  1  0.07938000  0.92257000  0.32105000  1
  C  C37  1  0.14117000  0.67041000  0.33576000  1
  C  C38  1  0.65004000  0.17306000  0.16098000  1
  C  C39  1  0.63078000  0.65340000  0.35741000  1
  C  C40  1  0.56544000  0.13063000  0.22182000  1
  C  C41  1  0.58500000  0.12250000  0.30270000  1
  C  C42  1  0.72326000  0.25121000  0.25837000  1
  C  C43  1  0.72039000  0.24114000  0.18013000  1
  C  C44  1  0.46247000  0.09627000  0.20499000  1
  C  C45  1  0.38595000  0.05114000  0.26594000  1
  C  C46  1  0.41039000  0.03653000  0.34460000  1
  C  C47  1  0.52050000  0.05655000  0.36297000  1
  C  C48  1  0.66124000  0.18814000  0.32000000  1
  C  C49  1  0.70153000  0.72228000  0.79942000  1
  C  C50  1  0.21677000  0.62657000  0.40682000  1
  C  C51  1  0.57627000  0.82368000  0.76214000  1
  C  C52  1  0.52298000  0.77610000  0.71165000  1
  C  C53  1  0.75134000  0.55363000  0.70691000  1
  C  C54  1  0.78942000  0.58842000  0.77026000  1
  C  C55  1  0.49855000  0.96957000  0.77669000  1
  C  C56  1  0.36034000  0.05790000  0.75397000  1
  C  C57  1  0.29687000  0.00191000  0.71670000  1
  C  C58  1  0.37705000  0.86222000  0.69583000  1
  C  C59  1  0.61929000  0.64732000  0.67630000  1
  C  C60  1  0.18190000  0.65757000  0.70906000  1
  C  C61  1  0.61866000  0.28460000  0.63151000  1
  C  C62  1  0.15475000  0.68620000  0.77663000  1
  C  C63  1  0.64149000  0.23486000  0.71370000  1
  C  C64  1  0.67434000  0.18829000  0.78057000  1
  C  C65  1  0.10244000  0.69217000  0.09048000  1
  C  C66  1  0.68062000  0.70025000  0.12016000  1
  C  C67  1  0.70251000  0.11033000  0.08516000  1
  C  C68  1  0.11348000  0.70272000  0.85895000  1
  C  C69  1  0.72130000  0.74661000  0.87702000  1
  C  C70  1  0.71903000  0.11901000  0.85770000  1
  C  C71  1  0.59262000  0.62525000  0.60007000  1
  C  C72  1  0.22687000  0.61901000  0.62984000  1
  C  C73  1  0.65731000  0.66338000  0.27411000  1
  C  C74  1  0.66829000  0.67359000  0.20340000  1
  C  C75  1  0.14197000  0.67626000  0.17143000  1
  C  C76  1  0.57599000  0.99008000  0.44336000  1
  C  C77  1  0.16450000  0.42034000  0.19953000  1
  O  O78  1  0.25019000  0.50021000  0.43804000  1
  O  O79  1  0.70103000  0.53120000  0.55739000  1
  O  O80  1  0.51060000  0.74407000  0.56191000  1
  O  O81  1  0.27611000  0.69395000  0.58461000  1
  O  O82  1  0.49999000  0.49999000  0.50002000  1
  O  O83  1  0.82890000  0.08532000  0.05310000  1
  O  O84  1  0.05832000  0.81516000  0.05071000  1
  O  O85  1  0.07792000  0.59658000  0.07261000  1
  O  O86  1  0.80312000  0.63085000  0.08385000  1
  O  O87  1  0.58827000  0.81898000  0.09153000  1
  O  O88  1  0.63499000  0.05564000  0.06332000  1
  O  O89  1  0.52234000  0.27374000  0.43929000  1
  O  O90  1  0.84062000  0.09333000  0.87621000  1
  O  O91  1  0.06918000  0.82258000  0.88673000  1
  O  O92  1  0.08964000  0.60458000  0.89572000  1
  O  O93  1  0.81399000  0.63827000  0.91987000  1
  O  O94  1  0.60000000  0.82699000  0.91463000  1
  O  O95  1  0.64586000  0.06306000  0.89934000  1
  O  O96  1  0.83759000  0.83763000  0.98393000  1
  O  O97  1  0.73985000  0.25700000  0.41227000  1
  O  O98  1  0.70226000  0.53345000  0.39472000  1
  O  O99  1  0.51192000  0.74650000  0.38643000  1
  O  O100  1  0.27733000  0.69620000  0.42194000  1
  O  O101  1  0.24887000  0.49778000  0.61352000  1
  O  O102  1  0.52111000  0.27149000  0.60196000  1
  O  O103  1  0.73853000  0.25457000  0.58775000  1
