# generated using pymatgen
data_CuH26C32(N2O5)2
_symmetry_space_group_name_H-M   'P 1'
_cell_length_a   15.49257000
_cell_length_b   16.63388000
_cell_length_c   17.75698793
_cell_angle_alpha   117.86674353
_cell_angle_beta   115.80398777
_cell_angle_gamma   90.01240000
_symmetry_Int_Tables_number   1
_chemical_formula_structural   CuH26C32(N2O5)2
_chemical_formula_sum   'Cu4 H104 C128 N16 O40'
_cell_volume   3520.70687135
_cell_formula_units_Z   4
loop_
 _symmetry_equiv_pos_site_id
 _symmetry_equiv_pos_as_xyz
  1  'x, y, z'
loop_
 _atom_site_type_symbol
 _atom_site_label
 _atom_site_symmetry_multiplicity
 _atom_site_fract_x
 _atom_site_fract_y
 _atom_site_fract_z
 _atom_site_occupancy
  Cu  Cu0  1  0.00000000  0.49999000  0.49999000  1
  Cu  Cu1  1  0.50000000  0.50000000  0.50000000  1
  Cu  Cu2  1  0.50000000  0.00000000  0.50000000  1
  Cu  Cu3  1  0.99999000  0.00000000  0.50000000  1
  H  H4  1  0.11293000  0.38808000  0.58159000  1
  H  H5  1  0.09062000  0.29177000  0.64736000  1
  H  H6  1  0.80913000  0.35867000  0.60129000  1
  H  H7  1  0.84099000  0.45070000  0.53480000  1
  H  H8  1  0.98339000  0.21878000  0.67848000  1
  H  H9  1  0.85675000  0.22208000  0.63311000  1
  H  H10  1  0.18432000  0.50733000  0.06604000  1
  H  H11  1  0.75517000  0.38845000  0.20020000  1
  H  H12  1  0.59924000  0.28993000  0.04152000  1
  H  H13  1  0.93849000  0.32308000  0.25818000  1
  H  H14  1  0.05626000  0.39256000  0.30255000  1
  H  H15  1  0.04057000  0.27107000  0.26814000  1
  H  H16  1  0.11189000  0.38925000  0.44644000  1
  H  H17  1  0.46904000  0.69373000  0.58208000  1
  H  H18  1  0.55740000  0.85551000  0.64783000  1
  H  H19  1  0.79257000  0.74185000  0.60170000  1
  H  H20  1  0.69383000  0.58364000  0.53516000  1
  H  H21  1  0.69558000  0.95913000  0.67842000  1
  H  H22  1  0.77653000  0.91033000  0.63259000  1
  H  H23  1  0.88124000  0.05840000  0.06564000  1
  H  H24  1  0.44536000  0.31146000  0.19973000  1
  H  H25  1  0.44336000  0.25176000  0.04121000  1
  H  H26  1  0.32059000  0.43579000  0.25857000  1
  H  H27  1  0.24715000  0.41086000  0.30313000  1
  H  H28  1  0.22861000  0.49793000  0.26872000  1
  H  H29  1  0.33573000  0.55814000  0.44711000  1
  H  H30  1  0.88707000  0.61192000  0.41841000  1
  H  H31  1  0.90939000  0.70824000  0.35265000  1
  H  H32  1  0.19087000  0.64134000  0.39871000  1
  H  H33  1  0.15901000  0.54930000  0.46520000  1
  H  H34  1  0.01661000  0.78122000  0.32152000  1
  H  H35  1  0.14325000  0.77793000  0.36689000  1
  H  H36  1  0.81568000  0.49267000  0.93396000  1
  H  H37  1  0.24483000  0.61156000  0.79980000  1
  H  H38  1  0.40076000  0.71008000  0.95848000  1
  H  H39  1  0.06152000  0.67692000  0.74182000  1
  H  H40  1  0.94374000  0.60745000  0.69745000  1
  H  H41  1  0.95943000  0.72893000  0.73186000  1
  H  H42  1  0.88812000  0.61074000  0.55356000  1
  H  H43  1  0.53096000  0.30627000  0.41792000  1
  H  H44  1  0.44260000  0.14449000  0.35217000  1
  H  H45  1  0.20744000  0.25817000  0.39831000  1
  H  H46  1  0.30618000  0.41637000  0.46485000  1
  H  H47  1  0.30442000  0.04087000  0.32158000  1
  H  H48  1  0.22347000  0.08967000  0.36741000  1
  H  H49  1  0.11876000  0.94160000  0.93436000  1
  H  H50  1  0.55465000  0.68854000  0.80027000  1
  H  H51  1  0.55664000  0.74824000  0.95879000  1
  H  H52  1  0.67941000  0.56422000  0.74143000  1
  H  H53  1  0.75285000  0.58915000  0.69687000  1
  H  H54  1  0.77140000  0.50207000  0.73128000  1
  H  H55  1  0.66428000  0.44186000  0.55289000  1
  H  H56  1  0.38694000  0.80641000  0.41817000  1
  H  H57  1  0.40953000  0.64453000  0.35261000  1
  H  H58  1  0.69088000  0.75779000  0.39872000  1
  H  H59  1  0.65867000  0.91612000  0.46498000  1
  H  H60  1  0.51696000  0.54075000  0.32193000  1
  H  H61  1  0.64358000  0.58933000  0.36735000  1
  H  H62  1  0.31572000  0.44119000  0.93396000  1
  H  H63  1  0.74440000  0.18809000  0.79948000  1
  H  H64  1  0.90043000  0.24792000  0.95826000  1
  H  H65  1  0.56149000  0.06468000  0.74193000  1
  H  H66  1  0.44370000  0.08981000  0.69743000  1
  H  H67  1  0.45939000  0.00307000  0.73226000  1
  H  H68  1  0.38824000  0.94261000  0.55355000  1
  H  H69  1  0.03143000  0.11177000  0.41842000  1
  H  H70  1  0.94336000  0.20788000  0.35249000  1
  H  H71  1  0.70785000  0.14078000  0.39851000  1
  H  H72  1  0.80618000  0.04886000  0.46505000  1
  H  H73  1  0.80517000  0.28083000  0.32134000  1
  H  H74  1  0.72386000  0.27762000  0.36680000  1
  H  H75  1  0.61811000  0.99254000  0.93360000  1
  H  H76  1  0.05407000  0.11098000  0.79968000  1
  H  H77  1  0.05640000  0.21017000  0.95834000  1
  H  H78  1  0.18004000  0.17728000  0.74189000  1
  H  H79  1  0.25350000  0.10772000  0.69763000  1
  H  H80  1  0.27284000  0.22936000  0.73272000  1
  H  H81  1  0.16604000  0.11166000  0.55387000  1
  H  H82  1  0.61306000  0.19360000  0.58183000  1
  H  H83  1  0.59047000  0.35548000  0.64739000  1
  H  H84  1  0.30912000  0.24221000  0.60128000  1
  H  H85  1  0.34133000  0.08390000  0.53503000  1
  H  H86  1  0.48304000  0.45925000  0.67807000  1
  H  H87  1  0.35642000  0.41067000  0.63265000  1
  H  H88  1  0.68428000  0.55882000  0.06604000  1
  H  H89  1  0.25560000  0.81192000  0.20052000  1
  H  H90  1  0.09957000  0.75209000  0.04174000  1
  H  H91  1  0.43851000  0.93532000  0.25807000  1
  H  H92  1  0.55630000  0.91019000  0.30257000  1
  H  H93  1  0.54062000  0.99693000  0.26774000  1
  H  H94  1  0.61176000  0.05739000  0.44645000  1
  H  H95  1  0.96856000  0.88822000  0.58157000  1
  H  H96  1  0.05664000  0.79212000  0.64751000  1
  H  H97  1  0.29215000  0.85922000  0.60149000  1
  H  H98  1  0.19382000  0.95113000  0.53494000  1
  H  H99  1  0.19484000  0.71917000  0.67866000  1
  H  H100  1  0.27614000  0.72239000  0.63320000  1
  H  H101  1  0.38189000  0.00746000  0.06640000  1
  H  H102  1  0.94593000  0.88903000  0.20032000  1
  H  H103  1  0.94361000  0.78983000  0.04166000  1
  H  H104  1  0.81996000  0.82272000  0.25811000  1
  H  H105  1  0.74650000  0.89229000  0.30237000  1
  H  H106  1  0.72716000  0.77065000  0.26729000  1
  H  H107  1  0.83396000  0.88835000  0.44614000  1
  C  C108  1  0.04701000  0.38087000  0.58776000  1
  C  C109  1  0.03434000  0.32737000  0.62515000  1
  C  C110  1  0.94854000  0.31904000  0.63169000  1
  C  C111  1  0.87795000  0.36456000  0.59919000  1
  C  C112  1  0.89560000  0.41653000  0.56249000  1
  C  C113  1  0.93338000  0.26503000  0.67538000  1
  C  C114  1  0.04837000  0.37381000  0.85693000  1
  C  C115  1  0.87938000  0.36691000  0.79683000  1
  C  C116  1  0.03443000  0.44261000  0.93999000  1
  C  C117  1  0.10543000  0.50437000  0.03769000  1
  C  C118  1  0.06731000  0.56165000  0.09627000  1
  C  C119  1  0.78248000  0.46824000  0.38249000  1
  C  C120  1  0.68805000  0.40526000  0.28830000  1
  C  C121  1  0.68682000  0.37084000  0.19901000  1
  C  C122  1  0.59932000  0.31579000  0.11029000  1
  C  C123  1  0.01890000  0.33601000  0.30218000  1
  C  C124  1  0.54105000  0.70689000  0.58807000  1
  C  C125  1  0.59126000  0.79759000  0.62540000  1
  C  C126  1  0.68352000  0.81215000  0.63172000  1
  C  C127  1  0.72154000  0.73405000  0.59942000  1
  C  C128  1  0.66703000  0.64558000  0.56277000  1
  C  C129  1  0.74235000  0.90965000  0.67508000  1
  C  C130  1  0.80879000  0.98257000  0.85653000  1
  C  C131  1  0.91804000  0.92976000  0.79668000  1
  C  C132  1  0.90557000  0.99691000  0.93974000  1
  C  C133  1  0.93200000  0.03313000  0.03749000  1
  C  C134  1  0.02874000  0.03490000  0.09636000  1
  C  C135  1  0.59966000  0.41335000  0.38199000  1
  C  C136  1  0.60046000  0.38251000  0.28805000  1
  C  C137  1  0.51269000  0.32768000  0.19868000  1
  C  C138  1  0.51190000  0.29424000  0.11010000  1
  C  C139  1  0.28422000  0.46691000  0.30267000  1
  C  C140  1  0.95299000  0.61912000  0.41223000  1
  C  C141  1  0.96566000  0.67263000  0.37485000  1
  C  C142  1  0.05147000  0.68096000  0.36831000  1
  C  C143  1  0.12206000  0.63544000  0.40081000  1
  C  C144  1  0.10441000  0.58347000  0.43750000  1
  C  C145  1  0.06663000  0.73498000  0.32462000  1
  C  C146  1  0.95163000  0.62619000  0.14307000  1
  C  C147  1  0.12062000  0.63310000  0.20317000  1
  C  C148  1  0.96557000  0.55739000  0.06001000  1
  C  C149  1  0.89457000  0.49565000  0.96232000  1
  C  C150  1  0.93270000  0.43836000  0.90374000  1
  C  C151  1  0.21752000  0.53176000  0.61751000  1
  C  C152  1  0.31195000  0.59474000  0.71170000  1
  C  C153  1  0.31318000  0.62915000  0.80098000  1
  C  C154  1  0.40068000  0.68422000  0.88971000  1
  C  C155  1  0.98110000  0.66400000  0.69782000  1
  C  C156  1  0.45895000  0.29312000  0.41193000  1
  C  C157  1  0.40874000  0.20242000  0.37461000  1
  C  C158  1  0.31648000  0.18785000  0.36828000  1
  C  C159  1  0.27846000  0.26595000  0.40058000  1
  C  C160  1  0.33297000  0.35442000  0.43723000  1
  C  C161  1  0.25765000  0.09035000  0.32492000  1
  C  C162  1  0.19122000  0.01743000  0.14347000  1
  C  C163  1  0.08196000  0.07025000  0.20332000  1
  C  C164  1  0.09443000  0.00310000  0.06027000  1
  C  C165  1  0.06800000  0.96688000  0.96252000  1
  C  C166  1  0.97126000  0.96510000  0.90364000  1
  C  C167  1  0.40035000  0.58665000  0.61801000  1
  C  C168  1  0.39955000  0.61750000  0.71195000  1
  C  C169  1  0.48731000  0.67233000  0.80132000  1
  C  C170  1  0.48810000  0.70577000  0.88990000  1
  C  C171  1  0.71578000  0.53310000  0.69733000  1
  C  C172  1  0.45294000  0.79313000  0.41215000  1
  C  C173  1  0.46576000  0.70238000  0.37487000  1
  C  C174  1  0.55166000  0.68766000  0.36849000  1
  C  C175  1  0.62208000  0.76570000  0.40085000  1
  C  C176  1  0.60426000  0.85422000  0.43742000  1
  C  C177  1  0.56700000  0.59009000  0.32502000  1
  C  C178  1  0.45211000  0.51688000  0.14344000  1
  C  C179  1  0.62101000  0.57014000  0.20324000  1
  C  C180  1  0.46569000  0.50278000  0.06020000  1
  C  C181  1  0.39462000  0.46664000  0.96244000  1
  C  C182  1  0.43264000  0.46519000  0.90370000  1
  C  C183  1  0.71727000  0.08609000  0.61763000  1
  C  C184  1  0.81174000  0.11720000  0.71162000  1
  C  C185  1  0.81293000  0.17199000  0.80085000  1
  C  C186  1  0.90050000  0.20557000  0.88951000  1
  C  C187  1  0.48107000  0.03368000  0.69795000  1
  C  C188  1  0.95933000  0.11891000  0.41220000  1
  C  C189  1  0.90928000  0.17232000  0.37476000  1
  C  C190  1  0.81692000  0.18054000  0.36813000  1
  C  C191  1  0.77878000  0.13499000  0.40065000  1
  C  C192  1  0.83310000  0.08308000  0.43737000  1
  C  C193  1  0.75821000  0.23460000  0.32446000  1
  C  C194  1  0.69143000  0.12581000  0.14270000  1
  C  C195  1  0.58281000  0.13315000  0.20334000  1
  C  C196  1  0.59436000  0.05724000  0.05983000  1
  C  C197  1  0.56759000  0.99552000  0.96205000  1
  C  C198  1  0.47094000  0.93834000  0.90361000  1
  C  C199  1  0.89952000  0.03107000  0.61753000  1
  C  C200  1  0.89917000  0.09456000  0.71159000  1
  C  C201  1  0.98701000  0.12901000  0.80089000  1
  C  C202  1  0.98787000  0.18418000  0.88951000  1
  C  C203  1  0.21684000  0.16446000  0.69816000  1
  C  C204  1  0.54706000  0.20687000  0.58785000  1
  C  C205  1  0.53424000  0.29763000  0.62514000  1
  C  C206  1  0.44834000  0.31234000  0.63151000  1
  C  C207  1  0.37792000  0.23430000  0.59915000  1
  C  C208  1  0.39574000  0.14578000  0.56258000  1
  C  C209  1  0.43300000  0.40991000  0.67498000  1
  C  C210  1  0.54789000  0.48313000  0.85656000  1
  C  C211  1  0.37900000  0.42986000  0.79676000  1
  C  C212  1  0.53431000  0.49723000  0.93980000  1
  C  C213  1  0.60538000  0.53336000  0.03756000  1
  C  C214  1  0.56736000  0.53482000  0.09630000  1
  C  C215  1  0.28273000  0.91392000  0.38238000  1
  C  C216  1  0.18826000  0.88281000  0.28838000  1
  C  C217  1  0.18708000  0.82801000  0.19915000  1
  C  C218  1  0.09950000  0.79444000  0.11050000  1
  C  C219  1  0.51893000  0.96632000  0.30205000  1
  C  C220  1  0.04067000  0.88109000  0.58780000  1
  C  C221  1  0.09072000  0.82768000  0.62524000  1
  C  C222  1  0.18309000  0.81946000  0.63187000  1
  C  C223  1  0.22122000  0.86502000  0.59936000  1
  C  C224  1  0.16689000  0.91692000  0.56263000  1
  C  C225  1  0.24179000  0.76540000  0.67554000  1
  C  C226  1  0.30858000  0.87419000  0.85730000  1
  C  C227  1  0.41720000  0.86685000  0.79666000  1
  C  C228  1  0.40564000  0.94277000  0.94018000  1
  C  C229  1  0.43241000  0.00449000  0.03796000  1
  C  C230  1  0.52906000  0.06166000  0.09639000  1
  C  C231  1  0.10048000  0.96893000  0.38247000  1
  C  C232  1  0.10083000  0.90544000  0.28840000  1
  C  C233  1  0.01299000  0.87099000  0.19911000  1
  C  C234  1  0.01213000  0.81581000  0.11048000  1
  C  C235  1  0.78316000  0.83554000  0.30184000  1
  N  N236  1  0.97906000  0.42505000  0.55700000  1
  N  N237  1  0.95263000  0.33025000  0.77486000  1
  N  N238  1  0.57804000  0.63184000  0.55724000  1
  N  N239  1  0.82259000  0.94377000  0.77445000  1
  N  N240  1  0.02094000  0.57495000  0.44300000  1
  N  N241  1  0.04737000  0.66975000  0.22514000  1
  N  N242  1  0.42196000  0.36817000  0.44276000  1
  N  N243  1  0.17741000  0.05623000  0.22555000  1
  N  N244  1  0.52080000  0.86810000  0.44292000  1
  N  N245  1  0.54786000  0.55590000  0.22555000  1
  N  N246  1  0.92208000  0.07467000  0.44292000  1
  N  N247  1  0.67799000  0.16949000  0.22501000  1
  N  N248  1  0.47920000  0.13191000  0.55709000  1
  N  N249  1  0.45214000  0.44410000  0.77445000  1
  N  N250  1  0.07791000  0.92532000  0.55707000  1
  N  N251  1  0.32201000  0.83052000  0.77499000  1
  O  O252  1  0.12538000  0.35783000  0.85663000  1
  O  O253  1  0.79101000  0.34477000  0.73779000  1
  O  O254  1  0.86011000  0.43861000  0.38707000  1
  O  O255  1  0.77944000  0.54386000  0.44720000  1
  O  O256  1  0.03953000  0.36148000  0.39856000  1
  O  O257  1  0.73154000  0.99865000  0.85611000  1
  O  O258  1  0.94797000  0.89372000  0.73795000  1
  O  O259  1  0.52741000  0.44881000  0.38704000  1
  O  O260  1  0.66626000  0.40100000  0.44616000  1
  O  O261  1  0.35995000  0.53763000  0.39892000  1
  O  O262  1  0.87462000  0.64217000  0.14337000  1
  O  O263  1  0.20899000  0.65524000  0.26221000  1
  O  O264  1  0.13989000  0.56138000  0.61292000  1
  O  O265  1  0.22056000  0.45613000  0.55280000  1
  O  O266  1  0.96048000  0.63853000  0.60144000  1
  O  O267  1  0.26847000  0.00135000  0.14389000  1
  O  O268  1  0.05204000  0.10628000  0.26205000  1
  O  O269  1  0.47260000  0.55119000  0.61296000  1
  O  O270  1  0.33374000  0.59900000  0.55384000  1
  O  O271  1  0.64006000  0.46239000  0.60109000  1
  O  O272  1  0.37535000  0.50056000  0.14388000  1
  O  O273  1  0.70956000  0.60634000  0.26186000  1
  O  O274  1  0.63988000  0.05134000  0.61297000  1
  O  O275  1  0.71997000  0.09763000  0.55306000  1
  O  O276  1  0.46051000  0.96271000  0.60170000  1
  O  O277  1  0.76857000  0.14148000  0.14264000  1
  O  O278  1  0.55369000  0.15560000  0.26264000  1
  O  O279  1  0.97188000  0.06100000  0.61223000  1
  O  O280  1  0.83262000  0.95482000  0.55374000  1
  O  O281  1  0.14163000  0.13949000  0.60183000  1
  O  O282  1  0.62465000  0.49944000  0.85612000  1
  O  O283  1  0.29044000  0.39366000  0.73814000  1
  O  O284  1  0.36012000  0.94867000  0.38703000  1
  O  O285  1  0.28003000  0.90238000  0.44694000  1
  O  O286  1  0.53949000  0.03730000  0.39830000  1
  O  O287  1  0.23143000  0.85852000  0.85736000  1
  O  O288  1  0.44631000  0.84441000  0.73737000  1
  O  O289  1  0.02812000  0.93900000  0.38776000  1
  O  O290  1  0.16738000  0.04519000  0.44627000  1
  O  O291  1  0.85837000  0.86052000  0.39817000  1
