# generated using pymatgen
data_CrGa3P4H26C8(N3O8)2
_symmetry_space_group_name_H-M   'P 1'
_cell_length_a   13.48545000
_cell_length_b   14.25311643
_cell_length_c   14.26525000
_cell_angle_alpha   110.55006235
_cell_angle_beta   108.38312000
_cell_angle_gamma   108.33134681
_symmetry_Int_Tables_number   1
_chemical_formula_structural   CrGa3P4H26C8(N3O8)2
_chemical_formula_sum   'Cr3 Ga9 P12 H78 C24 N18 O48'
_cell_volume   2139.34849382
_cell_formula_units_Z   3
loop_
 _symmetry_equiv_pos_site_id
 _symmetry_equiv_pos_as_xyz
  1  'x, y, z'
loop_
 _atom_site_type_symbol
 _atom_site_label
 _atom_site_symmetry_multiplicity
 _atom_site_fract_x
 _atom_site_fract_y
 _atom_site_fract_z
 _atom_site_occupancy
  Cr  Cr0  1  0.68026000  0.41281000  0.86936000  1
  Cr  Cr1  1  0.81076000  0.13073000  0.54358000  1
  Cr  Cr2  1  0.26728000  0.45711000  0.58788000  1
  Ga  Ga3  1  0.02557000  0.54629000  0.16741000  1
  Ga  Ga4  1  0.18974000  0.87047000  0.45750000  1
  Ga  Ga5  1  0.85750000  0.83286000  0.37896000  1
  Ga  Ga6  1  0.73194000  0.54252000  0.41267000  1
  Ga  Ga7  1  0.47977000  0.62126000  0.45390000  1
  Ga  Ga8  1  0.31792000  0.58698000  0.12971000  1
  Ga  Ga9  1  0.97452000  0.45456000  0.82895000  1
  Ga  Ga10  1  0.14676000  0.17124000  0.62605000  1
  Ga  Ga11  1  0.52004000  0.37437000  0.54568000  1
  P  P12  1  0.87906000  0.33861000  0.94368000  1
  P  P13  1  0.29102000  0.68821000  0.35512000  1
  P  P14  1  0.93554000  0.05646000  0.39544000  1
  P  P15  1  0.93557000  0.64535000  0.33314000  1
  P  P16  1  0.54016000  0.60539000  0.66154000  1
  P  P17  1  0.60242000  0.66659000  0.31157000  1
  P  P18  1  0.11772000  0.66100000  0.05266000  1
  P  P19  1  0.71094000  0.31106000  0.64331000  1
  P  P20  1  0.06673000  0.94767000  0.60885000  1
  P  P21  1  0.06745000  0.35675000  0.66787000  1
  P  P22  1  0.45765000  0.39152000  0.33921000  1
  P  P23  1  0.40037333  0.33333333  0.68992333  1
  H  H24  1  0.65457000  0.23623000  0.89409000  1
  H  H25  1  0.51980000  0.23118000  0.83999000  1
  H  H26  1  0.78333000  0.54083000  0.08756000  1
  H  H27  1  0.70517000  0.56757000  0.80867000  1
  H  H28  1  0.84025000  0.58334000  0.87752000  1
  H  H29  1  0.70797000  0.35418000  0.07608000  1
  H  H30  1  0.55216000  0.27470000  0.02510000  1
  H  H31  1  0.62345000  0.48815000  0.12982000  1
  H  H32  1  0.52310000  0.42372000  0.98160000  1
  H  H33  1  0.71645000  0.68157000  0.10753000  1
  H  H34  1  0.60643000  0.58994000  0.95965000  1
  H  H35  1  0.78048000  0.73528000  0.97500000  1
  H  H36  1  0.87627000  0.69571000  0.05218000  1
  H  H37  1  0.76025000  0.10586000  0.34240000  1
  H  H38  1  0.67949000  0.16006000  0.39111000  1
  H  H39  1  0.69562000  0.91248000  0.45330000  1
  H  H40  1  0.89694000  0.19082000  0.75914000  1
  H  H41  1  0.96255000  0.12158000  0.70533000  1
  H  H42  1  0.63157000  0.92383000  0.27820000  1
  H  H43  1  0.52682000  0.97500000  0.24987000  1
  H  H44  1  0.49350000  0.87031000  0.35851000  1
  H  H45  1  0.54142000  0.01863000  0.44228000  1
  H  H46  1  0.60871000  0.89245000  0.57404000  1
  H  H47  1  0.64722000  0.04059000  0.63066000  1
  H  H48  1  0.80536000  0.02428000  0.75987000  1
  H  H49  1  0.82374000  0.94697000  0.64315000  1
  H  H50  1  0.41793000  0.65835000  0.76407000  1
  H  H51  1  0.28852000  0.60984000  0.76959000  1
  H  H52  1  0.24263000  0.54716000  0.45983000  1
  H  H53  1  0.13781000  0.24159000  0.43290000  1
  H  H54  1  0.25725000  0.29485000  0.41741000  1
  H  H55  1  0.35361000  0.72228000  0.64608000  1
  H  H56  1  0.27730000  0.75118000  0.72552000  1
  H  H57  1  0.13529000  0.64243000  0.51229000  1
  H  H58  1  0.09924000  0.55857000  0.57672000  1
  H  H59  1  0.03497000  0.42653000  0.31899000  1
  H  H60  1  0.01675000  0.37006000  0.41059000  1
  H  H61  1  0.04590000  0.24049000  0.26531000  1
  H  H62  1  0.18116000  0.35733000  0.30506000  1
  H  H63  1  0.34413000  0.76234000  0.10562000  1
  H  H64  1  0.47971000  0.76896000  0.16228000  1
  H  H65  1  0.21761000  0.45615000  0.90896000  1
  H  H66  1  0.29535000  0.43480000  0.19414000  1
  H  H67  1  0.16096000  0.41968000  0.12335000  1
  H  H68  1  0.29545000  0.64777000  0.92498000  1
  H  H69  1  0.45196000  0.72623000  0.97864000  1
  H  H70  1  0.37833000  0.51382000  0.87028000  1
  H  H71  1  0.47773000  0.57473000  0.01811000  1
  H  H72  1  0.28373000  0.31615000  0.89435000  1
  H  H73  1  0.39549000  0.41118000  0.04120000  1
  H  H74  1  0.22420000  0.26806000  0.03029000  1
  H  H75  1  0.12566000  0.30380000  0.95048000  1
  H  H76  1  0.23993000  0.89508000  0.65693000  1
  H  H77  1  0.31937000  0.83859000  0.60782000  1
  H  H78  1  0.30972000  0.09160000  0.54768000  1
  H  H79  1  0.10126000  0.80668000  0.24099000  1
  H  H80  1  0.03884000  0.87805000  0.29824000  1
  H  H81  1  0.37182000  0.07572000  0.72322000  1
  H  H82  1  0.47471000  0.02199000  0.74792000  1
  H  H83  1  0.50957000  0.13033000  0.64406000  1
  H  H84  1  0.46073000  0.98234000  0.55709000  1
  H  H85  1  0.39024000  0.10606000  0.42166000  1
  H  H86  1  0.35458000  0.95892000  0.36997000  1
  H  H87  1  0.19435000  0.97040000  0.23850000  1
  H  H88  1  0.17601000  0.05058000  0.35405000  1
  H  H89  1  0.58228000  0.34306000  0.23803000  1
  H  H90  1  0.71077000  0.39198000  0.23044000  1
  H  H91  1  0.76116000  0.45195000  0.54317000  1
  H  H92  1  0.86105000  0.75905000  0.56541000  1
  H  H93  1  0.74131000  0.70290000  0.57956000  1
  H  H94  1  0.64781000  0.27620000  0.35189000  1
  H  H95  1  0.72590000  0.25158000  0.27342000  1
  H  H96  1  0.86470000  0.35534000  0.48574000  1
  H  H97  1  0.90293000  0.44232000  0.42472000  1
  H  H98  1  0.96782000  0.57747000  0.68345000  1
  H  H99  1  0.98391000  0.62932000  0.58820000  1
  H  H100  1  0.95578000  0.76115000  0.73148000  1
  H  H101  1  0.82141000  0.64580000  0.69563000  1
  C  C102  1  0.61920000  0.33397000  0.01658000  1
  C  C103  1  0.61028000  0.44361000  0.04295000  1
  C  C104  1  0.69604000  0.61779000  0.02357000  1
  C  C105  1  0.78591000  0.66481000  0.98711000  1
  C  C106  1  0.60240000  0.98344000  0.31759000  1
  C  C107  1  0.56719000  0.95717000  0.40083000  1
  C  C108  1  0.67245000  0.97633000  0.59422000  1
  C  C109  1  0.79869000  0.01231000  0.67741000  1
  C  C110  1  0.28500000  0.68321000  0.66634000  1
  C  C111  1  0.16654000  0.60000000  0.55682000  1
  C  C112  1  0.07841000  0.40634000  0.38275000  1
  C  C113  1  0.12158000  0.32304000  0.33583000  1
  C  C114  1  0.38321000  0.66688000  0.98539000  1
  C  C115  1  0.39094000  0.55603000  0.95717000  1
  C  C116  1  0.30544000  0.38244000  0.97745000  1
  C  C117  1  0.21655000  0.33680000  0.01598000  1
  C  C118  1  0.39920000  0.01533000  0.68187000  1
  C  C119  1  0.43507000  0.04352000  0.59930000  1
  C  C120  1  0.32885000  0.02316000  0.40533000  1
  C  C121  1  0.20132000  0.98490000  0.32160000  1
  C  C122  1  0.71654000  0.31764000  0.33294000  1
  C  C123  1  0.83504000  0.40017000  0.44368000  1
  C  C124  1  0.92292000  0.59414000  0.61716000  1
  C  C125  1  0.87949000  0.67822000  0.66275000  1
  N  N126  1  0.60724000  0.28163000  0.90056000  1
  N  N127  1  0.70055000  0.51559000  0.02505000  1
  N  N128  1  0.76152000  0.57022000  0.87937000  1
  N  N129  1  0.70643000  0.09947000  0.38123000  1
  N  N130  1  0.67535000  0.97500000  0.49066000  1
  N  N131  1  0.88216000  0.12012000  0.69076000  1
  N  N132  1  0.32530000  0.61955000  0.71887000  1
  N  N133  1  0.18486000  0.50999000  0.48492000  1
  N  N134  1  0.19155000  0.30975000  0.43041000  1
  N  N135  1  0.39299000  0.71835000  0.10013000  1
  N  N136  1  0.30002000  0.48262000  0.97265000  1
  N  N137  1  0.23988000  0.43161000  0.12245000  1
  N  N138  1  0.29439000  0.90048000  0.61860000  1
  N  N139  1  0.32869000  0.02810000  0.51042000  1
  N  N140  1  0.11831000  0.87843000  0.31004000  1
  N  N141  1  0.67506000  0.38112000  0.28152000  1
  N  N142  1  0.81757000  0.48917000  0.51708000  1
  N  N143  1  0.80850000  0.69022000  0.56799000  1
  O  O144  1  0.83745000  0.43111000  0.95117000  1
  O  O145  1  0.98073000  0.39471000  0.07119000  1
  O  O146  1  0.94421000  0.33933000  0.86712000  1
  O  O147  1  0.78576000  0.22008000  0.89892000  1
  O  O148  1  0.16594000  0.57912000  0.28684000  1
  O  O149  1  0.36707000  0.67409000  0.45469000  1
  O  O150  1  0.28677000  0.79960000  0.40648000  1
  O  O151  1  0.35159000  0.69170000  0.28004000  1
  O  O152  1  0.88561000  0.04801000  0.47961000  1
  O  O153  1  0.91051000  0.92917000  0.32410000  1
  O  O154  1  0.07719000  0.13329000  0.47294000  1
  O  O155  1  0.88701000  0.10156000  0.32195000  1
  O  O156  1  0.87787000  0.71295000  0.29193000  1
  O  O157  1  0.91249000  0.54577000  0.21966000  1
  O  O158  1  0.88000000  0.59354000  0.39286000  1
  O  O159  1  0.07110000  0.72101000  0.41195000  1
  O  O160  1  0.40605000  0.52095000  0.56926000  1
  O  O161  1  0.58642000  0.67630000  0.60529000  1
  O  O162  1  0.60414000  0.52764000  0.66092000  1
  O  O163  1  0.56549000  0.67957000  0.78001000  1
  O  O164  1  0.58751000  0.70786000  0.42132000  1
  O  O165  1  0.69222000  0.78051000  0.32549000  1
  O  O166  1  0.48677000  0.60703000  0.20061000  1
  O  O167  1  0.65929000  0.58772000  0.30772000  1
  O  O168  1  0.15733000  0.56772000  0.04645000  1
  O  O169  1  0.01606000  0.60553000  0.92534000  1
  O  O170  1  0.05251000  0.66204000  0.12958000  1
  O  O171  1  0.21305000  0.77860000  0.09735000  1
  O  O172  1  0.83509000  0.42052000  0.70791000  1
  O  O173  1  0.63224000  0.32168000  0.54198000  1
  O  O174  1  0.71703000  0.20010000  0.59365000  1
  O  O175  1  0.65248000  0.30888000  0.71959000  1
  O  O176  1  0.11390000  0.95498000  0.52308000  1
  O  O177  1  0.09166000  0.07494000  0.68052000  1
  O  O178  1  0.92474000  0.87011000  0.53223000  1
  O  O179  1  0.11695000  0.90283000  0.68189000  1
  O  O180  1  0.12686000  0.29189000  0.71254000  1
  O  O181  1  0.09011000  0.45822000  0.77979000  1
  O  O182  1  0.12314000  0.40650000  0.60664000  1
  O  O183  1  0.93268000  0.28051000  0.58940000  1
  O  O184  1  0.59057000  0.47788000  0.43200000  1
  O  O185  1  0.41112000  0.31988000  0.39482000  1
  O  O186  1  0.39188000  0.46788000  0.33828000  1
  O  O187  1  0.43463000  0.31847000  0.22134000  1
  O  O188  1  0.41393000  0.28805000  0.57979000  1
  O  O189  1  0.31167000  0.22167000  0.68013000  1
  O  O190  1  0.51760000  0.39413000  0.80031000  1
  O  O191  1  0.34430000  0.41213000  0.69246000  1
