# generated using pymatgen
data_Zn2H28C45O7
_symmetry_space_group_name_H-M   'P 1'
_cell_length_a   15.20256000
_cell_length_b   24.24371000
_cell_length_c   32.68673000
_cell_angle_alpha   73.70844000
_cell_angle_beta   76.61173000
_cell_angle_gamma   71.73319000
_symmetry_Int_Tables_number   1
_chemical_formula_structural   Zn2H28C45O7
_chemical_formula_sum   'Zn16 H224 C360 O56'
_cell_volume   10843.60694947
_cell_formula_units_Z   8
loop_
 _symmetry_equiv_pos_site_id
 _symmetry_equiv_pos_as_xyz
  1  'x, y, z'
loop_
 _atom_site_type_symbol
 _atom_site_label
 _atom_site_symmetry_multiplicity
 _atom_site_fract_x
 _atom_site_fract_y
 _atom_site_fract_z
 _atom_site_occupancy
  Zn  Zn0  1  0.59144000  0.59361000  0.99231000  1
  Zn  Zn1  1  0.93506000  0.91029000  0.65169000  1
  Zn  Zn2  1  0.08698000  0.82183000  0.60653000  1
  Zn  Zn3  1  0.52180000  0.51278000  0.94795000  1
  Zn  Zn4  1  0.17616000  0.90693000  0.50788000  1
  Zn  Zn5  1  0.49728000  0.58975000  0.84824000  1
  Zn  Zn6  1  0.51587000  0.67862000  0.89310000  1
  Zn  Zn7  1  0.98306000  0.98727000  0.55212000  1
  Zn  Zn8  1  0.40855000  0.40639000  0.00769000  1
  Zn  Zn9  1  0.06493000  0.08971000  0.34831000  1
  Zn  Zn10  1  0.91301000  0.17817000  0.39347000  1
  Zn  Zn11  1  0.47819000  0.48722000  0.05205000  1
  Zn  Zn12  1  0.82383000  0.09307000  0.49212000  1
  Zn  Zn13  1  0.50271000  0.41025000  0.15177000  1
  Zn  Zn14  1  0.48412000  0.32138000  0.10690000  1
  Zn  Zn15  1  0.01693000  0.01273000  0.44788000  1
  H  H16  1  0.35876000  0.57386000  0.74494000  1
  H  H17  1  0.59304000  0.46810000  0.67407000  1
  H  H18  1  0.19443000  0.45463000  0.73436000  1
  H  H19  1  0.04280000  0.46151000  0.78286000  1
  H  H20  1  0.13174000  0.54557000  0.86006000  1
  H  H21  1  0.28464000  0.53658000  0.81256000  1
  H  H22  1  0.96255000  0.42850000  0.85013000  1
  H  H23  1  0.80144000  0.44606000  0.89280000  1
  H  H24  1  0.81742000  0.61580000  0.90212000  1
  H  H25  1  0.97718000  0.59884000  0.85941000  1
  H  H26  1  0.47812000  0.59810000  0.75978000  1
  H  H27  1  0.57843000  0.66451000  0.74861000  1
  H  H28  1  0.70254000  0.62518000  0.62392000  1
  H  H29  1  0.60330000  0.55761000  0.63586000  1
  H  H30  1  0.62379000  0.74625000  0.71915000  1
  H  H31  1  0.73374000  0.80829000  0.70704000  1
  H  H32  1  0.93428000  0.69789000  0.62729000  1
  H  H33  1  0.82522000  0.63522000  0.63909000  1
  H  H34  1  0.63272000  0.40653000  0.63800000  1
  H  H35  1  0.72085000  0.31016000  0.62188000  1
  H  H36  1  0.50649000  0.23115000  0.70425000  1
  H  H37  1  0.42147000  0.32634000  0.72313000  1
  H  H38  1  0.74548000  0.23727000  0.59070000  1
  H  H39  1  0.84289000  0.13861000  0.57888000  1
  H  H40  1  0.72151000  0.05424000  0.70387000  1
  H  H41  1  0.62655000  0.15264000  0.71690000  1
  H  H42  1  0.34531000  0.40699000  0.72969000  1
  H  H43  1  0.34737000  0.22100000  0.14374000  1
  H  H44  1  0.28064000  0.14301000  0.05612000  1
  H  H45  1  0.49785000  0.04185000  0.13316000  1
  H  H46  1  0.61953000  0.08215000  0.13479000  1
  H  H47  1  0.72555000  0.08356000  0.18104000  1
  H  H48  1  0.48957000  0.17588000  0.26021000  1
  H  H49  1  0.38428000  0.17707000  0.21271000  1
  H  H50  1  0.78082000  0.05002000  0.24108000  1
  H  H51  1  0.89235000  0.05581000  0.28343000  1
  H  H52  1  0.70438000  0.21851000  0.31241000  1
  H  H53  1  0.59559000  0.21577000  0.26759000  1
  H  H54  1  0.15682000  0.22093000  0.15865000  1
  H  H55  1  0.01067000  0.30081000  0.14695000  1
  H  H56  1  0.12077000  0.34740000  0.01181000  1
  H  H57  1  0.26681000  0.26691000  0.02375000  1
  H  H58  1  0.02202000  0.44052000  0.02407000  1
  H  H59  1  0.86596000  0.51018000  0.01046000  1
  H  H60  1  0.72929000  0.38660000  0.10386000  1
  H  H61  1  0.88306000  0.31720000  0.11741000  1
  H  H62  1  0.26622000  0.05473000  0.06108000  1
  H  H63  1  0.29428000  0.96793000  0.03014000  1
  H  H64  1  0.58286000  0.91418000  0.04831000  1
  H  H65  1  0.55492000  0.00037000  0.07948000  1
  H  H66  1  0.36899000  0.92474000  0.97061000  1
  H  H67  1  0.40595000  0.83486000  0.94024000  1
  H  H68  1  0.58657000  0.73559000  0.03437000  1
  H  H69  1  0.55310000  0.82522000  0.06384000  1
  H  H70  1  0.58463000  0.39538000  0.07975000  1
  H  H71  1  0.98760000  0.08768000  0.50117000  1
  H  H72  1  0.67745000  0.92610000  0.75501000  1
  H  H73  1  0.73543000  0.03199000  0.82581000  1
  H  H74  1  0.38331000  0.04540000  0.76543000  1
  H  H75  1  0.28699000  0.03847000  0.71688000  1
  H  H76  1  0.53697000  0.95437000  0.63982000  1
  H  H77  1  0.63349000  0.96343000  0.68735000  1
  H  H78  1  0.24072000  0.07115000  0.64949000  1
  H  H79  1  0.14024000  0.05303000  0.60673000  1
  H  H80  1  0.33546000  0.88327000  0.59812000  1
  H  H81  1  0.43553000  0.90073000  0.64076000  1
  H  H82  1  0.83596000  0.90173000  0.74025000  1
  H  H83  1  0.99135000  0.83535000  0.75153000  1
  H  H84  1  0.95188000  0.87496000  0.87614000  1
  H  H85  1  0.79703000  0.94244000  0.86412000  1
  H  H86  1  0.08866000  0.75367000  0.78096000  1
  H  H87  1  0.24884000  0.69177000  0.79261000  1
  H  H88  1  0.26063000  0.80191000  0.87232000  1
  H  H89  1  0.10030000  0.86439000  0.86106000  1
  H  H90  1  0.67731000  0.09351000  0.86201000  1
  H  H91  1  0.65274000  0.18991000  0.87815000  1
  H  H92  1  0.44155000  0.26879000  0.79573000  1
  H  H93  1  0.47080000  0.17356000  0.77684000  1
  H  H94  1  0.57361000  0.26264000  0.90926000  1
  H  H95  1  0.56096000  0.36130000  0.92110000  1
  H  H96  1  0.48030000  0.44578000  0.79599000  1
  H  H97  1  0.49630000  0.34738000  0.78295000  1
  H  H98  1  0.48189000  0.09299000  0.77024000  1
  H  H99  1  0.71235000  0.27897000  0.35634000  1
  H  H100  1  0.48026000  0.35698000  0.44386000  1
  H  H101  1  0.67282000  0.45822000  0.36675000  1
  H  H102  1  0.83663000  0.41790000  0.36526000  1
  H  H103  1  0.99010000  0.41651000  0.31908000  1
  H  H104  1  0.92566000  0.32416000  0.23983000  1
  H  H105  1  0.77421000  0.32296000  0.28722000  1
  H  H106  1  0.07176000  0.45003000  0.25911000  1
  H  H107  1  0.23092000  0.44461000  0.21641000  1
  H  H108  1  0.23481000  0.28174000  0.18752000  1
  H  H109  1  0.07895000  0.28429000  0.23252000  1
  H  H110  1  0.53661000  0.27894000  0.34132000  1
  H  H111  1  0.45829000  0.19923000  0.35304000  1
  H  H112  1  0.47993000  0.15273000  0.48818000  1
  H  H113  1  0.55764000  0.23311000  0.47632000  1
  H  H114  1  0.48710000  0.05971000  0.47596000  1
  H  H115  1  0.38670000  0.99011000  0.48966000  1
  H  H116  1  0.21995000  0.11326000  0.39607000  1
  H  H117  1  0.31769000  0.18288000  0.38257000  1
  H  H118  1  0.38220000  0.44532000  0.43899000  1
  H  H119  1  0.29255000  0.53207000  0.46989000  1
  H  H120  1  0.54532000  0.58593000  0.45181000  1
  H  H121  1  0.63477000  0.49984000  0.42062000  1
  H  H122  1  0.26419000  0.57573000  0.52932000  1
  H  H123  1  0.18055000  0.66580000  0.55933000  1
  H  H124  1  0.35596000  0.76484000  0.46520000  1
  H  H125  1  0.44218000  0.67492000  0.43618000  1
  H  H126  1  0.06082000  0.10400000  0.42021000  1
  H  H127  1  0.57558000  0.41225000  0.99903000  1
  H  H128  1  0.64123000  0.42614000  0.25506000  1
  H  H129  1  0.40695000  0.53190000  0.32593000  1
  H  H130  1  0.80556000  0.54537000  0.26564000  1
  H  H131  1  0.95719000  0.53849000  0.21714000  1
  H  H132  1  0.86825000  0.45443000  0.13994000  1
  H  H133  1  0.71535000  0.46342000  0.18744000  1
  H  H134  1  0.03744000  0.57150000  0.14987000  1
  H  H135  1  0.19855000  0.55394000  0.10720000  1
  H  H136  1  0.18257000  0.38420000  0.09788000  1
  H  H137  1  0.02281000  0.40116000  0.14059000  1
  H  H138  1  0.52187000  0.40190000  0.24022000  1
  H  H139  1  0.42156000  0.33549000  0.25139000  1
  H  H140  1  0.29745000  0.37482000  0.37608000  1
  H  H141  1  0.39669000  0.44239000  0.36414000  1
  H  H142  1  0.37619000  0.25375000  0.28085000  1
  H  H143  1  0.26624000  0.19171000  0.29296000  1
  H  H144  1  0.06571000  0.30211000  0.37272000  1
  H  H145  1  0.17477000  0.36478000  0.36091000  1
  H  H146  1  0.36727000  0.59347000  0.36200000  1
  H  H147  1  0.27914000  0.68984000  0.37812000  1
  H  H148  1  0.49350000  0.76885000  0.29575000  1
  H  H149  1  0.57852000  0.67366000  0.27687000  1
  H  H150  1  0.25452000  0.76273000  0.40930000  1
  H  H151  1  0.15710000  0.86139000  0.42112000  1
  H  H152  1  0.27848000  0.94576000  0.29613000  1
  H  H153  1  0.37344000  0.84735000  0.28310000  1
  H  H154  1  0.65468000  0.59301000  0.27031000  1
  H  H155  1  0.65262000  0.77900000  0.85626000  1
  H  H156  1  0.71935000  0.85698000  0.94388000  1
  H  H157  1  0.50214000  0.95815000  0.86684000  1
  H  H158  1  0.38046000  0.91785000  0.86521000  1
  H  H159  1  0.27444000  0.91644000  0.81896000  1
  H  H160  1  0.51042000  0.82412000  0.73979000  1
  H  H161  1  0.61571000  0.82293000  0.78729000  1
  H  H162  1  0.21917000  0.94998000  0.75893000  1
  H  H163  1  0.10764000  0.94419000  0.71657000  1
  H  H164  1  0.29561000  0.78149000  0.68759000  1
  H  H165  1  0.40440000  0.78423000  0.73241000  1
  H  H166  1  0.84317000  0.77907000  0.84136000  1
  H  H167  1  0.98932000  0.69919000  0.85305000  1
  H  H168  1  0.87922000  0.65260000  0.98819000  1
  H  H169  1  0.73318000  0.73309000  0.97625000  1
  H  H170  1  0.97797000  0.55948000  0.97593000  1
  H  H171  1  0.13403000  0.48982000  0.98954000  1
  H  H172  1  0.27070000  0.61340000  0.89614000  1
  H  H173  1  0.11693000  0.68280000  0.88259000  1
  H  H174  1  0.73377000  0.94527000  0.93892000  1
  H  H175  1  0.70571000  0.03207000  0.96986000  1
  H  H176  1  0.41713000  0.08582000  0.95169000  1
  H  H177  1  0.44507000  0.99963000  0.92052000  1
  H  H178  1  0.63100000  0.07526000  0.02939000  1
  H  H179  1  0.59404000  0.16513000  0.05976000  1
  H  H180  1  0.41342000  0.26441000  0.96563000  1
  H  H181  1  0.44689000  0.17478000  0.93616000  1
  H  H182  1  0.41536000  0.60462000  0.92025000  1
  H  H183  1  0.01239000  0.91232000  0.49883000  1
  H  H184  1  0.32254000  0.07390000  0.24499000  1
  H  H185  1  0.26456000  0.96801000  0.17419000  1
  H  H186  1  0.61668000  0.95460000  0.23457000  1
  H  H187  1  0.71300000  0.96153000  0.28312000  1
  H  H188  1  0.46302000  0.04563000  0.36018000  1
  H  H189  1  0.36650000  0.03657000  0.31265000  1
  H  H190  1  0.75927000  0.92884000  0.35051000  1
  H  H191  1  0.85975000  0.94697000  0.39327000  1
  H  H192  1  0.66453000  0.11673000  0.40188000  1
  H  H193  1  0.56446000  0.09927000  0.35924000  1
  H  H194  1  0.16403000  0.09827000  0.25975000  1
  H  H195  1  0.00864000  0.16465000  0.24847000  1
  H  H196  1  0.04811000  0.12504000  0.12386000  1
  H  H197  1  0.20296000  0.05756000  0.13588000  1
  H  H198  1  0.91133000  0.24633000  0.21904000  1
  H  H199  1  0.75115000  0.30823000  0.20739000  1
  H  H200  1  0.73936000  0.19809000  0.12769000  1
  H  H201  1  0.89969000  0.13561000  0.13894000  1
  H  H202  1  0.32268000  0.90649000  0.13799000  1
  H  H203  1  0.34725000  0.81009000  0.12185000  1
  H  H204  1  0.55844000  0.73121000  0.20427000  1
  H  H205  1  0.52919000  0.82644000  0.22317000  1
  H  H206  1  0.42638000  0.73736000  0.09074000  1
  H  H207  1  0.43903000  0.63870000  0.07890000  1
  H  H208  1  0.51969000  0.55422000  0.20401000  1
  H  H209  1  0.50369000  0.65262000  0.21705000  1
  H  H210  1  0.51810000  0.90701000  0.22976000  1
  H  H211  1  0.28764000  0.72103000  0.64366000  1
  H  H212  1  0.51973000  0.64302000  0.55614000  1
  H  H213  1  0.32717000  0.54178000  0.63325000  1
  H  H214  1  0.16336000  0.58210000  0.63474000  1
  H  H215  1  0.00989000  0.58349000  0.68092000  1
  H  H216  1  0.07433000  0.67584000  0.76017000  1
  H  H217  1  0.22578000  0.67704000  0.71278000  1
  H  H218  1  0.92823000  0.54997000  0.74089000  1
  H  H219  1  0.76907000  0.55539000  0.78359000  1
  H  H220  1  0.76518000  0.71826000  0.81248000  1
  H  H221  1  0.92104000  0.71571000  0.76748000  1
  H  H222  1  0.46337000  0.72106000  0.65868000  1
  H  H223  1  0.54170000  0.80077000  0.64696000  1
  H  H224  1  0.52006000  0.84726000  0.51182000  1
  H  H225  1  0.44235000  0.76689000  0.52368000  1
  H  H226  1  0.51289000  0.94029000  0.52404000  1
  H  H227  1  0.61329000  0.00989000  0.51034000  1
  H  H228  1  0.78003000  0.88674000  0.60393000  1
  H  H229  1  0.68230000  0.81712000  0.61743000  1
  H  H230  1  0.61779000  0.55468000  0.56101000  1
  H  H231  1  0.70744000  0.46792000  0.53011000  1
  H  H232  1  0.45467000  0.41407000  0.54819000  1
  H  H233  1  0.36522000  0.50016000  0.57938000  1
  H  H234  1  0.73580000  0.42427000  0.47068000  1
  H  H235  1  0.81944000  0.33420000  0.44067000  1
  H  H236  1  0.64403000  0.23516000  0.53480000  1
  H  H237  1  0.55781000  0.32508000  0.56382000  1
  H  H238  1  0.93917000  0.89599000  0.57979000  1
  H  H239  1  0.42441000  0.58775000  0.00097000  1
  C  C240  1  0.34252000  0.49052000  0.74077000  1
  C  C241  1  0.39158000  0.53384000  0.73244000  1
  C  C242  1  0.48107000  0.52674000  0.70736000  1
  C  C243  1  0.52145000  0.47504000  0.69105000  1
  C  C244  1  0.25065000  0.49597000  0.76923000  1
  C  C245  1  0.18157000  0.47379000  0.76225000  1
  C  C246  1  0.09588000  0.47776000  0.78956000  1
  C  C247  1  0.07496000  0.50490000  0.82471000  1
  C  C248  1  0.14452000  0.52640000  0.83214000  1
  C  C249  1  0.23081000  0.52170000  0.80509000  1
  C  C250  1  0.98149000  0.51260000  0.85167000  1
  C  C251  1  0.93057000  0.46972000  0.86122000  1
  C  C252  1  0.84092000  0.47907000  0.88524000  1
  C  C253  1  0.79964000  0.53188000  0.90013000  1
  C  C254  1  0.84991000  0.57472000  0.89092000  1
  C  C255  1  0.93966000  0.56486000  0.86723000  1
  C  C256  1  0.70402000  0.54253000  0.92563000  1
  C  C257  1  0.53485000  0.57115000  0.69923000  1
  C  C258  1  0.52691000  0.60410000  0.72976000  1
  C  C259  1  0.58373000  0.64211000  0.72326000  1
  C  C260  1  0.65083000  0.64911000  0.68579000  1
  C  C261  1  0.65537000  0.61829000  0.65434000  1
  C  C262  1  0.59906000  0.58019000  0.66096000  1
  C  C263  1  0.71524000  0.68649000  0.67940000  1
  C  C264  1  0.69173000  0.73526000  0.69894000  1
  C  C265  1  0.75328000  0.77017000  0.69237000  1
  C  C266  1  0.84103000  0.75711000  0.66620000  1
  C  C267  1  0.86567000  0.70826000  0.64695000  1
  C  C268  1  0.80394000  0.67369000  0.65349000  1
  C  C269  1  0.90751000  0.79450000  0.65752000  1
  C  C270  1  0.52116000  0.37465000  0.68358000  1
  C  C271  1  0.60500000  0.36821000  0.65371000  1
  C  C272  1  0.65464000  0.31340000  0.64386000  1
  C  C273  1  0.62246000  0.26196000  0.66273000  1
  C  C274  1  0.53571000  0.26917000  0.69036000  1
  C  C275  1  0.48684000  0.32381000  0.70062000  1
  C  C276  1  0.67807000  0.20287000  0.65472000  1
  C  C277  1  0.74061000  0.19761000  0.61592000  1
  C  C278  1  0.79502000  0.14219000  0.60894000  1
  C  C279  1  0.78893000  0.08991000  0.64049000  1
  C  C280  1  0.72621000  0.09439000  0.67911000  1
  C  C281  1  0.67202000  0.15009000  0.68608000  1
  C  C282  1  0.85184000  0.03179000  0.63239000  1
  C  C283  1  0.47399000  0.43108000  0.69816000  1
  C  C284  1  0.38377000  0.44036000  0.72274000  1
  C  C285  1  0.43228000  0.13163000  0.14066000  1
  C  C286  1  0.35901000  0.18272000  0.13006000  1
  C  C287  1  0.30356000  0.18640000  0.10019000  1
  C  C288  1  0.32259000  0.13895000  0.08017000  1
  C  C289  1  0.39266000  0.08620000  0.09166000  1
  C  C290  1  0.44644000  0.08324000  0.12220000  1
  C  C291  1  0.49402000  0.12972000  0.17009000  1
  C  C292  1  0.59080000  0.10237000  0.16251000  1
  C  C293  1  0.65051000  0.10298000  0.18872000  1
  C  C294  1  0.61599000  0.13044000  0.22402000  1
  C  C295  1  0.51883000  0.15653000  0.23211000  1
  C  C296  1  0.45919000  0.15663000  0.20560000  1
  C  C297  1  0.68007000  0.13259000  0.25083000  1
  C  C298  1  0.76481000  0.08787000  0.25570000  1
  C  C299  1  0.82716000  0.09048000  0.27968000  1
  C  C300  1  0.80590000  0.13786000  0.30016000  1
  C  C301  1  0.72105000  0.18218000  0.29620000  1
  C  C302  1  0.65947000  0.17983000  0.27165000  1
  C  C303  1  0.87265000  0.13974000  0.32608000  1
  C  C304  1  0.22150000  0.23821000  0.09199000  1
  C  C305  1  0.14922000  0.24933000  0.12663000  1
  C  C306  1  0.06672000  0.29382000  0.11986000  1
  C  C307  1  0.05436000  0.32949000  0.07841000  1
  C  C308  1  0.12865000  0.32009000  0.04412000  1
  C  C309  1  0.21063000  0.27454000  0.05071000  1
  C  C310  1  0.96379000  0.37350000  0.07128000  1
  C  C311  1  0.95787000  0.42858000  0.04135000  1
  C  C312  1  0.87095000  0.46783000  0.03389000  1
  C  C313  1  0.78789000  0.45252000  0.05575000  1
  C  C314  1  0.79339000  0.39833000  0.08636000  1
  C  C315  1  0.88003000  0.35964000  0.09428000  1
  C  C316  1  0.69500000  0.49095000  0.04449000  1
  C  C317  1  0.40840000  0.03447000  0.07291000  1
  C  C318  1  0.33620000  0.02438000  0.05803000  1
  C  C319  1  0.35199000  0.97535000  0.04042000  1
  C  C320  1  0.44073000  0.93423000  0.03701000  1
  C  C321  1  0.51285000  0.94426000  0.05185000  1
  C  C322  1  0.49698000  0.99315000  0.06933000  1
  C  C323  1  0.45927000  0.88163000  0.01905000  1
  C  C324  1  0.41665000  0.88333000  0.98463000  1
  C  C325  1  0.43713000  0.83346000  0.96743000  1
  C  C326  1  0.49874000  0.78006000  0.98529000  1
  C  C327  1  0.54082000  0.77764000  0.01999000  1
  C  C328  1  0.52199000  0.82787000  0.03631000  1
  C  C329  1  0.51749000  0.72473000  0.96986000  1
  C  C330  1  0.57369000  0.00945000  0.75916000  1
  C  C331  1  0.65777000  0.96614000  0.76751000  1
  C  C332  1  0.71520000  0.97325000  0.79259000  1
  C  C333  1  0.68766000  0.02499000  0.80886000  1
  C  C334  1  0.51566000  0.00402000  0.73065000  1
  C  C335  1  0.41746000  0.02621000  0.73757000  1
  C  C336  1  0.36299000  0.02219000  0.71024000  1
  C  C337  1  0.40430000  0.99500000  0.67513000  1
  C  C338  1  0.50274000  0.97354000  0.66774000  1
  C  C339  1  0.55734000  0.97829000  0.69479000  1
  C  C340  1  0.34557000  0.98706000  0.64819000  1
  C  C341  1  0.26129000  0.02984000  0.63850000  1
  C  C342  1  0.20520000  0.02021000  0.61448000  1
  C  C343  1  0.23180000  0.96718000  0.59985000  1
  C  C344  1  0.31569000  0.92444000  0.60920000  1
  C  C345  1  0.37181000  0.93462000  0.63282000  1
  C  C346  1  0.17235000  0.95644000  0.57441000  1
  C  C347  1  0.80528000  0.92883000  0.80077000  1
  C  C348  1  0.86075000  0.89579000  0.77029000  1
  C  C349  1  0.94902000  0.85775000  0.77687000  1
  C  C350  1  0.98580000  0.85081000  0.81433000  1
  C  C351  1  0.92819000  0.88173000  0.84572000  1
  C  C352  1  0.84038000  0.91984000  0.83904000  1
  C  C353  1  0.08126000  0.81340000  0.82066000  1
  C  C354  1  0.12574000  0.76471000  0.80102000  1
  C  C355  1  0.21576000  0.72983000  0.80734000  1
  C  C356  1  0.26481000  0.74284000  0.83336000  1
  C  C357  1  0.22170000  0.79157000  0.85274000  1
  C  C358  1  0.13173000  0.82609000  0.84648000  1
  C  C359  1  0.36015000  0.70532000  0.84170000  1
  C  C360  1  0.57936000  0.12532000  0.81639000  1
  C  C361  1  0.62691000  0.13179000  0.84629000  1
  C  C362  1  0.61176000  0.18663000  0.85615000  1
  C  C363  1  0.54696000  0.23805000  0.83726000  1
  C  C364  1  0.49499000  0.23080000  0.80962000  1
  C  C365  1  0.51114000  0.17614000  0.79936000  1
  C  C366  1  0.53568000  0.29714000  0.84522000  1
  C  C367  1  0.55431000  0.30235000  0.88405000  1
  C  C368  1  0.54651000  0.35774000  0.89104000  1
  C  C369  1  0.51969000  0.41004000  0.85946000  1
  C  C370  1  0.50016000  0.40559000  0.82077000  1
  C  C371  1  0.50841000  0.34992000  0.81381000  1
  C  C372  1  0.51597000  0.46820000  0.86764000  1
  C  C373  1  0.60326000  0.06890000  0.80178000  1
  C  C374  1  0.54679000  0.05961000  0.77720000  1
  C  C375  1  0.70466000  0.36840000  0.35935000  1
  C  C376  1  0.67199000  0.31727000  0.36997000  1
  C  C377  1  0.59042000  0.31359000  0.39982000  1
  C  C378  1  0.54206000  0.36107000  0.41982000  1
  C  C379  1  0.57071000  0.41387000  0.40833000  1
  C  C380  1  0.65193000  0.41682000  0.37777000  1
  C  C381  1  0.79389000  0.37030000  0.32995000  1
  C  C382  1  0.85578000  0.39764000  0.33755000  1
  C  C383  1  0.94223000  0.39706000  0.31136000  1
  C  C384  1  0.97050000  0.36955000  0.27609000  1
  C  C385  1  0.90750000  0.34348000  0.26795000  1
  C  C386  1  0.82150000  0.34337000  0.29443000  1
  C  C387  1  0.06343000  0.36747000  0.24929000  1
  C  C388  1  0.10814000  0.41227000  0.24439000  1
  C  C389  1  0.19682000  0.40982000  0.22029000  1
  C  C390  1  0.24338000  0.36253000  0.19976000  1
  C  C391  1  0.19913000  0.31803000  0.20379000  1
  C  C392  1  0.11084000  0.32028000  0.22842000  1
  C  C393  1  0.33762000  0.36097000  0.17373000  1
  C  C394  1  0.55193000  0.26178000  0.40803000  1
  C  C395  1  0.52537000  0.25065000  0.37335000  1
  C  C396  1  0.48039000  0.20626000  0.38012000  1
  C  C397  1  0.46225000  0.17067000  0.42156000  1
  C  C398  1  0.49289000  0.18003000  0.45589000  1
  C  C399  1  0.53607000  0.22549000  0.44931000  1
  C  C400  1  0.40874000  0.12663000  0.42869000  1
  C  C401  1  0.42821000  0.07163000  0.45868000  1
  C  C402  1  0.37312000  0.03239000  0.46616000  1
  C  C403  1  0.29666000  0.04751000  0.44427000  1
  C  C404  1  0.27832000  0.10163000  0.41358000  1
  C  C405  1  0.33400000  0.14043000  0.40570000  1
  C  C406  1  0.23117000  0.00891000  0.45609000  1
  C  C407  1  0.51594000  0.46560000  0.42710000  1
  C  C408  1  0.41881000  0.47568000  0.44201000  1
  C  C409  1  0.36791000  0.52471000  0.45961000  1
  C  C410  1  0.41198000  0.56591000  0.46305000  1
  C  C411  1  0.50892000  0.55586000  0.44823000  1
  C  C412  1  0.55950000  0.50699000  0.43074000  1
  C  C413  1  0.35986000  0.61862000  0.48091000  1
  C  C414  1  0.28437000  0.61716000  0.51523000  1
  C  C415  1  0.23753000  0.66723000  0.53221000  1
  C  C416  1  0.26347000  0.72069000  0.51418000  1
  C  C417  1  0.33798000  0.72279000  0.47964000  1
  C  C418  1  0.38601000  0.67237000  0.46358000  1
  C  C419  1  0.21163000  0.77628000  0.52938000  1
  C  C420  1  0.65747000  0.50948000  0.25924000  1
  C  C421  1  0.60841000  0.46616000  0.26756000  1
  C  C422  1  0.51892000  0.47326000  0.29264000  1
  C  C423  1  0.47854000  0.52496000  0.30895000  1
  C  C424  1  0.74934000  0.50403000  0.23077000  1
  C  C425  1  0.81842000  0.52621000  0.23776000  1
  C  C426  1  0.90411000  0.52224000  0.21044000  1
  C  C427  1  0.92503000  0.49510000  0.17529000  1
  C  C428  1  0.85547000  0.47360000  0.16786000  1
  C  C429  1  0.76918000  0.47830000  0.19491000  1
  C  C430  1  0.01850000  0.48740000  0.14833000  1
  C  C431  1  0.06942000  0.53028000  0.13878000  1
  C  C432  1  0.15907000  0.52093000  0.11476000  1
  C  C433  1  0.20035000  0.46812000  0.09987000  1
  C  C434  1  0.15008000  0.42528000  0.10908000  1
  C  C435  1  0.06033000  0.43514000  0.13277000  1
  C  C436  1  0.29597000  0.45747000  0.07437000  1
  C  C437  1  0.46514000  0.42885000  0.30078000  1
  C  C438  1  0.47308000  0.39589000  0.27024000  1
  C  C439  1  0.41626000  0.35789000  0.27674000  1
  C  C440  1  0.34916000  0.35089000  0.31421000  1
  C  C441  1  0.34462000  0.38171000  0.34566000  1
  C  C442  1  0.40093000  0.41981000  0.33904000  1
  C  C443  1  0.28475000  0.31350000  0.32060000  1
  C  C444  1  0.30826000  0.26474000  0.30106000  1
  C  C445  1  0.24671000  0.22983000  0.30763000  1
  C  C446  1  0.15896000  0.24289000  0.33380000  1
  C  C447  1  0.13432000  0.29174000  0.35305000  1
  C  C448  1  0.19605000  0.32630000  0.34651000  1
  C  C449  1  0.09248000  0.20550000  0.34248000  1
  C  C450  1  0.47883000  0.62535000  0.31642000  1
  C  C451  1  0.39499000  0.63179000  0.34629000  1
  C  C452  1  0.34535000  0.68660000  0.35614000  1
  C  C453  1  0.37753000  0.73804000  0.33727000  1
  C  C454  1  0.46428000  0.73083000  0.30964000  1
  C  C455  1  0.51315000  0.67619000  0.29938000  1
  C  C456  1  0.32192000  0.79713000  0.34528000  1
  C  C457  1  0.25938000  0.80238000  0.38408000  1
  C  C458  1  0.20497000  0.85781000  0.39106000  1
  C  C459  1  0.21106000  0.91009000  0.35951000  1
  C  C460  1  0.27378000  0.90561000  0.32089000  1
  C  C461  1  0.32797000  0.84991000  0.31392000  1
  C  C462  1  0.14815000  0.96821000  0.36761000  1
  C  C463  1  0.52600000  0.56892000  0.30184000  1
  C  C464  1  0.61622000  0.55964000  0.27726000  1
  C  C465  1  0.56771000  0.86837000  0.85934000  1
  C  C466  1  0.64098000  0.81728000  0.86994000  1
  C  C467  1  0.69643000  0.81360000  0.89981000  1
  C  C468  1  0.67740000  0.86105000  0.91983000  1
  C  C469  1  0.60733000  0.91379000  0.90834000  1
  C  C470  1  0.55355000  0.91676000  0.87780000  1
  C  C471  1  0.50597000  0.87028000  0.82991000  1
  C  C472  1  0.40919000  0.89763000  0.83749000  1
  C  C473  1  0.34948000  0.89702000  0.81128000  1
  C  C474  1  0.38400000  0.86956000  0.77598000  1
  C  C475  1  0.48116000  0.84347000  0.76789000  1
  C  C476  1  0.54080000  0.84337000  0.79440000  1
  C  C477  1  0.31992000  0.86741000  0.74917000  1
  C  C478  1  0.23518000  0.91213000  0.74430000  1
  C  C479  1  0.17283000  0.90952000  0.72032000  1
  C  C480  1  0.19409000  0.86214000  0.69984000  1
  C  C481  1  0.27894000  0.81781000  0.70380000  1
  C  C482  1  0.34052000  0.82017000  0.72835000  1
  C  C483  1  0.12734000  0.86026000  0.67393000  1
  C  C484  1  0.77849000  0.76179000  0.90801000  1
  C  C485  1  0.85077000  0.75067000  0.87337000  1
  C  C486  1  0.93327000  0.70618000  0.88015000  1
  C  C487  1  0.94563000  0.67051000  0.92160000  1
  C  C488  1  0.87134000  0.67991000  0.95588000  1
  C  C489  1  0.78936000  0.72546000  0.94929000  1
  C  C490  1  0.03620000  0.62650000  0.92872000  1
  C  C491  1  0.04212000  0.57142000  0.95865000  1
  C  C492  1  0.12904000  0.53217000  0.96611000  1
  C  C493  1  0.21210000  0.54748000  0.94425000  1
  C  C494  1  0.20660000  0.60167000  0.91364000  1
  C  C495  1  0.11996000  0.64036000  0.90572000  1
  C  C496  1  0.30499000  0.50905000  0.95551000  1
  C  C497  1  0.59159000  0.96552000  0.92709000  1
  C  C498  1  0.66379000  0.97562000  0.94197000  1
  C  C499  1  0.64800000  0.02465000  0.95958000  1
  C  C500  1  0.55926000  0.06577000  0.96299000  1
  C  C501  1  0.48714000  0.05574000  0.94815000  1
  C  C502  1  0.50301000  0.00685000  0.93067000  1
  C  C503  1  0.54072000  0.11837000  0.98095000  1
  C  C504  1  0.58334000  0.11667000  0.01537000  1
  C  C505  1  0.56286000  0.16654000  0.03258000  1
  C  C506  1  0.50125000  0.21994000  0.01471000  1
  C  C507  1  0.45917000  0.22236000  0.98001000  1
  C  C508  1  0.47800000  0.17213000  0.96369000  1
  C  C509  1  0.48250000  0.27527000  0.03014000  1
  C  C510  1  0.42630000  0.99055000  0.24084000  1
  C  C511  1  0.34222000  0.03386000  0.23249000  1
  C  C512  1  0.28479000  0.02675000  0.20742000  1
  C  C513  1  0.31233000  0.97501000  0.19114000  1
  C  C514  1  0.48433000  0.99598000  0.26935000  1
  C  C515  1  0.58253000  0.97379000  0.26243000  1
  C  C516  1  0.63700000  0.97780000  0.28976000  1
  C  C517  1  0.59569000  0.00500000  0.32487000  1
  C  C518  1  0.49725000  0.02646000  0.33226000  1
  C  C519  1  0.44265000  0.02171000  0.30521000  1
  C  C520  1  0.65442000  0.01294000  0.35181000  1
  C  C521  1  0.73870000  0.97016000  0.36150000  1
  C  C522  1  0.79479000  0.97979000  0.38552000  1
  C  C523  1  0.76819000  0.03282000  0.40015000  1
  C  C524  1  0.68430000  0.07556000  0.39080000  1
  C  C525  1  0.62818000  0.06538000  0.36718000  1
  C  C526  1  0.82764000  0.04356000  0.42559000  1
  C  C527  1  0.19471000  0.07117000  0.19923000  1
  C  C528  1  0.13924000  0.10421000  0.22971000  1
  C  C529  1  0.05097000  0.14225000  0.22313000  1
  C  C530  1  0.01419000  0.14919000  0.18567000  1
  C  C531  1  0.07180000  0.11826000  0.15428000  1
  C  C532  1  0.15961000  0.08016000  0.16096000  1
  C  C533  1  0.91873000  0.18660000  0.17934000  1
  C  C534  1  0.87425000  0.23529000  0.19898000  1
  C  C535  1  0.78423000  0.27017000  0.19266000  1
  C  C536  1  0.73518000  0.25716000  0.16664000  1
  C  C537  1  0.77829000  0.20842000  0.14726000  1
  C  C538  1  0.86826000  0.17391000  0.15352000  1
  C  C539  1  0.63984000  0.29468000  0.15830000  1
  C  C540  1  0.42063000  0.87467000  0.18361000  1
  C  C541  1  0.37308000  0.86821000  0.15371000  1
  C  C542  1  0.38823000  0.81337000  0.14385000  1
  C  C543  1  0.45303000  0.76195000  0.16274000  1
  C  C544  1  0.50500000  0.76919000  0.19038000  1
  C  C545  1  0.48885000  0.82386000  0.20064000  1
  C  C546  1  0.46431000  0.70285000  0.15478000  1
  C  C547  1  0.44568000  0.69765000  0.11595000  1
  C  C548  1  0.45348000  0.64225000  0.10896000  1
  C  C549  1  0.48030000  0.58996000  0.14054000  1
  C  C550  1  0.49983000  0.59441000  0.17923000  1
  C  C551  1  0.49158000  0.65008000  0.18620000  1
  C  C552  1  0.48402000  0.53180000  0.13236000  1
  C  C553  1  0.39673000  0.93110000  0.19822000  1
  C  C554  1  0.45320000  0.94039000  0.22280000  1
  C  C555  1  0.29533000  0.63160000  0.64065000  1
  C  C556  1  0.32800000  0.68273000  0.63003000  1
  C  C557  1  0.40957000  0.68641000  0.60018000  1
  C  C558  1  0.45793000  0.63893000  0.58018000  1
  C  C559  1  0.42928000  0.58613000  0.59167000  1
  C  C560  1  0.34806000  0.58318000  0.62223000  1
  C  C561  1  0.20610000  0.62970000  0.67006000  1
  C  C562  1  0.14421000  0.60236000  0.66245000  1
  C  C563  1  0.05776000  0.60294000  0.68864000  1
  C  C564  1  0.02949000  0.63045000  0.72391000  1
  C  C565  1  0.09249000  0.65652000  0.73205000  1
  C  C566  1  0.17849000  0.65663000  0.70557000  1
  C  C567  1  0.93656000  0.63253000  0.75071000  1
  C  C568  1  0.89185000  0.58772000  0.75561000  1
  C  C569  1  0.80317000  0.59018000  0.77971000  1
  C  C570  1  0.75661000  0.63747000  0.80024000  1
  C  C571  1  0.80086000  0.68197000  0.79621000  1
  C  C572  1  0.88915000  0.67972000  0.77158000  1
  C  C573  1  0.66237000  0.63903000  0.82628000  1
  C  C574  1  0.44805000  0.73822000  0.59197000  1
  C  C575  1  0.47462000  0.74935000  0.62665000  1
  C  C576  1  0.51959000  0.79374000  0.61989000  1
  C  C577  1  0.53773000  0.82933000  0.57844000  1
  C  C578  1  0.50710000  0.81997000  0.54411000  1
  C  C579  1  0.46392000  0.77451000  0.55069000  1
  C  C580  1  0.59125000  0.87337000  0.57131000  1
  C  C581  1  0.57178000  0.92837000  0.54132000  1
  C  C582  1  0.62687000  0.96761000  0.53384000  1
  C  C583  1  0.70333000  0.95249000  0.55573000  1
  C  C584  1  0.72167000  0.89837000  0.58642000  1
  C  C585  1  0.66598000  0.85957000  0.59430000  1
  C  C586  1  0.76882000  0.99109000  0.54392000  1
  C  C587  1  0.48405000  0.53439000  0.57290000  1
  C  C588  1  0.58118000  0.52432000  0.55799000  1
  C  C589  1  0.63208000  0.47528000  0.54039000  1
  C  C590  1  0.58801000  0.43409000  0.53695000  1
  C  C591  1  0.49107000  0.44413000  0.55177000  1
  C  C592  1  0.44049000  0.49301000  0.56926000  1
  C  C593  1  0.64013000  0.38138000  0.51909000  1
  C  C594  1  0.71562000  0.38284000  0.48477000  1
  C  C595  1  0.76246000  0.33276000  0.46779000  1
  C  C596  1  0.73652000  0.27931000  0.48582000  1
  C  C597  1  0.66201000  0.27721000  0.52036000  1
  C  C598  1  0.61398000  0.32762000  0.53643000  1
  C  C599  1  0.78836000  0.22372000  0.47063000  1
  O  O600  1  0.48556000  0.55908000  0.00167000  1
  O  O601  1  0.91573000  0.03322000  0.59975000  1
  O  O602  1  0.83906000  0.98339000  0.65956000  1
  O  O603  1  0.66511000  0.49988000  0.93944000  1
  O  O604  1  0.66556000  0.59514000  0.93328000  1
  O  O605  1  0.87904000  0.84151000  0.67319000  1
  O  O606  1  0.98663000  0.77780000  0.63445000  1
  O  O607  1  0.99109000  0.89967000  0.59103000  1
  O  O608  1  0.95123000  0.09975000  0.32517000  1
  O  O609  1  0.84779000  0.18080000  0.34732000  1
  O  O610  1  0.68817000  0.54662000  0.02806000  1
  O  O611  1  0.62965000  0.46587000  0.05067000  1
  O  O612  1  0.49482000  0.72938000  0.93342000  1
  O  O613  1  0.55355000  0.67673000  0.99564000  1
  O  O614  1  0.04477000  0.94108000  0.49881000  1
  O  O615  1  0.54810000  0.46675000  0.90048000  1
  O  O616  1  0.48221000  0.51660000  0.84034000  1
  O  O617  1  0.10613000  0.99963000  0.55961000  1
  O  O618  1  0.19236000  0.90344000  0.56762000  1
  O  O619  1  0.39330000  0.65810000  0.82622000  1
  O  O620  1  0.40068000  0.72208000  0.86427000  1
  O  O621  1  0.48219000  0.60064000  0.90899000  1
  O  O622  1  0.37470000  0.40170000  0.17383000  1
  O  O623  1  0.37542000  0.31918000  0.15316000  1
  O  O624  1  0.26320000  0.95386000  0.47435000  1
  O  O625  1  0.14765000  0.03326000  0.44858000  1
  O  O626  1  0.15940000  0.77166000  0.56629000  1
  O  O627  1  0.22327000  0.82445000  0.50305000  1
  O  O628  1  0.51443000  0.44091000  0.99833000  1
  O  O629  1  0.08426000  0.96678000  0.40025000  1
  O  O630  1  0.16093000  0.01661000  0.34044000  1
  O  O631  1  0.33488000  0.50011000  0.06057000  1
  O  O632  1  0.33443000  0.40486000  0.06672000  1
  O  O633  1  0.12095000  0.15849000  0.32681000  1
  O  O634  1  0.01336000  0.22220000  0.36555000  1
  O  O635  1  0.00890000  0.10032000  0.40897000  1
  O  O636  1  0.04876000  0.90025000  0.67483000  1
  O  O637  1  0.15220000  0.81920000  0.65268000  1
  O  O638  1  0.31182000  0.45338000  0.97195000  1
  O  O639  1  0.37034000  0.53413000  0.94933000  1
  O  O640  1  0.50517000  0.27062000  0.06658000  1
  O  O641  1  0.44644000  0.32327000  0.00436000  1
  O  O642  1  0.95522000  0.05892000  0.50119000  1
  O  O643  1  0.45189000  0.53325000  0.09952000  1
  O  O644  1  0.51778000  0.48340000  0.15966000  1
  O  O645  1  0.89386000  0.00037000  0.44039000  1
  O  O646  1  0.80763000  0.09655000  0.43238000  1
  O  O647  1  0.60669000  0.34190000  0.17378000  1
  O  O648  1  0.59931000  0.27791000  0.13573000  1
  O  O649  1  0.51780000  0.39936000  0.09101000  1
  O  O650  1  0.62529000  0.59830000  0.82618000  1
  O  O651  1  0.62457000  0.68082000  0.84684000  1
  O  O652  1  0.73679000  0.04614000  0.52565000  1
  O  O653  1  0.85234000  0.96673000  0.55142000  1
  O  O654  1  0.84059000  0.22834000  0.43371000  1
  O  O655  1  0.77672000  0.17555000  0.49696000  1
