# generated using pymatgen
data_H6C12N3O4
_symmetry_space_group_name_H-M   'P 1'
_cell_length_a   34.96923978
_cell_length_b   34.96923978
_cell_length_c   34.96923978
_cell_angle_alpha   109.47122063
_cell_angle_beta   109.47122063
_cell_angle_gamma   109.47122063
_symmetry_Int_Tables_number   1
_chemical_formula_structural   H6C12N3O4
_chemical_formula_sum   'H144 C288 N72 O96'
_cell_volume   32918.24567997
_cell_formula_units_Z   24
loop_
 _symmetry_equiv_pos_site_id
 _symmetry_equiv_pos_as_xyz
  1  'x, y, z'
loop_
 _atom_site_type_symbol
 _atom_site_label
 _atom_site_symmetry_multiplicity
 _atom_site_fract_x
 _atom_site_fract_y
 _atom_site_fract_z
 _atom_site_occupancy
  C  1  1  0.66742000  0.31389250  0.33983650  1
  C  2  1  0.66793050  0.27080300  0.32396950  1
  C  3  1  0.67282650  0.24780000  0.35040250  1
  C  4  1  0.67955200  0.26934800  0.39641500  1
  C  5  1  0.67289550  0.30867050  0.41132500  1
  C  6  1  0.66800400  0.33026150  0.38347550  1
  C  9  1  0.66741650  0.33986000  0.31390450  1
  C  10  1  0.66799150  0.32407000  0.27084550  1
  C  11  1  0.67287750  0.35054700  0.24788150  1
  C  12  1  0.67955300  0.39653300  0.26945500  1
  C  13  1  0.67282250  0.41135700  0.30873850  1
  C  14  1  0.66791800  0.38345650  0.33027550  1
  C  23  1  0.35995150  0.68609400  0.66016550  1
  C  24  1  0.35947250  0.66974250  0.61658000  1
  C  25  1  0.35456800  0.69128700  0.58868800  1
  C  26  1  0.34783250  0.73056500  0.60351650  1
  C  27  1  0.35448950  0.75212400  0.64949550  1
  C  28  1  0.35936800  0.72914750  0.67596150  1
  C  31  1  0.35995250  0.66015250  0.68612600  1
  C  32  1  0.35936050  0.61650950  0.66973800  1
  C  33  1  0.35449200  0.58865600  0.69132600  1
  C  34  1  0.34785250  0.60356050  0.73066000  1
  C  35  1  0.35457800  0.64957150  0.75222250  1
  C  36  1  0.35948250  0.67602350  0.72923800  1
  C  45  1  0.03966050  0.68615200  0.33984850  1
  C  46  1  0.06689050  0.72925400  0.38344050  1
  C  47  1  0.11633350  0.75226000  0.41133450  1
  C  48  1  0.14079250  0.73072000  0.39648950  1
  C  49  1  0.11637150  0.69138450  0.35051900  1
  C  50  1  0.06692600  0.66978300  0.32405800  1
  C  53  1  0.98775400  0.66017650  0.31388350  1
  C  54  1  0.96048700  0.67596950  0.33025250  1
  C  55  1  0.91104500  0.64949350  0.30866550  1
  C  56  1  0.88662550  0.60352100  0.26933750  1
  C  57  1  0.91108450  0.58868200  0.24779350  1
  C  58  1  0.96052450  0.61657600  0.27079350  1
  C  67  1  0.98773650  0.31391950  0.66017000  1
  C  68  1  0.96050100  0.33027850  0.67603750  1
  C  69  1  0.91105850  0.30872900  0.64960050  1
  C  70  1  0.88660200  0.26943100  0.60359300  1
  C  71  1  0.91102700  0.24787950  0.58868750  1
  C  72  1  0.96047000  0.27085800  0.61653700  1
  C  75  1  0.03964050  0.33984750  0.68610400  1
  C  76  1  0.06690950  0.38348450  0.72916100  1
  C  77  1  0.11635300  0.41132300  0.75214000  1
  C  78  1  0.14077600  0.39640800  0.73059000  1
  C  79  1  0.11631600  0.35039850  0.69129750  1
  C  80  1  0.06687300  0.32396900  0.66975000  1
  C  89  1  0.32757050  0.66016750  0.97406300  1
  C  90  1  0.34394650  0.67603450  0.94684000  1
  C  91  1  0.32240200  0.64960500  0.89740000  1
  C  92  1  0.28311950  0.60359000  0.87293750  1
  C  93  1  0.26155300  0.58867850  0.89734850  1
  C  94  1  0.28451600  0.61652850  0.94679150  1
  C  97  1  0.35350550  0.68609900  0.02596550  1
  C  98  1  0.39713950  0.72916150  0.05323600  1
  C  99  1  0.42498850  0.75212750  0.10267700  1
  C  100  1  0.41008350  0.73056400  0.12709450  1
  C  101  1  0.36407550  0.69126900  0.10262950  1
  C  102  1  0.33763850  0.66972400  0.05318950  1
  C  111  1  0.69978350  0.33984250  0.02593500  1
  C  112  1  0.74289800  0.38342200  0.05317400  1
  C  113  1  0.76588550  0.41131650  0.10261400  1
  C  114  1  0.74431950  0.39648350  0.12706000  1
  C  115  1  0.70498900  0.35051150  0.10263450  1
  C  116  1  0.68339200  0.32405550  0.05319050  1
  C  119  1  0.67382300  0.31387800  0.97403200  1
  C  120  1  0.68962100  0.33026400  0.94677700  1
  C  121  1  0.66316900  0.30866400  0.89733300  1
  C  122  1  0.61720050  0.26932200  0.87290050  1
  C  123  1  0.60235450  0.24777000  0.89735150  1
  C  124  1  0.63024200  0.27076600  0.94679200  1
  C  133  1  0.69980700  0.66014850  0.34627650  1
  C  134  1  0.68345850  0.61656400  0.34579950  1
  C  135  1  0.70500800  0.58867450  0.34090650  1
  C  136  1  0.74430300  0.60351450  0.33419950  1
  C  137  1  0.76584400  0.64948200  0.34082400  1
  C  138  1  0.74285850  0.67593900  0.34568450  1
  C  141  1  0.67385850  0.68610400  0.34626650  1
  C  142  1  0.63021800  0.66972400  0.34567700  1
  C  143  1  0.60235850  0.69130750  0.34079000  1
  C  144  1  0.61726600  0.73063550  0.33414550  1
  C  145  1  0.66327350  0.75218950  0.34086500  1
  C  146  1  0.68972300  0.72920250  0.34577350  1
  C  155  1  0.32756150  0.33982950  0.65374600  1
  C  156  1  0.28446550  0.32396450  0.65424900  1
  C  157  1  0.26146200  0.35040400  0.65913900  1
  C  158  1  0.28300000  0.39640050  0.66582550  1
  C  159  1  0.32233000  0.41130600  0.65918000  1
  C  160  1  0.34392350  0.38345700  0.65430950  1
  C  163  1  0.35353600  0.31389900  0.65374200  1
  C  164  1  0.33774150  0.27083350  0.65430300  1
  C  165  1  0.36421000  0.24786050  0.65917350  1
  C  166  1  0.41019150  0.26942550  0.66583500  1
  C  167  1  0.42502900  0.30872250  0.65912550  1
  C  168  1  0.39713200  0.33026700  0.65423900  1
  C  177  1  0.35352100  0.02593550  0.68610650  1
  C  178  1  0.39711250  0.05316450  0.72920800  1
  C  179  1  0.42501050  0.10260400  0.75220950  1
  C  180  1  0.41018500  0.12706250  0.73065550  1
  C  181  1  0.36420850  0.10264300  0.69132250  1
  C  182  1  0.33773900  0.05320050  0.66972650  1
  C  185  1  0.32755250  0.97403100  0.66013750  1
  C  186  1  0.34392700  0.94676850  0.67592850  1
  C  187  1  0.32233200  0.89732500  0.64946600  1
  C  188  1  0.28300800  0.87290200  0.60348700  1
  C  189  1  0.26145800  0.89735800  0.58864900  1
  C  190  1  0.28444950  0.94679800  0.61654450  1
  C  199  1  0.67386200  0.97405900  0.31389300  1
  C  200  1  0.68973400  0.94682100  0.33023700  1
  C  201  1  0.66328450  0.89738300  0.30868750  1
  C  202  1  0.61727150  0.87293250  0.26940800  1
  C  203  1  0.60236500  0.89735750  0.24785850  1
  C  204  1  0.63021800  0.94680200  0.27084300  1
  C  207  1  0.69980700  0.02596200  0.33983900  1
  C  208  1  0.74285400  0.05321950  0.38348750  1
  C  209  1  0.76583750  0.10266300  0.41133550  1
  C  210  1  0.74429700  0.12709000  0.39641800  1
  C  211  1  0.70501600  0.10263750  0.35040550  1
  C  212  1  0.68346600  0.05319950  0.32396350  1
  C  221  1  0.35351600  0.65371200  0.31386800  1
  C  222  1  0.33764400  0.65419250  0.27076150  1
  C  223  1  0.36408650  0.65908700  0.24776450  1
  C  224  1  0.41008950  0.66579500  0.26931250  1
  C  225  1  0.42500050  0.65915700  0.30864650  1
  C  226  1  0.39715550  0.65429700  0.33024450  1
  C  229  1  0.32758100  0.65372500  0.33983500  1
  C  230  1  0.28452800  0.65431300  0.32404700  1
  C  231  1  0.26156700  0.65921200  0.35052800  1
  C  232  1  0.28312350  0.66585600  0.39649950  1
  C  233  1  0.32240800  0.65913100  0.41133000  1
  C  234  1  0.34394800  0.65422650  0.38343250  1
  C  243  1  0.67382000  0.34626000  0.68609200  1
  C  244  1  0.63023100  0.34577700  0.66974100  1
  C  245  1  0.60233850  0.34088000  0.69128850  1
  C  246  1  0.61717800  0.33416200  0.73057900  1
  C  247  1  0.66315500  0.34080550  0.75212550  1
  C  248  1  0.68961850  0.34568000  0.72914750  1
  C  251  1  0.69979300  0.34626550  0.66016050  1
  C  252  1  0.68341650  0.34568350  0.61652400  1
  C  253  1  0.70501150  0.34082200  0.58867650  1
  C  254  1  0.74433800  0.33416750  0.60357650  1
  C  255  1  0.76589900  0.34088850  0.64958650  1
  C  256  1  0.74290250  0.34578550  0.67603000  1
  C  529  1  0.68697200  0.54537300  0.34146700  1
  C  530  1  0.64591350  0.50432100  0.30197050  1
  C  531  1  0.63823600  0.45975200  0.29615100  1
  C  532  1  0.67223850  0.45464350  0.32675600  1
  C  533  1  0.71170450  0.49571800  0.36783850  1
  C  535  1  0.71753050  0.54030050  0.37553700  1
  C  543  1  0.34048200  0.66820800  0.87216400  1
  C  544  1  0.38155750  0.66982750  0.87216400  1
  C  545  1  0.38922800  0.67165800  0.83526300  1
  C  546  1  0.35519150  0.66815600  0.79610750  1
  C  547  1  0.31568550  0.66970550  0.79767900  1
  C  549  1  0.30986800  0.67159700  0.83644100  1
  C  557  1  0.80976200  0.45458450  0.12789750  1
  C  558  1  0.81139800  0.49568650  0.12793650  1
  C  559  1  0.85018600  0.54026450  0.16478850  1
  C  560  1  0.88584150  0.54537900  0.20395650  1
  C  561  1  0.88577350  0.50427800  0.20233150  1
  C  563  1  0.84892450  0.45970100  0.16355850  1
  C  571  1  0.21757750  0.33181400  0.65853850  1
  C  572  1  0.21601500  0.33027100  0.69804900  1
  C  573  1  0.17722100  0.32831150  0.70384250  1
  C  574  1  0.14157200  0.33178950  0.67324850  1
  C  575  1  0.14154700  0.33017000  0.63216500  1
  C  577  1  0.17842000  0.32827800  0.62446500  1
  C  585  1  0.34549100  0.65852700  0.20390100  1
  C  586  1  0.34392400  0.69802200  0.20234500  1
  C  587  1  0.34202450  0.70382600  0.16357650  1
  C  588  1  0.34547150  0.67324350  0.12789200  1
  C  589  1  0.34387000  0.63216750  0.12788950  1
  C  591  1  0.34198400  0.62445800  0.16476100  1
  C  599  1  0.46830700  0.12786200  0.79606600  1
  C  600  1  0.50938850  0.12785950  0.79768600  1
  C  601  1  0.55397050  0.16473050  0.83643400  1
  C  602  1  0.55907150  0.20389300  0.87206150  1
  C  603  1  0.51800800  0.20233300  0.87205700  1
  C  605  1  0.47342700  0.16355950  0.83520950  1
  C  613  1  0.68187700  0.87211750  0.32670350  1
  C  614  1  0.68346900  0.87207650  0.36776150  1
  C  615  1  0.68535600  0.83520150  0.37546350  1
  C  616  1  0.68186500  0.79604050  0.34143050  1
  C  617  1  0.68343500  0.79766300  0.30195500  1
  C  619  1  0.68533100  0.83642650  0.29614250  1
  C  627  1  0.55904800  0.34147550  0.67329550  1
  C  628  1  0.51798300  0.30197550  0.63223450  1
  C  629  1  0.47340400  0.29616900  0.62451500  1
  C  630  1  0.46834100  0.32677150  0.65857250  1
  C  631  1  0.50940400  0.36784650  0.69804850  1
  C  633  1  0.55397850  0.37553800  0.70386350  1
  C  641  1  0.14158200  0.79610350  0.45465450  1
  C  642  1  0.14156600  0.79765700  0.49570200  1
  C  643  1  0.17843100  0.83641700  0.54028100  1
  C  644  1  0.21757000  0.87206750  0.54537250  1
  C  645  1  0.21598900  0.87208700  0.50430800  1
  C  647  1  0.17719750  0.83526250  0.45971800  1
  C  655  1  0.67226150  0.20394400  0.33179950  1
  C  656  1  0.71173050  0.20232350  0.33020400  1
  C  657  1  0.71754950  0.16356650  0.32832900  1
  C  658  1  0.68699000  0.12790250  0.33181050  1
  C  659  1  0.64593550  0.12792400  0.33024050  1
  C  661  1  0.63826000  0.16481750  0.32838950  1
  C  669  1  0.35515750  0.67328150  0.54541100  1
  C  670  1  0.31569000  0.63223550  0.50429850  1
  C  671  1  0.30988400  0.62455200  0.45972800  1
  C  672  1  0.34046700  0.65858950  0.45463050  1
  C  673  1  0.38151000  0.69805650  0.49572950  1
  C  675  1  0.38916500  0.70386550  0.54028850  1
  C  683  1  0.88579100  0.32676800  0.66819200  1
  C  684  1  0.88576050  0.36781500  0.66974850  1
  C  685  1  0.84890150  0.37553450  0.67165900  1
  C  686  1  0.80977700  0.34146600  0.66817800  1
  C  687  1  0.81136200  0.30198350  0.66975950  1
  C  689  1  0.85014950  0.29619450  0.67168800  1
  C  865  1  0.34033000  0.45461500  0.65862700  1
  C  866  1  0.38138000  0.49567900  0.69811900  1
  C  867  1  0.38904450  0.54023750  0.70391700  1
  C  868  1  0.35503500  0.54535050  0.67331650  1
  C  869  1  0.31555250  0.50425200  0.63226550  1
  C  871  1  0.30974500  0.45967800  0.62457000  1
  C  879  1  0.68693750  0.33196200  0.12791450  1
  C  880  1  0.64592200  0.33043650  0.12799850  1
  C  881  1  0.63828050  0.32859650  0.16491200  1
  C  882  1  0.67230000  0.33199600  0.20401000  1
  C  883  1  0.71177500  0.33043100  0.20238200  1
  C  885  1  0.71754900  0.32852700  0.16359600  1
  C  893  1  0.21769250  0.54537000  0.87202850  1
  C  894  1  0.21608750  0.50427700  0.87197950  1
  C  895  1  0.17729950  0.45970300  0.83512150  1
  C  896  1  0.14166050  0.45464400  0.79599050  1
  C  897  1  0.14170900  0.49572600  0.79757600  1
  C  899  1  0.17856350  0.54029300  0.83636150  1
  C  907  1  0.80969350  0.66802800  0.34137150  1
  C  908  1  0.81131250  0.66956300  0.30187650  1
  C  909  1  0.85011950  0.67154700  0.29610250  1
  C  910  1  0.88574200  0.66804200  0.32668900  1
  C  911  1  0.88572300  0.66960750  0.36773650  1
  C  913  1  0.84884550  0.67151400  0.37541750  1
  C  921  1  0.68171450  0.34136650  0.79599400  1
  C  922  1  0.68329400  0.30188650  0.79757550  1
  C  923  1  0.68519550  0.29610700  0.83635850  1
  C  924  1  0.68172100  0.32666800  0.87203700  1
  C  925  1  0.68326250  0.36770450  0.87196800  1
  C  927  1  0.68516250  0.37541300  0.83510150  1
  C  935  1  0.55904300  0.87206250  0.20402350  1
  C  936  1  0.51795800  0.87202550  0.20243050  1
  C  937  1  0.47337900  0.83515150  0.16367450  1
  C  938  1  0.46827150  0.79600950  0.12801700  1
  C  939  1  0.50934650  0.79759900  0.12802450  1
  C  941  1  0.55392500  0.83638100  0.16486600  1
  C  949  1  0.34566650  0.12795550  0.67332800  1
  C  950  1  0.34411500  0.12800350  0.63228650  1
  C  951  1  0.34222250  0.16488050  0.62459300  1
  C  952  1  0.34567050  0.20400600  0.65862750  1
  C  953  1  0.34411950  0.20240800  0.69811750  1
  C  955  1  0.34222400  0.16363550  0.70391650  1
  C  963  1  0.46831100  0.65862550  0.32666250  1
  C  964  1  0.50943150  0.69810600  0.36768350  1
  C  965  1  0.55400200  0.70389000  0.37540300  1
  C  966  1  0.55903750  0.67328850  0.34132100  1
  C  967  1  0.51795800  0.63224800  0.30183800  1
  C  969  1  0.47340650  0.62458450  0.29607500  1
  C  977  1  0.88572750  0.20402050  0.54537000  1
  C  978  1  0.88571450  0.20241950  0.50430000  1
  C  979  1  0.84883800  0.16363250  0.45974350  1
  C  980  1  0.80968450  0.12796750  0.45464100  1
  C  981  1  0.81129550  0.12807100  0.49575750  1
  C  983  1  0.85009250  0.16490700  0.54033650  1
  C  991  1  0.35503100  0.79597650  0.66803550  1
  C  992  1  0.31553500  0.79756650  0.66957750  1
  C  993  1  0.30973250  0.83633350  0.67145800  1
  C  994  1  0.34032450  0.87201900  0.66802150  1
  C  995  1  0.38138150  0.87199200  0.66960250  1
  C  997  1  0.38905500  0.83510050  0.67146750  1
  C  1005  1  0.67229850  0.32661450  0.45461300  1
  C  1006  1  0.71179650  0.36765950  0.49569500  1
  C  1007  1  0.71758350  0.37534600  0.54026250  1
  C  1008  1  0.68696100  0.34132300  0.54534600  1
  C  1009  1  0.64592300  0.30184400  0.50425700  1
  C  1011  1  0.63826650  0.29602500  0.45969450  1
  C  1019  1  0.14166050  0.67335900  0.33197550  1
  C  1020  1  0.14173600  0.63232550  0.33042350  1
  C  1021  1  0.17857600  0.62458750  0.32848150  1
  C  1022  1  0.21770650  0.65866800  0.33198550  1
  C  1023  1  0.21613100  0.69816400  0.33043800  1
  C  1025  1  0.17732850  0.70392700  0.32849150  1
  H  7  1  0.66505650  0.25487550  0.29215100  1
  H  16  1  0.66504550  0.39651200  0.35922050  1
  H  17  1  0.70278650  0.41897350  0.23009700  1
  H  18  1  0.70272750  0.45912850  0.27029200  1
  H  19  1  0.70279150  0.27015150  0.45899600  1
  H  20  1  0.70269900  0.22989550  0.41875350  1
  H  21  1  0.66519000  0.35923250  0.39659750  1
  H  22  1  0.66518150  0.29228650  0.25491600  1
  H  29  1  0.36237200  0.64081550  0.60353050  1
  H  38  1  0.36238750  0.70785300  0.74519150  1
  H  39  1  0.32472900  0.54099950  0.72994350  1
  H  40  1  0.32489600  0.58123050  0.77025950  1
  H  41  1  0.32472000  0.77002800  0.58107500  1
  H  42  1  0.32478200  0.72983550  0.54094950  1
  H  43  1  0.36214450  0.74505450  0.70773400  1
  H  44  1  0.36213700  0.60338100  0.64074300  1
  H  51  1  0.05100150  0.74517150  0.39650700  1
  H  60  1  0.97641200  0.60351750  0.25486850  1
  H  61  1  0.82464350  0.58111350  0.26989700  1
  H  62  1  0.82467650  0.54097950  0.22969800  1
  H  63  1  0.20275650  0.73015200  0.41888950  1
  H  64  1  0.20277500  0.77040000  0.45902300  1
  H  65  1  0.05106500  0.64079350  0.29228350  1
  H  66  1  0.97634700  0.70774150  0.35924050  1
  H  73  1  0.97638750  0.35922750  0.70784700  1
  H  82  1  0.05098350  0.29215500  0.64080350  1
  H  83  1  0.20259100  0.45898450  0.76997250  1
  H  84  1  0.20255900  0.41872050  0.72979450  1
  H  85  1  0.82481950  0.23005650  0.54101100  1
  H  86  1  0.82478650  0.27019100  0.58125350  1
  H  87  1  0.97633250  0.25495050  0.60340600  1
  H  88  1  0.05104750  0.39662250  0.74506500  1
  H  95  1  0.37289300  0.70784750  0.96273050  1
  H  104  1  0.30582650  0.64077500  0.03730050  1
  H  105  1  0.47265750  0.76996650  0.18892000  1
  H  106  1  0.43240450  0.72976900  0.18887650  1
  H  107  1  0.24378300  0.54100150  0.81116550  1
  H  108  1  0.28393750  0.58124400  0.81115450  1
  H  109  1  0.26859050  0.60340550  0.96264800  1
  H  110  1  0.41025500  0.74509500  0.03738200  1
  H  117  1  0.75885450  0.39646500  0.03729850  1
  H  126  1  0.61719000  0.25481800  0.96267000  1
  H  127  1  0.59481050  0.27001050  0.81104100  1
  H  128  1  0.55465500  0.22970100  0.81095700  1
  H  129  1  0.74365750  0.41891750  0.18896900  1
  H  130  1  0.78386950  0.45904050  0.18891700  1
  H  131  1  0.65438700  0.29229300  0.03732200  1
  H  132  1  0.72138800  0.35926350  0.96264650  1
  H  139  1  0.65451400  0.60350400  0.34867300  1
  H  148  1  0.72154600  0.74514400  0.34866300  1
  H  149  1  0.55471800  0.73005750  0.31115650  1
  H  150  1  0.59495300  0.77027000  0.31123800  1
  H  151  1  0.78386700  0.58111800  0.31122800  1
  H  152  1  0.74375850  0.54098550  0.31135000  1
  H  153  1  0.75876400  0.70770950  0.34846050  1
  H  154  1  0.61708500  0.64072650  0.34844850  1
  H  161  1  0.26854200  0.29215450  0.65139350  1
  H  170  1  0.41019800  0.35922300  0.65138700  1
  H  171  1  0.43262700  0.23005500  0.68905100  1
  H  172  1  0.47277800  0.27024400  0.68898300  1
  H  173  1  0.28362700  0.45895850  0.68886250  1
  H  174  1  0.24344100  0.41870750  0.68880950  1
  H  175  1  0.37290700  0.39658200  0.65151700  1
  H  176  1  0.30596550  0.25491650  0.65151400  1
  H  183  1  0.41016250  0.03727950  0.74514400  1
  H  192  1  0.26851200  0.96268100  0.60348900  1
  H  193  1  0.28376800  0.81108450  0.58106450  1
  H  194  1  0.24353550  0.81110850  0.54091500  1
  H  195  1  0.43262100  0.18883450  0.72983950  1
  H  196  1  0.47277800  0.18886200  0.77012000  1
  H  197  1  0.30596650  0.03734150  0.64073800  1
  H  198  1  0.37291250  0.96262950  0.70770600  1
  H  205  1  0.72156250  0.96270050  0.35916300  1
  H  214  1  0.65453950  0.03731850  0.29213500  1
  H  215  1  0.78374550  0.18894400  0.45897250  1
  H  216  1  0.74367250  0.18901900  0.41873950  1
  H  217  1  0.55469900  0.81102100  0.22992600  1
  H  218  1  0.59495700  0.81108450  0.27011850  1
  H  219  1  0.61708650  0.96266900  0.25494250  1
  H  220  1  0.75875250  0.03735300  0.39662250  1
  H  227  1  0.30582800  0.65132300  0.25483100  1
  H  236  1  0.37288500  0.65134400  0.39648500  1
  H  237  1  0.24356600  0.68884900  0.41891600  1
  H  238  1  0.28372950  0.68877450  0.45904500  1
  H  239  1  0.47262950  0.68878500  0.26989950  1
  H  240  1  0.43239950  0.68866450  0.22964600  1
  H  241  1  0.41028450  0.65151800  0.35923550  1
  H  242  1  0.26861800  0.65153300  0.29227600  1
  H  249  1  0.61717250  0.34865750  0.64080300  1
  H  258  1  0.75883750  0.34866100  0.70784750  1
  H  259  1  0.74352900  0.31092000  0.54098000  1
  H  260  1  0.78377750  0.31102500  0.58124350  1
  H  261  1  0.59476650  0.31094150  0.76994500  1
  H  262  1  0.55460600  0.31107300  0.72982800  1
  H  263  1  0.72138850  0.34845600  0.74505250  1
  H  264  1  0.65441500  0.34844850  0.60339150  1
  H  534  1  0.61063050  0.43059250  0.26538000  1
  H  536  1  0.74832350  0.56943200  0.40313250  1
  H  548  1  0.41685350  0.66852500  0.83373050  1
  H  550  1  0.27905950  0.66837150  0.83476000  1
  H  562  1  0.84845650  0.56936650  0.16631700  1
  H  564  1  0.84732850  0.43055700  0.16522350  1
  H  576  1  0.17895000  0.33164700  0.73469200  1
  H  578  1  0.17996000  0.33147250  0.59686950  1
  H  590  1  0.34524800  0.73463100  0.16524900  1
  H  592  1  0.34518500  0.59686600  0.16630200  1
  H  604  1  0.58309750  0.16626200  0.83476350  1
  H  606  1  0.44428500  0.16523100  0.83361900  1
  H  618  1  0.68215600  0.83367350  0.40306150  1
  H  620  1  0.68211700  0.83475100  0.26533900  1
  H  632  1  0.44425300  0.26536350  0.59696650  1
  H  634  1  0.58311400  0.40312300  0.73465900  1
  H  646  1  0.17998250  0.83473700  0.56940950  1
  H  648  1  0.17891550  0.83368350  0.43059900  1
  H  660  1  0.74834800  0.16523350  0.33153550  1
  H  662  1  0.61064400  0.16635900  0.33154100  1
  H  674  1  0.27908900  0.59695850  0.43059350  1
  H  676  1  0.41677950  0.73463000  0.56945150  1
  H  688  1  0.84729650  0.40308200  0.66840150  1
  H  690  1  0.84842600  0.26536250  0.66841850  1
  H  870  1  0.41666050  0.56940250  0.73467800  1
  H  872  1  0.27894800  0.43054000  0.59698500  1
  H  884  1  0.61068000  0.33176100  0.16648400  1
  H  886  1  0.74833400  0.33171550  0.16523550  1
  H  898  1  0.17901800  0.43059000  0.83356900  1
  H  900  1  0.18016750  0.56944800  0.83471550  1
  H  912  1  0.84840750  0.66822850  0.26526400  1
  H  914  1  0.84730150  0.66831600  0.40301150  1
  H  926  1  0.68200450  0.26531750  0.83470500  1
  H  928  1  0.68193700  0.40299050  0.83354150  1
  H  940  1  0.44425350  0.83360300  0.16535650  1
  H  942  1  0.58306900  0.83472850  0.16644250  1
  H  954  1  0.34543100  0.16643050  0.59700550  1
  H  956  1  0.34543400  0.16529750  0.73471450  1
  H  968  1  0.58316300  0.73468850  0.40295350  1
  H  970  1  0.44426450  0.59699600  0.26528150  1
  H  982  1  0.84729750  0.16527700  0.43060450  1
  H  984  1  0.84837400  0.16652300  0.56946500  1
  H  996  1  0.27892900  0.83466500  0.66823200  1
  H  998  1  0.41667700  0.83355600  0.66833500  1
  H  1010  1  0.74837950  0.40293600  0.56940250  1
  H  1012  1  0.61065950  0.26526550  0.43052600  1
  H  1024  1  0.18017850  0.59703450  0.33172900  1
  H  1026  1  0.17905250  0.73475850  0.33176000  1
  N  8  1  0.69374350  0.25349950  0.42640600  1
  N  15  1  0.69375200  0.42656350  0.25364850  1
  N  30  1  0.33361550  0.74636700  0.57349050  1
  N  37  1  0.33366300  0.57357100  0.74650700  1
  N  52  1  0.18661950  0.74655300  0.42652350  1
  N  59  1  0.84080200  0.57348900  0.25352400  1
  N  74  1  0.84075750  0.25360950  0.57360000  1
  N  81  1  0.18662400  0.42640300  0.74641600  1
  N  96  1  0.26732650  0.57359250  0.82710200  1
  N  103  1  0.44007550  0.74639750  0.17294500  1
  N  118  1  0.76014250  0.42650450  0.17289500  1
  N  125  1  0.58717300  0.25346050  0.82705550  1
  N  140  1  0.76009950  0.57348200  0.31999950  1
  N  147  1  0.58725200  0.74644250  0.31992050  1
  N  162  1  0.26716600  0.42640700  0.68000100  1
  N  169  1  0.44021700  0.25361150  0.68002150  1
  N  184  1  0.44022300  0.17290250  0.74650050  1
  N  191  1  0.26715200  0.82705150  0.57347250  1
  N  206  1  0.58725750  0.82710150  0.25359700  1
  N  213  1  0.76010050  0.17292900  0.42640350  1
  N  228  1  0.44008900  0.68000700  0.25348800  1
  N  235  1  0.26733900  0.68008550  0.42653550  1
  N  250  1  0.58715850  0.31999450  0.74640600  1
  N  257  1  0.76016550  0.31997200  0.57356850  1
  N  537  1  0.74719850  0.49174750  0.39786800  1
  N  538  1  0.61590050  0.50828500  0.26645650  1
  N  551  1  0.28015600  0.66418250  0.75819250  1
  N  552  1  0.41159150  0.66437950  0.90617900  1
  N  565  1  0.91972550  0.50823100  0.24181950  1
  N  566  1  0.77191350  0.49173550  0.09397900  1
  N  579  1  0.10755650  0.33565450  0.60215100  1
  N  580  1  0.25551800  0.33583100  0.73359000  1
  N  593  1  0.34934150  0.60213850  0.09389400  1
  N  594  1  0.34944050  0.73354000  0.24183150  1
  N  607  1  0.52197150  0.24182900  0.90601350  1
  N  608  1  0.50539800  0.09386550  0.75820150  1
  N  621  1  0.67792150  0.75818300  0.26642650  1
  N  622  1  0.67798400  0.90605750  0.39779250  1
  N  635  1  0.50541750  0.39784450  0.73354900  1
  N  636  1  0.52194450  0.26645250  0.60223000  1
  N  649  1  0.25548000  0.90605950  0.50827950  1
  N  650  1  0.10759450  0.75815550  0.49171000  1
  N  663  1  0.61591100  0.09394450  0.33573150  1
  N  664  1  0.74723750  0.24179850  0.33569500  1
  N  677  1  0.41153100  0.73357750  0.49178150  1
  N  678  1  0.28016550  0.60219850  0.50823200  1
  N  691  1  0.77187050  0.26646150  0.66423500  1
  N  692  1  0.91972550  0.39781650  0.66422600  1
  N  873  1  0.28002050  0.50821000  0.60227250  1
  N  874  1  0.41138950  0.49173400  0.73365650  1
  N  887  1  0.74732450  0.33595750  0.24185300  1
  N  888  1  0.61592600  0.33598450  0.09405950  1
  N  901  1  0.10778150  0.49177950  0.75807500  1
  N  902  1  0.25559400  0.50823300  0.90591400  1
  N  915  1  0.91966000  0.66404650  0.39772050  1
  N  916  1  0.77180300  0.66396550  0.26630950  1
  N  929  1  0.67770900  0.39769650  0.90590750  1
  N  930  1  0.67776800  0.26635200  0.75809700  1
  N  943  1  0.50539950  0.75810600  0.09408150  1
  N  944  1  0.52194100  0.90597200  0.24194400  1
  N  957  1  0.34965850  0.24189300  0.73365850  1
  N  958  1  0.34965250  0.09405500  0.60228350  1
  N  971  1  0.52190850  0.60227450  0.26628500  1
  N  972  1  0.50550300  0.73366750  0.39767750  1
  N  985  1  0.77178300  0.09416500  0.49181700  1
  N  986  1  0.91965550  0.24191100  0.50824750  1
  N  999  1  0.41140450  0.90595500  0.66409450  1
  N  1000  1  0.27999450  0.75806900  0.66402250  1
  N  1013  1  0.61591800  0.26632200  0.50821500  1
  N  1014  1  0.74734550  0.39766800  0.49176150  1
  N  1027  1  0.25564300  0.73371900  0.33602600  1
  N  1028  1  0.10780700  0.60234000  0.33599200  1
  O  539  1  0.75423050  0.50968600  0.43894150  1
  O  540  1  0.57481500  0.49033050  0.25939350  1
  O  541  1  0.61509200  0.48904400  0.22851600  1
  O  542  1  0.78515850  0.51099400  0.39870750  1
  O  553  1  0.27307950  0.69819700  0.76906550  1
  O  554  1  0.45266500  0.69842350  0.92929850  1
  O  555  1  0.41243250  0.62725950  0.88778500  1
  O  556  1  0.24222550  0.62704250  0.73950100  1
  O  567  1  0.94287700  0.49028600  0.23096200  1
  O  568  1  0.78277750  0.50966250  0.07081800  1
  O  569  1  0.75323950  0.51099700  0.11243350  1
  O  570  1  0.90126450  0.48898550  0.26050000  1
  O  581  1  0.08440300  0.30160900  0.56107400  1
  O  582  1  0.24467800  0.30182100  0.74067500  1
  O  583  1  0.27418250  0.37297050  0.77151300  1
  O  584  1  0.12597600  0.37276800  0.60130800  1
  O  595  1  0.31529900  0.56106250  0.07075350  1
  O  596  1  0.31541650  0.74060050  0.23095800  1
  O  597  1  0.38656900  0.77147950  0.26051650  1
  O  598  1  0.38646150  0.60130250  0.11230700  1
  O  609  1  0.50404150  0.23097550  0.92917600  1
  O  610  1  0.52333100  0.07071650  0.76908250  1
  O  611  1  0.52463900  0.11228200  0.73949300  1
  O  612  1  0.50271600  0.26050400  0.88755300  1
  O  623  1  0.71193900  0.76906100  0.25935500  1
  O  624  1  0.71201550  0.92919300  0.43887550  1
  O  625  1  0.64085550  0.88763050  0.39861000  1
  O  626  1  0.64078350  0.73948800  0.22849350  1
  O  637  1  0.52335450  0.43893050  0.74060500  1
  O  638  1  0.50400650  0.25938650  0.56114200  1
  O  639  1  0.50269000  0.22851600  0.60142400  1
  O  640  1  0.52466800  0.39866700  0.77149600  1
  O  651  1  0.24462250  0.92923900  0.49037850  1
  O  652  1  0.08443200  0.76901050  0.50963950  1
  O  653  1  0.12603650  0.73946400  0.51095550  1
  O  654  1  0.27414900  0.88761350  0.48900050  1
  O  665  1  0.57482500  0.07081950  0.30170750  1
  O  666  1  0.75429450  0.23090500  0.30166950  1
  O  667  1  0.78518150  0.26050200  0.37282550  1
  O  668  1  0.61510400  0.11237400  0.37286600  1
  O  679  1  0.45261950  0.74065000  0.50975450  1
  O  680  1  0.27310700  0.56111500  0.49027100  1
  O  681  1  0.24222350  0.60139150  0.48899100  1
  O  682  1  0.41232450  0.77151100  0.51101350  1
  O  693  1  0.78273550  0.25940400  0.69826250  1
  O  694  1  0.94287100  0.43890500  0.69824400  1
  O  695  1  0.90127550  0.39861600  0.62709150  1
  O  696  1  0.75319500  0.22852200  0.62710900  1
  O  875  1  0.27291500  0.49024200  0.56117100  1
  O  876  1  0.45248650  0.50971150  0.74075500  1
  O  877  1  0.41215750  0.51096450  0.77157700  1
  O  878  1  0.24210100  0.48898350  0.60150650  1
  O  889  1  0.75441600  0.30195400  0.23097100  1
  O  890  1  0.57481500  0.30200800  0.07095700  1
  O  891  1  0.61519250  0.37315600  0.11253350  1
  O  892  1  0.78524300  0.37310600  0.26052900  1
  O  903  1  0.08463450  0.50973900  0.76891250  1
  O  904  1  0.24475400  0.49027700  0.92906300  1
  O  905  1  0.27426400  0.48899400  0.88742800  1
  O  906  1  0.12627600  0.51102100  0.73941000  1
  O  917  1  0.94280400  0.69804050  0.43882350  1
  O  918  1  0.78261650  0.69794900  0.25918050  1
  O  919  1  0.75315050  0.62680500  0.22840950  1
  O  920  1  0.90117600  0.62689450  0.39848050  1
  O  931  1  0.71169550  0.43880500  0.92904450  1
  O  932  1  0.71177650  0.25926750  0.76896800  1
  O  933  1  0.64062550  0.22842450  0.73941700  1
  O  934  1  0.64054450  0.39844300  0.88743550  1
  O  945  1  0.52333800  0.76895100  0.07092300  1
  O  946  1  0.50397500  0.92911650  0.23110950  1
  O  947  1  0.50273050  0.88750200  0.26064150  1
  O  948  1  0.52465200  0.73943600  0.11255700  1
  O  959  1  0.31566600  0.23103200  0.74076700  1
  O  960  1  0.31565550  0.07092300  0.56118250  1
  O  961  1  0.38680800  0.11251900  0.60152200  1
  O  962  1  0.38681650  0.26058350  0.77157400  1
  O  973  1  0.50393600  0.56116350  0.25915750  1
  O  974  1  0.52346850  0.74078900  0.43878550  1
  O  975  1  0.52473750  0.77157200  0.39842050  1
  O  976  1  0.50266500  0.60152900  0.22838100  1
  O  987  1  0.78259550  0.07100750  0.50977800  1
  O  988  1  0.94280050  0.23105250  0.49029300  1
  O  989  1  0.90117900  0.26057800  0.48899400  1
  O  990  1  0.75312250  0.11267700  0.51104750  1
  O  1001  1  0.45249650  0.92907200  0.69810250  1
  O  1002  1  0.27287150  0.76892550  0.69800800  1
  O  1003  1  0.24208350  0.73937800  0.62685950  1
  O  1004  1  0.41218550  0.88750500  0.62694750  1
  O  1015  1  0.57481650  0.25921400  0.49022150  1
  O  1016  1  0.75444950  0.43876850  0.50973500  1
  O  1017  1  0.78526100  0.39842850  0.51099750  1
  O  1018  1  0.61515600  0.22840000  0.48900500  1
  O  1029  1  0.24481700  0.74084000  0.30204000  1
  O  1030  1  0.08465100  0.56123350  0.30200050  1
  O  1031  1  0.12629200  0.60158900  0.37314900  1
  O  1032  1  0.27429750  0.77162350  0.37318100  1
