# generated using pymatgen
data_Mn3H4(C5O4)4
_symmetry_space_group_name_H-M   'P 1'
_cell_length_a   9.40484000
_cell_length_b   17.32057000
_cell_length_c   19.11698000
_cell_angle_alpha   90.00183000
_cell_angle_beta   90.00000000
_cell_angle_gamma   89.99597000
_symmetry_Int_Tables_number   1
_chemical_formula_structural   Mn3H4(C5O4)4
_chemical_formula_sum   'Mn12 H16 C80 O64'
_cell_volume   3114.10230556
_cell_formula_units_Z   4
loop_
 _symmetry_equiv_pos_site_id
 _symmetry_equiv_pos_as_xyz
  1  'x, y, z'
loop_
 _atom_site_type_symbol
 _atom_site_label
 _atom_site_symmetry_multiplicity
 _atom_site_fract_x
 _atom_site_fract_y
 _atom_site_fract_z
 _atom_site_occupancy
  Mn  Mn0  1  0.26583000  0.19090000  0.25560000  1
  Mn  Mn1  1  0.23465000  0.69058000  0.24428000  1
  Mn  Mn2  1  0.26493000  0.30967000  0.74470000  1
  Mn  Mn3  1  0.23394000  0.80845000  0.75640000  1
  Mn  Mn4  1  0.73463000  0.80937000  0.74423000  1
  Mn  Mn5  1  0.76571000  0.30863000  0.75639000  1
  Mn  Mn6  1  0.73468000  0.69126000  0.25586000  1
  Mn  Mn7  1  0.76552000  0.19053000  0.24439000  1
  Mn  Mn8  1  0.38440000  0.75079000  0.50043000  1
  Mn  Mn9  1  0.11470000  0.24994000  0.00009000  1
  Mn  Mn10  1  0.61450000  0.25003000  0.49987000  1
  Mn  Mn11  1  0.88559000  0.75085000  0.99962000  1
  H  H12  1  0.93982000  0.94496000  0.22313000  1
  H  H13  1  0.30445000  0.93783000  0.41007000  1
  H  H14  1  0.56016000  0.44506000  0.27691000  1
  H  H15  1  0.19574000  0.43722000  0.08991000  1
  H  H16  1  0.93983000  0.55495000  0.77685000  1
  H  H17  1  0.30420000  0.56250000  0.58999000  1
  H  H18  1  0.55999000  0.05497000  0.72304000  1
  H  H19  1  0.19533000  0.06261000  0.91012000  1
  H  H20  1  0.05939000  0.05499000  0.77685000  1
  H  H21  1  0.69539000  0.06248000  0.58973000  1
  H  H22  1  0.44065000  0.55496000  0.72303000  1
  H  H23  1  0.80476000  0.56280000  0.91031000  1
  H  H24  1  0.06003000  0.44514000  0.22321000  1
  H  H25  1  0.69541000  0.43745000  0.41004000  1
  H  H26  1  0.43977000  0.94493000  0.27688000  1
  H  H27  1  0.80427000  0.93739000  0.08996000  1
  C  C28  1  0.25954000  0.08027000  0.37262000  1
  C  C29  1  0.18659000  0.01029000  0.34132000  1
  C  C30  1  0.08182000  0.01184000  0.28828000  1
  C  C31  1  0.02084000  0.94299000  0.26345000  1
  C  C32  1  0.06469000  0.87159000  0.28943000  1
  C  C33  1  0.17011000  0.86965000  0.34200000  1
  C  C34  1  0.22619000  0.93879000  0.36847000  1
  C  C35  1  0.02663000  0.08499000  0.25613000  1
  C  C36  1  0.99662000  0.80006000  0.25969000  1
  C  C37  1  0.22707000  0.79717000  0.37072000  1
  C  C38  1  0.24055000  0.57976000  0.12730000  1
  C  C39  1  0.31316000  0.50995000  0.15880000  1
  C  C40  1  0.41766000  0.51147000  0.21193000  1
  C  C41  1  0.47926000  0.44272000  0.23659000  1
  C  C42  1  0.43666000  0.37125000  0.21034000  1
  C  C43  1  0.33092000  0.36931000  0.15785000  1
  C  C44  1  0.27404000  0.43839000  0.13155000  1
  C  C45  1  0.47325000  0.58464000  0.24380000  1
  C  C46  1  0.50466000  0.29959000  0.24027000  1
  C  C47  1  0.27339000  0.29698000  0.12919000  1
  C  C48  1  0.26029000  0.42003000  0.62774000  1
  C  C49  1  0.18715000  0.48974000  0.65894000  1
  C  C50  1  0.08232000  0.48829000  0.71199000  1
  C  C51  1  0.02061000  0.55715000  0.73645000  1
  C  C52  1  0.06326000  0.62863000  0.71013000  1
  C  C53  1  0.16887000  0.63037000  0.65757000  1
  C  C54  1  0.22600000  0.56127000  0.63159000  1
  C  C55  1  0.02713000  0.41515000  0.74372000  1
  C  C56  1  0.99518000  0.70026000  0.74029000  1
  C  C57  1  0.22557000  0.70287000  0.62880000  1
  C  C58  1  0.24212000  0.91990000  0.87316000  1
  C  C59  1  0.31408000  0.99005000  0.84167000  1
  C  C60  1  0.41845000  0.98832000  0.78853000  1
  C  C61  1  0.47920000  0.05714000  0.76345000  1
  C  C62  1  0.43548000  0.12859000  0.78935000  1
  C  C63  1  0.32992000  0.13063000  0.84187000  1
  C  C64  1  0.27391000  0.06158000  0.86859000  1
  C  C65  1  0.47344000  0.91504000  0.75614000  1
  C  C66  1  0.50310000  0.20030000  0.75978000  1
  C  C67  1  0.27260000  0.20306000  0.87033000  1
  C  C68  1  0.74119000  0.91988000  0.62720000  1
  C  C69  1  0.81327000  0.98974000  0.65852000  1
  C  C70  1  0.91775000  0.98828000  0.71169000  1
  C  C71  1  0.97868000  0.05716000  0.73644000  1
  C  C72  1  0.93582000  0.12855000  0.71012000  1
  C  C73  1  0.83042000  0.13040000  0.65750000  1
  C  C74  1  0.77370000  0.06127000  0.63132000  1
  C  C75  1  0.97338000  0.91529000  0.74378000  1
  C  C76  1  0.00409000  0.20002000  0.74027000  1
  C  C77  1  0.77419000  0.20301000  0.62867000  1
  C  C78  1  0.75814000  0.41992000  0.87322000  1
  C  C79  1  0.68656000  0.49013000  0.84165000  1
  C  C80  1  0.58226000  0.48841000  0.78850000  1
  C  C81  1  0.52135000  0.55719000  0.76347000  1
  C  C82  1  0.56436000  0.62864000  0.78963000  1
  C  C83  1  0.66977000  0.63067000  0.84223000  1
  C  C84  1  0.72633000  0.56168000  0.86871000  1
  C  C85  1  0.52703000  0.41514000  0.75618000  1
  C  C86  1  0.49605000  0.70003000  0.75978000  1
  C  C87  1  0.72687000  0.70306000  0.87088000  1
  C  C88  1  0.74218000  0.58034000  0.37303000  1
  C  C89  1  0.81372000  0.51008000  0.34154000  1
  C  C90  1  0.91807000  0.51170000  0.28844000  1
  C  C91  1  0.97915000  0.44291000  0.26353000  1
  C  C92  1  0.93610000  0.37144000  0.28964000  1
  C  C93  1  0.83030000  0.36946000  0.34208000  1
  C  C94  1  0.77386000  0.43856000  0.36851000  1
  C  C95  1  0.97343000  0.58484000  0.25624000  1
  C  C96  1  0.00401000  0.29982000  0.25973000  1
  C  C97  1  0.77307000  0.29705000  0.37077000  1
  C  C98  1  0.75936000  0.07985000  0.12734000  1
  C  C99  1  0.68652000  0.01009000  0.15876000  1
  C  C100  1  0.58181000  0.01159000  0.21181000  1
  C  C101  1  0.52054000  0.94275000  0.23649000  1
  C  C102  1  0.56348000  0.87131000  0.21022000  1
  C  C103  1  0.66898000  0.86943000  0.15765000  1
  C  C104  1  0.72584000  0.93853000  0.13152000  1
  C  C105  1  0.52652000  0.08476000  0.24388000  1
  C  C106  1  0.49540000  0.79972000  0.24022000  1
  C  C107  1  0.72608000  0.79700000  0.12876000  1
  O  O108  1  0.33572000  0.07256000  0.42478000  1
  O  O109  1  0.23523000  0.14886000  0.34481000  1
  O  O110  1  0.10554000  0.12195000  0.21427000  1
  O  O111  1  0.89875000  0.10126000  0.27190000  1
  O  O112  1  0.06753000  0.76350000  0.21370000  1
  O  O113  1  0.87201000  0.78455000  0.28074000  1
  O  O114  1  0.21339000  0.73125000  0.34318000  1
  O  O115  1  0.29654000  0.80610000  0.42931000  1
  O  O116  1  0.16425000  0.57143000  0.07533000  1
  O  O117  1  0.26510000  0.64873000  0.15475000  1
  O  O118  1  0.39421000  0.62171000  0.28575000  1
  O  O119  1  0.60080000  0.60104000  0.22813000  1
  O  O120  1  0.43427000  0.26371000  0.28674000  1
  O  O121  1  0.62877000  0.28314000  0.21883000  1
  O  O122  1  0.28658000  0.23110000  0.15675000  1
  O  O123  1  0.20358000  0.30589000  0.07057000  1
  O  O124  1  0.33512000  0.42684000  0.57523000  1
  O  O125  1  0.23709000  0.35087000  0.65596000  1
  O  O126  1  0.10671000  0.37741000  0.78509000  1
  O  O127  1  0.89933000  0.39897000  0.72867000  1
  O  O128  1  0.06484000  0.73571000  0.78722000  1
  O  O129  1  0.87112000  0.71683000  0.71866000  1
  O  O130  1  0.20976000  0.76845000  0.65634000  1
  O  O131  1  0.29677000  0.69396000  0.57047000  1
  O  O132  1  0.16374000  0.92897000  0.92458000  1
  O  O133  1  0.26949000  0.85154000  0.84664000  1
  O  O134  1  0.39474000  0.87844000  0.71406000  1
  O  O135  1  0.60144000  0.89865000  0.77193000  1
  O  O136  1  0.43147000  0.23751000  0.71439000  1
  O  O137  1  0.62791000  0.21554000  0.78056000  1
  O  O138  1  0.28536000  0.26905000  0.84246000  1
  O  O139  1  0.20434000  0.19464000  0.92926000  1
  O  O140  1  0.66464000  0.92703000  0.57531000  1
  O  O141  1  0.76699000  0.85090000  0.65513000  1
  O  O142  1  0.89434000  0.87828000  0.78583000  1
  O  O143  1  0.10106000  0.89887000  0.72836000  1
  O  O144  1  0.93432000  0.23546000  0.78718000  1
  O  O145  1  0.12840000  0.21610000  0.71881000  1
  O  O146  1  0.79062000  0.26858000  0.65618000  1
  O  O147  1  0.70309000  0.19412000  0.57026000  1
  O  O148  1  0.83643000  0.42902000  0.92473000  1
  O  O149  1  0.73082000  0.35155000  0.84690000  1
  O  O150  1  0.60546000  0.37843000  0.71405000  1
  O  O151  1  0.39906000  0.39901000  0.77214000  1
  O  O152  1  0.56662000  0.73632000  0.71351000  1
  O  O153  1  0.37160000  0.71563000  0.78089000  1
  O  O154  1  0.71323000  0.76899000  0.84311000  1
  O  O155  1  0.79640000  0.69433000  0.92944000  1
  O  O156  1  0.66424000  0.57171000  0.42467000  1
  O  O157  1  0.76973000  0.64860000  0.34615000  1
  O  O158  1  0.89479000  0.62153000  0.21404000  1
  O  O159  1  0.10121000  0.60117000  0.27213000  1
  O  O160  1  0.93311000  0.26395000  0.21340000  1
  O  O161  1  0.12830000  0.28360000  0.28098000  1
  O  O162  1  0.78665000  0.23110000  0.34323000  1
  O  O163  1  0.70350000  0.30599000  0.42932000  1
  O  O164  1  0.83568000  0.07161000  0.07534000  1
  O  O165  1  0.73505000  0.14877000  0.15490000  1
  O  O166  1  0.60536000  0.12170000  0.28586000  1
  O  O167  1  0.39880000  0.10117000  0.22801000  1
  O  O168  1  0.56549000  0.76399000  0.28693000  1
  O  O169  1  0.37133000  0.78336000  0.21875000  1
  O  O170  1  0.71146000  0.73127000  0.15617000  1
  O  O171  1  0.79697000  0.80626000  0.07040000  1
