# generated using pymatgen
data_CuH14C10IN4
_symmetry_space_group_name_H-M   'P 1'
_cell_length_a   5.66258000
_cell_length_b   11.48306227
_cell_length_c   11.48261067
_cell_angle_alpha   70.08581984
_cell_angle_beta   75.89966023
_cell_angle_gamma   75.89875362
_symmetry_Int_Tables_number   1
_chemical_formula_structural   CuH14C10IN4
_chemical_formula_sum   'Cu2 H28 C20 I2 N8'
_cell_volume   670.19540410
_cell_formula_units_Z   2
loop_
 _symmetry_equiv_pos_site_id
 _symmetry_equiv_pos_as_xyz
  1  'x, y, z'
loop_
 _atom_site_type_symbol
 _atom_site_label
 _atom_site_symmetry_multiplicity
 _atom_site_fract_x
 _atom_site_fract_y
 _atom_site_fract_z
 _atom_site_occupancy
  Cu  Cu0  1  0.63573000  0.39333000  0.10454000  1
  Cu  Cu1  1  0.13565000  0.60460000  0.89335000  1
  H  H2  1  0.55009000  0.12716000  0.25421000  1
  H  H3  1  0.62263000  0.97940000  0.22180000  1
  H  H4  1  0.37964000  0.10039000  0.15896000  1
  H  H5  1  0.29070000  0.22672000  0.72576000  1
  H  H6  1  0.29092000  0.06084000  0.77678000  1
  H  H7  1  0.44899000  0.12563000  0.84897000  1
  H  H8  1  0.00844000  0.35387000  0.89053000  1
  H  H9  1  0.93124000  0.87403000  0.74283000  1
  H  H10  1  0.82071000  0.01965000  0.77870000  1
  H  H11  1  0.64000000  0.89707000  0.83914000  1
  H  H12  1  0.24673000  0.77192000  0.27255000  1
  H  H13  1  0.13114000  0.93765000  0.22161000  1
  H  H14  1  0.42653000  0.87394000  0.14994000  1
  H  H15  1  0.26117000  0.64581000  0.10479000  1
  H  H16  1  0.04978000  0.75408000  0.62731000  1
  H  H17  1  0.12264000  0.72185000  0.47946000  1
  H  H18  1  0.87969000  0.65883000  0.60032000  1
  H  H19  1  0.79063000  0.22568000  0.72681000  1
  H  H20  1  0.79077000  0.27673000  0.56092000  1
  H  H21  1  0.94896000  0.34890000  0.62570000  1
  H  H22  1  0.50833000  0.39055000  0.85390000  1
  H  H23  1  0.43075000  0.24288000  0.37396000  1
  H  H24  1  0.32078000  0.27865000  0.51965000  1
  H  H25  1  0.13969000  0.33926000  0.39724000  1
  H  H26  1  0.74659000  0.77254000  0.27190000  1
  H  H27  1  0.63110000  0.72156000  0.43767000  1
  H  H28  1  0.92656000  0.64994000  0.37390000  1
  H  H29  1  0.76115000  0.60470000  0.14586000  1
  C  C30  1  0.56548000  0.08119000  0.18250000  1
  C  C31  1  0.74805000  0.13223000  0.07014000  1
  C  C32  1  0.92601000  0.06689000  0.99216000  1
  C  C33  1  0.05610000  0.15796000  0.90280000  1
  C  C34  1  0.28164000  0.14257000  0.80772000  1
  C  C35  1  0.82901000  0.91757000  0.81613000  1
  C  C36  1  0.95224000  0.86608000  0.92803000  1
  C  C37  1  0.98721000  0.93136000  0.00645000  1
  C  C38  1  0.12078000  0.84062000  0.09515000  1
  C  C39  1  0.23549000  0.85622000  0.19071000  1
  C  C40  1  0.06543000  0.68244000  0.58123000  1
  C  C41  1  0.24805000  0.57011000  0.63224000  1
  C  C42  1  0.42603000  0.49212000  0.56692000  1
  C  C43  1  0.55610000  0.40275000  0.65799000  1
  C  C44  1  0.78160000  0.30764000  0.64266000  1
  C  C45  1  0.32884000  0.31616000  0.41759000  1
  C  C46  1  0.45223000  0.42799000  0.36611000  1
  C  C47  1  0.48721000  0.50639000  0.43141000  1
  C  C48  1  0.62080000  0.59510000  0.34067000  1
  C  C49  1  0.73548000  0.69069000  0.35621000  1
  I  I50  1  0.64620000  0.60840000  0.88982000  1
  I  I51  1  0.14620000  0.38987000  0.10836000  1
  N  N52  1  0.76699000  0.25495000  0.02969000  1
  N  N53  1  0.94968000  0.26894000  0.92647000  1
  N  N54  1  0.05515000  0.74368000  0.96753000  1
  N  N55  1  0.14978000  0.72987000  0.07067000  1
  N  N56  1  0.26694000  0.52967000  0.75497000  1
  N  N57  1  0.44959000  0.42644000  0.76899000  1
  N  N58  1  0.55514000  0.46749000  0.24370000  1
  N  N59  1  0.64975000  0.57062000  0.22991000  1
