# generated using pymatgen
data_H29C43(N3O)2
_symmetry_space_group_name_H-M   'P 1'
_cell_length_a   30.20410000
_cell_length_b   41.85750000
_cell_length_c   95.57450000
_cell_angle_alpha   89.92100000
_cell_angle_beta   89.81740000
_cell_angle_gamma   90.51490000
_symmetry_Int_Tables_number   1
_chemical_formula_structural   H29C43(N3O)2
_chemical_formula_sum   'H232 C344 N48 O16'
_cell_volume   120826.18053628
_cell_formula_units_Z   8
loop_
 _symmetry_equiv_pos_site_id
 _symmetry_equiv_pos_as_xyz
  1  'x, y, z'
loop_
 _atom_site_type_symbol
 _atom_site_label
 _atom_site_symmetry_multiplicity
 _atom_site_fract_x
 _atom_site_fract_y
 _atom_site_fract_z
 _atom_site_occupancy
  H  73  1  0.27205700  0.37268500  0.22131800  1
  H  74  1  0.29415000  0.33945500  0.20230300  1
  H  75  1  0.33833400  0.45115800  0.20263300  1
  H  76  1  0.35930900  0.41823400  0.18341600  1
  H  77  1  0.40844000  0.37286500  0.17780800  1
  H  78  1  0.43056100  0.33959500  0.15880700  1
  H  79  1  0.28076100  0.33081500  0.17695400  1
  H  80  1  0.30350400  0.29697600  0.15816000  1
  H  81  1  0.39947400  0.26641200  0.17248300  1
  H  82  1  0.43911600  0.21343900  0.17207300  1
  H  83  1  0.42618400  0.24414300  0.13173500  1
  H  84  1  0.42133300  0.24250800  0.10719600  1
  H  85  1  0.33840700  0.34766000  0.13353600  1
  H  86  1  0.33508300  0.34701000  0.10697600  1
  H  87  1  0.40905900  0.34797900  0.08215300  1
  H  88  1  0.37081100  0.38288900  0.06652400  1
  H  89  1  0.29909100  0.28513100  0.08243500  1
  H  90  1  0.26121600  0.31944300  0.06661400  1
  H  91  1  0.40053000  0.27032500  0.06684700  1
  H  92  1  0.44555900  0.21947200  0.06640500  1
  H  93  1  0.50714700  0.13762400  0.13210800  1
  H  94  1  0.50862000  0.13876300  0.10556200  1
  H  95  1  0.42539900  0.14950900  0.07685500  1
  H  96  1  0.45797200  0.11442000  0.06001400  1
  H  97  1  0.55102400  0.18997800  0.08505700  1
  H  98  1  0.58368600  0.15496300  0.06827500  1
  H  99  1  0.59704300  0.09458500  0.06528000  1
  H  100  1  0.63254900  0.06218300  0.04807400  1
  H  101  1  0.53395200  0.08644200  0.01881700  1
  H  102  1  0.49849500  0.11881800  0.03600100  1
  H  103  1  0.53426700  0.19342600  0.16148100  1
  H  104  1  0.55631400  0.15600100  0.17908400  1
  H  105  1  0.50909400  0.06017800  0.17370200  1
  H  106  1  0.52913800  0.02197800  0.19102300  1
  H  107  1  0.54660700  0.09631500  0.22044500  1
  H  108  1  0.52605600  0.13453100  0.20309700  1
  H  109  1  0.44366600  0.09902700  0.17018400  1
  H  110  1  0.42180300  0.13642200  0.15262600  1
  H  111  1  0.22702800  0.37304000  0.06734500  1
  H  112  1  0.18514600  0.40579900  0.05204000  1
  H  113  1  0.34007600  0.38677900  0.04184100  1
  H  114  1  0.29816800  0.42020800  0.02662000  1
  H  119  1  0.56505500  0.01249900  0.21429500  1
  H  120  1  0.25794300  0.43562600  0.22706700  1
  H  121  1  0.18133500  0.42475100  0.02657100  1
  H  122  1  0.61379600  0.06538200  0.01224500  1
  H  195  1  0.29466400  0.62364000  0.28207300  1
  H  196  1  0.30929000  0.65360500  0.30264200  1
  H  197  1  0.33445000  0.53939200  0.30274800  1
  H  198  1  0.34828000  0.56945000  0.32344000  1
  H  199  1  0.40359000  0.61172700  0.33102900  1
  H  200  1  0.42480600  0.64506800  0.35018300  1
  H  201  1  0.28354000  0.66207900  0.32746300  1
  H  202  1  0.30526900  0.69571000  0.34652600  1
  H  203  1  0.39901100  0.72183300  0.33406900  1
  H  204  1  0.43905000  0.77513900  0.33418800  1
  H  205  1  0.42428300  0.74578800  0.37470100  1
  H  206  1  0.42010800  0.74757400  0.39922700  1
  H  207  1  0.33532100  0.64159900  0.37346500  1
  H  208  1  0.33197000  0.64277900  0.40003200  1
  H  209  1  0.40656600  0.64277600  0.42460300  1
  H  210  1  0.36839700  0.60786800  0.44053100  1
  H  211  1  0.29706200  0.70464000  0.42451500  1
  H  212  1  0.25927700  0.67033800  0.44064900  1
  H  213  1  0.39775600  0.72098200  0.43973300  1
  H  214  1  0.44316200  0.77225200  0.43988700  1
  H  215  1  0.50757400  0.85243100  0.37376200  1
  H  216  1  0.50876900  0.85188400  0.40032400  1
  H  217  1  0.42479300  0.84312100  0.42832300  1
  H  218  1  0.45716100  0.87819600  0.44529100  1
  H  219  1  0.54879500  0.79988700  0.42193500  1
  H  220  1  0.58121000  0.83470200  0.43894000  1
  H  221  1  0.59947300  0.89364900  0.44229200  1
  H  222  1  0.63376800  0.92593100  0.45983200  1
  H  223  1  0.52618100  0.90742800  0.48704900  1
  H  224  1  0.49214100  0.87495700  0.46958000  1
  H  225  1  0.53253800  0.79648400  0.34393400  1
  H  226  1  0.55388800  0.83407800  0.32610900  1
  H  227  1  0.51067900  0.92955300  0.33229300  1
  H  228  1  0.52573400  0.96822100  0.31463200  1
  H  229  1  0.53340900  0.89468100  0.28447700  1
  H  230  1  0.51869200  0.85596400  0.30224700  1
  H  231  1  0.44326800  0.89074200  0.33626600  1
  H  232  1  0.42196200  0.85315800  0.35395200  1
  H  233  1  0.22466800  0.61641500  0.44034500  1
  H  234  1  0.18306900  0.58350600  0.45597900  1
  H  235  1  0.33840000  0.60432100  0.46533900  1
  H  236  1  0.29679200  0.57073300  0.48087700  1
  H  241  1  0.53292600  0.98177100  0.29037800  1
  H  242  1  0.29965200  0.57451000  0.26912100  1
  H  243  1  0.18010400  0.56480600  0.48158200  1
  H  244  1  0.60112200  0.92891300  0.49559600  1
  H  317  1  0.08112100  0.61612900  0.78634100  1
  H  318  1  0.05874700  0.64942300  0.80530100  1
  H  319  1  0.01577100  0.53747500  0.80520300  1
  H  320  1  0.99448400  0.57048200  0.82436000  1
  H  321  1  0.94478000  0.61571200  0.82981000  1
  H  322  1  0.92228500  0.64902700  0.84875300  1
  H  323  1  0.07211700  0.65830200  0.83066900  1
  H  324  1  0.04901200  0.69217200  0.84941200  1
  H  325  1  0.95328900  0.72265100  0.83510200  1
  H  326  1  0.91286200  0.77533000  0.83555300  1
  H  327  1  0.92528500  0.74418100  0.87583700  1
  H  328  1  0.92740400  0.74456500  0.90038200  1
  H  329  1  0.01425900  0.64121300  0.87401700  1
  H  330  1  0.01764000  0.64191800  0.90058600  1
  H  331  1  0.94480900  0.64190100  0.92637500  1
  H  332  1  0.98434900  0.60828000  0.94222500  1
  H  333  1  0.05491200  0.70445700  0.92409600  1
  H  334  1  0.09409300  0.67146200  0.94013400  1
  H  335  1  0.95461000  0.71969000  0.94071000  1
  H  336  1  0.90801500  0.76982200  0.94117500  1
  H  337  1  0.84086800  0.84924300  0.87552200  1
  H  338  1  0.83843200  0.84756000  0.90208200  1
  H  339  1  0.92268200  0.84267000  0.92819400  1
  H  340  1  0.89050000  0.87828400  0.94478000  1
  H  341  1  0.80108700  0.79298900  0.92495200  1
  H  342  1  0.76887800  0.82822500  0.94175300  1
  H  343  1  0.74645600  0.88560900  0.94386600  1
  H  344  1  0.71568400  0.92400600  0.95945900  1
  H  345  1  0.83041600  0.91933600  0.98445100  1
  H  346  1  0.86073800  0.88053900  0.96905700  1
  H  347  1  0.81678100  0.79461300  0.84604400  1
  H  348  1  0.79475000  0.83217500  0.82849600  1
  H  349  1  0.84178200  0.92815500  0.83406900  1
  H  350  1  0.82182700  0.96642200  0.81677100  1
  H  351  1  0.80431200  0.89218800  0.78729900  1
  H  352  1  0.82483300  0.85391500  0.80461600  1
  H  353  1  0.90693200  0.88939800  0.83768000  1
  H  354  1  0.92871500  0.85190700  0.85520700  1
  H  355  1  0.12816900  0.61781200  0.94022800  1
  H  356  1  0.17102900  0.58673200  0.95594200  1
  H  357  1  0.01675200  0.60693400  0.96669100  1
  H  358  1  0.05953700  0.57504300  0.98229200  1
  H  363  1  0.78643300  0.97616800  0.79350700  1
  H  364  1  0.09581200  0.55325800  0.78065100  1
  H  365  1  0.17609500  0.57068100  0.98190000  1
  H  366  1  0.77594000  0.96247000  0.98738600  1
  H  439  1  0.05893300  0.36439000  0.72600200  1
  H  440  1  0.04404100  0.33432800  0.70547800  1
  H  441  1  0.01912700  0.44857300  0.70527800  1
  H  442  1  0.00502400  0.41841800  0.68463300  1
  H  443  1  0.94946500  0.37616200  0.67719200  1
  H  444  1  0.92797300  0.34286300  0.65805800  1
  H  445  1  0.06948800  0.32572000  0.68060600  1
  H  446  1  0.04749100  0.29213100  0.66155500  1
  H  447  1  0.95415600  0.26562700  0.67399800  1
  H  448  1  0.91325900  0.21264000  0.67375800  1
  H  449  1  0.92723500  0.24285600  0.63334400  1
  H  450  1  0.92822200  0.24267200  0.60879700  1
  H  451  1  0.01713100  0.34659800  0.63474100  1
  H  452  1  0.02040000  0.34560600  0.60816100  1
  H  453  1  0.94652500  0.34403400  0.58225900  1
  H  454  1  0.98590200  0.37789200  0.56618400  1
  H  455  1  0.05753700  0.28390300  0.58501500  1
  H  456  1  0.09658600  0.31713300  0.56875000  1
  H  457  1  0.95747100  0.26641500  0.56837900  1
  H  458  1  0.91031900  0.21594400  0.56812500  1
  H  459  1  0.84015300  0.13783000  0.63408700  1
  H  460  1  0.83778600  0.13917600  0.60751900  1
  H  461  1  0.92116600  0.14148000  0.58241900  1
  H  462  1  0.88878500  0.10626800  0.56561000  1
  H  463  1  0.80410400  0.19557600  0.58320600  1
  H  464  1  0.77183500  0.16083000  0.56612900  1
  H  465  1  0.74373800  0.10501400  0.56347400  1
  H  466  1  0.71243600  0.06791000  0.54727200  1
  H  467  1  0.83341900  0.06613100  0.52508000  1
  H  468  1  0.86430000  0.10377700  0.54101700  1
  H  469  1  0.81880800  0.19243900  0.66417400  1
  H  470  1  0.79751100  0.15467600  0.68193100  1
  H  471  1  0.84000800  0.05888700  0.67544200  1
  H  472  1  0.82504900  0.02017100  0.69308900  1
  H  473  1  0.81786700  0.09361200  0.72330600  1
  H  474  1  0.83258400  0.13236200  0.70556000  1
  H  475  1  0.90707100  0.09744000  0.67124200  1
  H  476  1  0.92825500  0.13515500  0.65359800  1
  H  477  1  0.12983400  0.37149400  0.56819200  1
  H  478  1  0.17233200  0.40298600  0.55222600  1
  H  479  1  0.01859600  0.37889300  0.54173900  1
  H  480  1  0.06097800  0.41120800  0.52589300  1
  H  485  1  0.81759200  0.00652900  0.71733200  1
  H  486  1  0.05411600  0.41360500  0.73891200  1
  H  487  1  0.17707900  0.41814600  0.52599500  1
  H  488  1  0.77384800  0.02311200  0.52231100  1
  H  496  1  0.32589500  0.54564800  0.24887600  1
  H  501  1  0.21042000  0.42467700  0.26060500  1
  H  502  1  0.23100700  0.39041300  0.26949000  1
  H  503  1  0.19812500  0.39198400  0.23920700  1
  H  504  1  0.16909600  0.37561700  0.25375800  1
  H  505  1  0.21901400  0.35782200  0.24795000  1
  H  515  1  0.50973600  0.04552300  0.25556600  1
  H  520  1  0.62359700  0.87848900  0.25137300  1
  H  521  1  0.57934500  0.88402500  0.26343000  1
  H  522  1  0.67791300  0.89232100  0.27002200  1
  H  523  1  0.64375400  0.85955400  0.27513200  1
  H  524  1  0.63376400  0.89817100  0.28205600  1
  H  534  1  0.02810900  0.44261600  0.75915000  1
  H  539  1  0.14308000  0.56358000  0.74792400  1
  H  540  1  0.12329000  0.59705800  0.73830800  1
  H  541  1  0.15377900  0.59805100  0.76884600  1
  H  542  1  0.18386800  0.61324500  0.75427100  1
  H  543  1  0.13351600  0.63145000  0.75941100  1
  H  553  1  0.83992200  0.94239500  0.75211000  1
  H  558  1  0.72796500  0.11011700  0.75663100  1
  H  559  1  0.77155000  0.10487200  0.74430400  1
  H  560  1  0.67274800  0.09553500  0.73834200  1
  H  561  1  0.70594300  0.12860000  0.73297600  1
  H  562  1  0.71628000  0.09003300  0.72605100  1
  H  572  1  0.11441100  0.47656600  0.99343100  1
  H  577  1  0.30159600  0.49180600  0.03555700  1
  H  578  1  0.32707900  0.52960400  0.03220700  1
  H  579  1  0.35572000  0.46602100  0.01942500  1
  H  580  1  0.38295900  0.48669100  0.03318000  1
  H  581  1  0.38099900  0.50379800  0.01618100  1
  H  591  1  0.11457100  0.51142800  0.51500100  1
  H  596  1  0.30114600  0.50022000  0.47221100  1
  H  597  1  0.32680300  0.46268200  0.47520000  1
  H  598  1  0.35464700  0.52603000  0.48865700  1
  H  599  1  0.38233700  0.50665200  0.47467400  1
  H  600  1  0.38020800  0.48852500  0.49147500  1
  H  610  1  0.72501100  0.97668200  0.51634000  1
  H  615  1  0.52012600  0.04646200  0.48887300  1
  H  616  1  0.53354800  0.01442400  0.50038100  1
  H  617  1  0.48733700  0.00715000  0.47208000  1
  H  618  1  0.46125700  0.00486700  0.48873100  1
  H  619  1  0.50032900  0.97553100  0.48374400  1
  H  629  1  0.73079600  0.01096600  0.99324900  1
  H  634  1  0.54723600  0.99358100  0.03570900  1
  H  635  1  0.51861600  0.95699700  0.03240200  1
  H  636  1  0.49698500  0.02173100  0.01922200  1
  H  637  1  0.46694200  0.00283200  0.03296500  1
  H  638  1  0.46812000  0.98528900  0.01606500  1
  C  1  1  0.41035700  0.25544500  0.16358100  1
  C  2  1  0.43171600  0.22644700  0.16334600  1
  C  3  1  0.44071600  0.21862100  0.14941400  1
  C  5  1  0.40509600  0.26580400  0.14978500  1
  C  6  1  0.38338600  0.29440800  0.14575800  1
  C  7  1  0.37498000  0.30337400  0.13168300  1
  C  9  1  0.37233800  0.30284600  0.10821600  1
  C  10  1  0.35015100  0.32998300  0.11292000  1
  C  11  1  0.35215100  0.33047100  0.12735000  1
  C  12  1  0.37843000  0.29368800  0.09401500  1
  C  13  1  0.40218300  0.26626200  0.08951200  1
  C  15  1  0.44216600  0.22075500  0.08911800  1
  C  16  1  0.43490100  0.23045700  0.07532700  1
  C  17  1  0.41017500  0.25808900  0.07556400  1
  C  18  1  0.46613400  0.19303900  0.09314700  1
  C  19  1  0.47282900  0.18347900  0.10726600  1
  C  21  1  0.47112700  0.18228000  0.13074100  1
  C  22  1  0.49355800  0.15521700  0.12611600  1
  C  23  1  0.49456500  0.15593500  0.11168200  1
  C  24  1  0.46269000  0.19047300  0.14492100  1
  C  25  1  0.47612000  0.16829800  0.15539600  1
  C  26  1  0.45026400  0.14070400  0.15812800  1
  C  27  1  0.46331600  0.11867800  0.16841300  1
  C  28  1  0.50223300  0.12376600  0.17635500  1
  C  29  1  0.52767100  0.15170400  0.17368300  1
  C  30  1  0.51498000  0.17359900  0.16327400  1
  C  31  1  0.51542400  0.10116300  0.18668000  1
  C  32  1  0.52709500  0.11091200  0.20036400  1
  C  33  1  0.53882600  0.08835900  0.21062300  1
  C  34  1  0.53973300  0.05533800  0.20746700  1
  C  35  1  0.52891600  0.04565000  0.19371800  1
  C  36  1  0.51669500  0.06816100  0.18353000  1
  C  37  1  0.48499300  0.17338500  0.08244000  1
  C  38  1  0.45872700  0.15113300  0.07497700  1
  C  39  1  0.47798700  0.13051300  0.06505800  1
  C  40  1  0.52420500  0.13099900  0.06244500  1
  C  41  1  0.55026500  0.15339400  0.06996800  1
  C  42  1  0.53102900  0.17431200  0.07974700  1
  C  43  1  0.54400100  0.10995400  0.05243400  1
  C  44  1  0.52612200  0.10643300  0.03883600  1
  C  45  1  0.54718300  0.08747200  0.02866100  1
  C  46  1  0.58635500  0.07070100  0.03181400  1
  C  47  1  0.60377000  0.07346100  0.04547900  1
  C  48  1  0.58306400  0.09288600  0.05556700  1
  C  49  1  0.35788500  0.31310400  0.08362500  1
  C  50  1  0.37818500  0.34154400  0.07871900  1
  C  51  1  0.35564400  0.36197900  0.06947200  1
  C  52  1  0.31199700  0.35485100  0.06496400  1
  C  53  1  0.29239700  0.32590500  0.06974200  1
  C  54  1  0.31482700  0.30540400  0.07894000  1
  C  55  1  0.28790900  0.37629900  0.05615200  1
  C  56  1  0.24270000  0.38277200  0.05882000  1
  C  57  1  0.21798500  0.40238600  0.04984900  1
  C  58  1  0.23767300  0.41663300  0.03791600  1
  C  59  1  0.28307500  0.41096700  0.03535100  1
  C  60  1  0.30776800  0.39125000  0.04435600  1
  C  61  1  0.36898000  0.31539100  0.15660900  1
  C  62  1  0.39876900  0.33778100  0.16248800  1
  C  63  1  0.32567200  0.31317200  0.16215400  1
  C  64  1  0.31256800  0.33290700  0.17333300  1
  C  65  1  0.34218800  0.35545800  0.17934900  1
  C  66  1  0.38550900  0.35749800  0.17363800  1
  C  67  1  0.32908000  0.37532700  0.19084600  1
  C  68  1  0.34156500  0.40803300  0.19141600  1
  C  69  1  0.32906500  0.42756600  0.20272300  1
  C  70  1  0.30348600  0.41503200  0.21388600  1
  C  71  1  0.29054300  0.38254500  0.21338600  1
  C  72  1  0.30333400  0.36304000  0.20209200  1
  C  115  1  0.55030500  0.03246200  0.21740500  1
  C  116  1  0.60877000  0.05437400  0.02136300  1
  C  117  1  0.21144400  0.43340800  0.02859700  1
  C  118  1  0.29010100  0.43423600  0.22486000  1
  C  123  1  0.40952300  0.73323800  0.34292100  1
  C  124  1  0.43114000  0.76242200  0.34299400  1
  C  125  1  0.43984500  0.77077000  0.35688100  1
  C  127  1  0.40360300  0.72332300  0.35677400  1
  C  128  1  0.38145900  0.69467500  0.36096100  1
  C  129  1  0.37291000  0.68595700  0.37508600  1
  C  131  1  0.37011300  0.68701200  0.39854500  1
  C  132  1  0.34744600  0.65969400  0.39399200  1
  C  133  1  0.34944900  0.65892300  0.37956200  1
  C  134  1  0.37620800  0.69655500  0.41269300  1
  C  135  1  0.40012300  0.72429700  0.41704300  1
  C  137  1  0.44048400  0.77013600  0.41718000  1
  C  138  1  0.43270600  0.76085800  0.43102800  1
  C  139  1  0.40779500  0.73299200  0.43094500  1
  C  140  1  0.46483300  0.79789900  0.41299500  1
  C  141  1  0.47193100  0.80713000  0.39883300  1
  C  143  1  0.47053100  0.80776000  0.37535300  1
  C  144  1  0.49346600  0.83498500  0.37984500  1
  C  145  1  0.49432700  0.83459800  0.39428300  1
  C  146  1  0.46212100  0.79919300  0.36121400  1
  C  147  1  0.47542400  0.82143200  0.35063700  1
  C  148  1  0.44994000  0.84898700  0.34818400  1
  C  149  1  0.46266700  0.87113700  0.33782200  1
  C  150  1  0.50085600  0.86620600  0.32950000  1
  C  151  1  0.52589000  0.83829400  0.33185100  1
  C  152  1  0.51357300  0.81630700  0.34237000  1
  C  153  1  0.51330500  0.88889700  0.31903800  1
  C  154  1  0.52122200  0.87950400  0.30504800  1
  C  155  1  0.52986300  0.90241900  0.29455100  1
  C  156  1  0.53164100  0.93547100  0.29771100  1
  C  157  1  0.52513200  0.94461400  0.31182700  1
  C  158  1  0.51592400  0.92180500  0.32227400  1
  C  159  1  0.48360200  0.81794900  0.42361300  1
  C  160  1  0.45773700  0.84099000  0.43058600  1
  C  161  1  0.47688400  0.86157000  0.44059900  1
  C  162  1  0.52258600  0.86016300  0.44385800  1
  C  163  1  0.54824200  0.83702000  0.43677400  1
  C  164  1  0.52912500  0.81621200  0.42686200  1
  C  165  1  0.54215700  0.88098700  0.45408400  1
  C  166  1  0.52151000  0.88611400  0.46720800  1
  C  167  1  0.54181200  0.90508300  0.47758500  1
  C  168  1  0.58319300  0.92023200  0.47515200  1
  C  169  1  0.60351900  0.91577900  0.46195000  1
  C  170  1  0.58345100  0.89640600  0.45165700  1
  C  171  1  0.35559700  0.67714600  0.42319900  1
  C  172  1  0.37582400  0.64901700  0.42814200  1
  C  173  1  0.35331600  0.62857400  0.43755800  1
  C  174  1  0.30984300  0.63543300  0.44222800  1
  C  175  1  0.29032900  0.66408200  0.43740800  1
  C  176  1  0.31270900  0.68458200  0.42803100  1
  C  177  1  0.28585400  0.61398300  0.45124900  1
  C  178  1  0.24052700  0.60702400  0.44883200  1
  C  179  1  0.21597800  0.58733200  0.45799700  1
  C  180  1  0.23598300  0.57349500  0.46986900  1
  C  181  1  0.28148700  0.57965800  0.47218900  1
  C  182  1  0.30598400  0.59949500  0.46300600  1
  C  183  1  0.36683800  0.67330400  0.35024200  1
  C  184  1  0.39457400  0.64843900  0.34562700  1
  C  185  1  0.32582700  0.67767900  0.34347900  1
  C  186  1  0.31332300  0.65800300  0.33218500  1
  C  187  1  0.34118800  0.63326800  0.32732600  1
  C  188  1  0.38185000  0.62871100  0.33438300  1
  C  189  1  0.32998300  0.61464000  0.31524300  1
  C  190  1  0.33678800  0.58121600  0.31480900  1
  C  191  1  0.32824400  0.56338100  0.30259000  1
  C  192  1  0.31274300  0.57828800  0.29024100  1
  C  193  1  0.30534600  0.61164200  0.29076000  1
  C  194  1  0.31366300  0.62939900  0.30298700  1
  C  237  1  0.53656500  0.95907800  0.28749400  1
  C  238  1  0.60393300  0.93716800  0.48584900  1
  C  239  1  0.21005800  0.55646000  0.47934000  1
  C  240  1  0.30690200  0.56189700  0.27763200  1
  C  245  1  0.94218400  0.73348300  0.84400900  1
  C  246  1  0.92039100  0.76231300  0.84426700  1
  C  247  1  0.91089200  0.76985600  0.85819700  1
  C  249  1  0.94719700  0.72295300  0.85779000  1
  C  250  1  0.96907200  0.69440200  0.86179900  1
  C  251  1  0.97742900  0.68538800  0.87587000  1
  C  253  1  0.98018400  0.68598100  0.89932900  1
  C  254  1  0.00250300  0.65889800  0.89463200  1
  C  255  1  0.00036100  0.65833500  0.88020400  1
  C  256  1  0.97432300  0.69527500  0.91351900  1
  C  257  1  0.95008100  0.72244400  0.91804600  1
  C  259  1  0.90863100  0.76721200  0.91846400  1
  C  260  1  0.91775600  0.75839300  0.93225400  1
  C  261  1  0.94335900  0.73118700  0.93199600  1
  C  262  1  0.88357000  0.79438600  0.91443900  1
  C  263  1  0.87650400  0.80387000  0.90033700  1
  C  265  1  0.87884200  0.80545000  0.87688100  1
  C  266  1  0.85508200  0.83191200  0.88151200  1
  C  267  1  0.85354900  0.83089900  0.89594300  1
  C  268  1  0.88809900  0.79764400  0.86271000  1
  C  269  1  0.87465000  0.81988300  0.85227300  1
  C  270  1  0.90036300  0.84759900  0.84965100  1
  C  271  1  0.88734800  0.86968700  0.83938900  1
  C  272  1  0.84859000  0.86455700  0.83137300  1
  C  273  1  0.82326100  0.83652200  0.83395700  1
  C  274  1  0.83595200  0.81453500  0.84432600  1
  C  275  1  0.83543800  0.88721300  0.82106300  1
  C  276  1  0.82377100  0.87751800  0.80737200  1
  C  277  1  0.81207600  0.90011100  0.79712700  1
  C  278  1  0.81120200  0.93312400  0.80030200  1
  C  279  1  0.82201300  0.94275700  0.81405900  1
  C  280  1  0.83418700  0.92020400  0.82423500  1
  C  281  1  0.86515800  0.81413100  0.92516200  1
  C  282  1  0.89041700  0.83910900  0.93116100  1
  C  283  1  0.87135200  0.85997600  0.94099800  1
  C  284  1  0.82635000  0.85687200  0.94511700  1
  C  285  1  0.80136500  0.83166300  0.93904000  1
  C  286  1  0.82037700  0.81063100  0.92924800  1
  C  287  1  0.80679200  0.87886800  0.95483200  1
  C  288  1  0.83005200  0.88936000  0.96685400  1
  C  289  1  0.81196700  0.91212100  0.97603900  1
  C  290  1  0.76959700  0.92520500  0.97366300  1
  C  291  1  0.74592700  0.91452900  0.96178000  1
  C  292  1  0.76412700  0.89174800  0.95259000  1
  C  293  1  0.99600000  0.67646800  0.92387300  1
  C  294  1  0.97603500  0.64852300  0.92940700  1
  C  295  1  0.99935400  0.62884700  0.93877100  1
  C  296  1  0.04336900  0.63632000  0.94279700  1
  C  297  1  0.06267400  0.66475100  0.93735700  1
  C  298  1  0.03949900  0.68447500  0.92802600  1
  C  299  1  0.06801300  0.61578300  0.95185400  1
  C  300  1  0.11304500  0.60901600  0.94903900  1
  C  301  1  0.13833000  0.59040700  0.95825600  1
  C  302  1  0.11936000  0.57748100  0.97058000  1
  C  303  1  0.07412200  0.58341100  0.97330700  1
  C  304  1  0.04890000  0.60218500  0.96407300  1
  C  305  1  0.98366400  0.67350900  0.85094400  1
  C  306  1  0.95407700  0.65095600  0.84508100  1
  C  307  1  0.02698600  0.67587000  0.84542100  1
  C  308  1  0.04030300  0.65611700  0.83427500  1
  C  309  1  0.01089500  0.63339000  0.82828300  1
  C  310  1  0.96755600  0.63120900  0.83396900  1
  C  311  1  0.02423100  0.61347100  0.81683300  1
  C  312  1  0.01210900  0.58069300  0.81633500  1
  C  313  1  0.02481700  0.56111100  0.80506900  1
  C  314  1  0.05021000  0.57367500  0.79387100  1
  C  315  1  0.06279100  0.60624100  0.79430100  1
  C  316  1  0.04981700  0.62579000  0.80555800  1
  C  359  1  0.80069000  0.95603800  0.79037300  1
  C  360  1  0.75361100  0.94966300  0.98211700  1
  C  361  1  0.14607400  0.56163000  0.98005600  1
  C  362  1  0.06367400  0.55445900  0.78291200  1
  C  367  1  0.94342500  0.25442200  0.66512400  1
  C  368  1  0.92132500  0.22542100  0.66498200  1
  C  369  1  0.91195100  0.21752900  0.65108800  1
  C  371  1  0.94896500  0.26466600  0.65130200  1
  C  372  1  0.97116800  0.29333100  0.64717600  1
  C  373  1  0.97959400  0.30222700  0.63306600  1
  C  375  1  0.98235200  0.30133300  0.60961200  1
  C  376  1  0.00497100  0.32864600  0.61419000  1
  C  377  1  0.00296300  0.32933200  0.62862100  1
  C  378  1  0.97647600  0.29176200  0.59546200  1
  C  379  1  0.95204400  0.26431400  0.59105000  1
  C  381  1  0.91003800  0.21928000  0.59081700  1
  C  382  1  0.91981500  0.22773100  0.57699400  1
  C  383  1  0.94576300  0.25510100  0.57714100  1
  C  384  1  0.88449000  0.19206200  0.59495200  1
  C  385  1  0.87710700  0.18279800  0.60909000  1
  C  387  1  0.87934500  0.18154800  0.63255300  1
  C  388  1  0.85492000  0.15503100  0.62802500  1
  C  389  1  0.85343000  0.15585100  0.61359200  1
  C  390  1  0.88869900  0.18956700  0.64669300  1
  C  391  1  0.87533200  0.16719000  0.65719800  1
  C  392  1  0.90050500  0.13940400  0.65946300  1
  C  393  1  0.88784400  0.11718200  0.66980300  1
  C  394  1  0.85000700  0.12223600  0.67827000  1
  C  395  1  0.82524700  0.15034700  0.67608100  1
  C  396  1  0.83752400  0.17244200  0.66560300  1
  C  397  1  0.83765400  0.09950000  0.68872900  1
  C  398  1  0.82987900  0.10884600  0.70273400  1
  C  399  1  0.82128400  0.08590300  0.71322200  1
  C  400  1  0.81941300  0.05286700  0.71004000  1
  C  401  1  0.82577400  0.04376500  0.69591300  1
  C  402  1  0.83492200  0.06660400  0.68547400  1
  C  403  1  0.86591900  0.17209800  0.58428700  1
  C  404  1  0.88981400  0.14595700  0.57893000  1
  C  405  1  0.87066000  0.12534400  0.56894800  1
  C  406  1  0.82693600  0.12991700  0.56399000  1
  C  407  1  0.80329600  0.15624700  0.56946500  1
  C  408  1  0.82238300  0.17699300  0.57942400  1
  C  409  1  0.80735800  0.10844200  0.55397200  1
  C  410  1  0.83223700  0.09646900  0.54255900  1
  C  411  1  0.81387400  0.07438300  0.53304700  1
  C  412  1  0.76959000  0.06353300  0.53444400  1
  C  413  1  0.74428100  0.07571100  0.54568400  1
  C  414  1  0.76283900  0.09771300  0.55523900  1
  C  415  1  0.99820500  0.31066200  0.58501800  1
  C  416  1  0.97794600  0.33798800  0.57929800  1
  C  417  1  0.00117200  0.35780300  0.56980400  1
  C  418  1  0.04536700  0.35108400  0.56582800  1
  C  419  1  0.06501100  0.32328500  0.57147900  1
  C  420  1  0.04192600  0.30341900  0.58094200  1
  C  421  1  0.06981700  0.37175200  0.55659600  1
  C  422  1  0.11468600  0.37961200  0.55932700  1
  C  423  1  0.13975000  0.39845500  0.54996200  1
  C  424  1  0.12066700  0.41052900  0.53757900  1
  C  425  1  0.07560300  0.40346700  0.53491700  1
  C  426  1  0.05063400  0.38443100  0.54428900  1
  C  427  1  0.98588500  0.31456700  0.65793100  1
  C  428  1  0.95822500  0.33942700  0.66259300  1
  C  429  1  0.02697700  0.31015700  0.66464000  1
  C  430  1  0.03964700  0.32981300  0.67592400  1
  C  431  1  0.01189000  0.35458100  0.68081000  1
  C  432  1  0.97115100  0.35917800  0.67380400  1
  C  433  1  0.02330900  0.37325400  0.69285900  1
  C  434  1  0.01659500  0.40669100  0.69326200  1
  C  435  1  0.02530500  0.42458000  0.70545300  1
  C  436  1  0.04087600  0.40971800  0.71780300  1
  C  437  1  0.04821000  0.37635500  0.71731100  1
  C  438  1  0.03976800  0.35854200  0.70510800  1
  C  481  1  0.81442400  0.02924200  0.72024300  1
  C  482  1  0.75325400  0.04012000  0.52544200  1
  C  483  1  0.14709800  0.42676500  0.52799900  1
  C  484  1  0.04681200  0.42616900  0.73039100  1
  C  489  1  0.31181100  0.46857400  0.24311500  1
  C  491  1  0.31836700  0.52244500  0.25125400  1
  C  492  1  0.30960700  0.51258800  0.26513800  1
  C  494  1  0.30300800  0.45827500  0.25702700  1
  C  495  1  0.29718000  0.42695300  0.26123900  1
  C  499  1  0.22844200  0.40227900  0.25930900  1
  C  500  1  0.20190600  0.38045300  0.24938000  1
  C  508  1  0.54591500  0.97343500  0.26367400  1
  C  510  1  0.52506900  0.02412300  0.25406700  1
  C  511  1  0.54268000  0.01560800  0.24098900  1
  C  513  1  0.56436700  0.96465200  0.25055600  1
  C  514  1  0.58404400  0.93535200  0.24806300  1
  C  518  1  0.61268700  0.89206600  0.26051900  1
  C  519  1  0.64416400  0.88507900  0.27276000  1
  C  527  1  0.04201000  0.51976300  0.76477300  1
  C  529  1  0.03543300  0.46582600  0.75672100  1
  C  530  1  0.04411500  0.47557200  0.74282000  1
  C  532  1  0.05058900  0.52996300  0.75083500  1
  C  533  1  0.05646500  0.56123800  0.74659600  1
  C  537  1  0.12498600  0.58607200  0.74869700  1
  C  538  1  0.15074500  0.60873500  0.75847100  1
  C  546  1  0.80534200  0.01493800  0.74408200  1
  C  548  1  0.82520100  0.96400700  0.75364800  1
  C  549  1  0.80823900  0.97279500  0.76677600  1
  C  551  1  0.78759500  0.02402300  0.75725700  1
  C  552  1  0.76881900  0.05367100  0.75976100  1
  C  556  1  0.73854300  0.09654700  0.74744500  1
  C  557  1  0.70618200  0.10309800  0.73538900  1
  C  565  1  0.20248700  0.47884500  0.01399100  1
  C  567  1  0.14194300  0.48610500  0.99807200  1
  C  568  1  0.15651500  0.51734000  0.99500500  1
  C  570  1  0.21737500  0.51041500  0.01105200  1
  C  571  1  0.25389100  0.52420100  0.01745800  1
  C  575  1  0.31900500  0.50622700  0.02768800  1
  C  576  1  0.36259000  0.48954300  0.02385100  1
  C  584  1  0.20168800  0.51069800  0.49387100  1
  C  586  1  0.14193100  0.50236400  0.51016100  1
  C  587  1  0.15676800  0.47131200  0.51305600  1
  C  589  1  0.21682700  0.47931800  0.49662900  1
  C  590  1  0.25319200  0.46625200  0.48993000  1
  C  594  1  0.31846000  0.48567500  0.47994500  1
  C  595  1  0.36181900  0.50289500  0.48396900  1
  C  603  1  0.64516400  0.98238100  0.49292800  1
  C  605  1  0.70152000  0.98763200  0.51040700  1
  C  606  1  0.69311000  0.02063600  0.51171200  1
  C  608  1  0.63650300  0.01556500  0.49407800  1
  C  609  1  0.60457500  0.03190700  0.48666900  1
  C  613  1  0.52958500  0.02128800  0.48939800  1
  C  614  1  0.49211800  0.00082400  0.48305100  1
  C  622  1  0.64300200  0.00678400  0.01391300  1
  C  624  1  0.70418500  0.00060200  0.99812700  1
  C  625  1  0.69262000  0.96827300  0.99581300  1
  C  627  1  0.63087100  0.97435000  0.01168900  1
  C  628  1  0.59415500  0.96036000  0.01799800  1
  C  632  1  0.52902200  0.97985800  0.02782500  1
  C  633  1  0.48747000  0.99869900  0.02373500  1
  N  4  1  0.42406800  0.24297300  0.14174100  1
  N  8  1  0.38645500  0.28768800  0.11985900  1
  N  14  1  0.42199200  0.24311200  0.09716300  1
  N  20  1  0.45942900  0.19840200  0.11907200  1
  N  126  1  0.42263100  0.74655600  0.36468600  1
  N  130  1  0.38457500  0.70196300  0.38682100  1
  N  136  1  0.42033700  0.74736000  0.40926100  1
  N  142  1  0.45839900  0.79187800  0.38710600  1
  N  248  1  0.92772800  0.74554000  0.86584600  1
  N  252  1  0.96596700  0.70108600  0.88768700  1
  N  258  1  0.92853900  0.74477100  0.91040800  1
  N  264  1  0.89091000  0.78943500  0.88853500  1
  N  370  1  0.92934100  0.24177600  0.64334300  1
  N  374  1  0.96794600  0.28628600  0.62131600  1
  N  380  1  0.92995300  0.24207100  0.59878000  1
  N  386  1  0.89183700  0.19739500  0.62083100  1
  N  490  1  0.31983300  0.50018300  0.24096600  1
  N  493  1  0.30294200  0.48080600  0.26730500  1
  N  506  1  0.31872000  0.44944500  0.23228900  1
  N  507  1  0.31173700  0.53149000  0.27632600  1
  N  509  1  0.52692600  0.00277000  0.26470100  1
  N  512  1  0.56133400  0.98624800  0.23989400  1
  N  525  1  0.54340200  0.95316900  0.27444300  1
  N  526  1  0.53819700  0.03537200  0.23024500  1
  N  528  1  0.03407000  0.48816400  0.76697900  1
  N  531  1  0.05067700  0.50734100  0.74059400  1
  N  544  1  0.03511900  0.53896500  0.77557300  1
  N  545  1  0.04195200  0.45658200  0.73166300  1
  N  547  1  0.82353600  0.98535100  0.74300700  1
  N  550  1  0.79039900  0.00241000  0.76791900  1
  N  563  1  0.80798100  0.03517300  0.73331000  1
  N  564  1  0.81255300  0.95300600  0.77751500  1
  N  566  1  0.16532800  0.46830700  0.00728700  1
  N  569  1  0.19347100  0.52791800  0.00174000  1
  N  582  1  0.22387200  0.45996700  0.02295100  1
  N  583  1  0.13421500  0.53525500  0.98596900  1
  N  585  1  0.16481300  0.52062400  0.50083700  1
  N  588  1  0.19345000  0.46134400  0.50606000  1
  N  601  1  0.22262600  0.52995600  0.48482100  1
  N  602  1  0.13491300  0.45298700  0.52218300  1
  N  604  1  0.67757800  0.97002900  0.50114200  1
  N  607  1  0.66064000  0.03275800  0.50351500  1
  N  620  1  0.62464900  0.96372300  0.48365700  1
  N  621  1  0.71364100  0.04057200  0.52048900  1
  N  623  1  0.67933700  0.01831800  0.00702900  1
  N  626  1  0.65626900  0.95697200  0.00268300  1
  N  639  1  0.62148100  0.02533600  0.02295400  1
  N  640  1  0.71382700  0.94820400  0.98733200  1
  O  497  1  0.33038500  0.41427000  0.26582900  1
  O  498  1  0.27164600  0.40801600  0.25336300  1
  O  516  1  0.59342400  0.92846000  0.23595600  1
  O  517  1  0.61377000  0.92586400  0.25756800  1
  O  535  1  0.02319000  0.57358400  0.74185000  1
  O  536  1  0.08128600  0.58085300  0.75436400  1
  O  554  1  0.76143800  0.06095800  0.77195700  1
  O  555  1  0.73825200  0.06278300  0.75046900  1
  O  573  1  0.25658300  0.55342400  0.01762800  1
  O  574  1  0.29256100  0.50959900  0.01524100  1
  O  592  1  0.25503600  0.43706700  0.48934100  1
  O  593  1  0.29175800  0.48120900  0.49234300  1
  O  611  1  0.61813300  0.05320000  0.47896300  1
  O  612  1  0.56962500  0.01593800  0.48156600  1
  O  630  1  0.59157300  0.93114700  0.01820500  1
  O  631  1  0.55557900  0.97481100  0.01547600  1
