# generated using pymatgen
data_Zr3H24C29O16
_symmetry_space_group_name_H-M   'P 1'
_cell_length_a   14.82298000
_cell_length_b   14.87201000
_cell_length_c   27.80039000
_cell_angle_alpha   89.96569000
_cell_angle_beta   89.94252000
_cell_angle_gamma   89.61606000
_symmetry_Int_Tables_number   1
_chemical_formula_structural   Zr3H24C29O16
_chemical_formula_sum   'Zr12 H96 C116 O64'
_cell_volume   6128.38490902
_cell_formula_units_Z   4
loop_
 _symmetry_equiv_pos_site_id
 _symmetry_equiv_pos_as_xyz
  1  'x, y, z'
loop_
 _atom_site_type_symbol
 _atom_site_label
 _atom_site_symmetry_multiplicity
 _atom_site_fract_x
 _atom_site_fract_y
 _atom_site_fract_z
 _atom_site_occupancy
  Zr  Zr1  1  0.99679000  0.99777000  0.08610000  1.0
  Zr  Zr2  1  0.49732000  0.50032000  0.58634000  1.0
  Zr  Zr3  1  0.00031000  0.00036000  0.91285000  1.0
  Zr  Zr4  1  0.50286000  0.50105000  0.41319000  1.0
  Zr  Zr5  1  0.14527000  0.05366000  0.00054000  1.0
  Zr  Zr6  1  0.05508000  0.85243000  0.99871000  1.0
  Zr  Zr7  1  0.64777000  0.55340000  0.50078000  1.0
  Zr  Zr8  1  0.34994000  0.44853000  0.49794000  1.0
  Zr  Zr9  1  0.44775000  0.64861000  0.49865000  1.0
  Zr  Zr10  1  0.55307000  0.35219000  0.49948000  1.0
  Zr  Zr11  1  0.85184000  0.94358000  0.99867000  1.0
  Zr  Zr12  1  0.94175000  0.14558000  0.99998000  1.0
  H  H1  1  0.19122000  0.98043000  0.20022000  1.0
  H  H2  1  0.80091000  0.02865000  0.19549000  1.0
  H  H3  1  0.03475000  0.19423000  0.19396000  1.0
  H  H4  1  0.96550000  0.79813000  0.19567000  1.0
  H  H5  1  0.69555000  0.46633000  0.69670000  1.0
  H  H6  1  0.30144000  0.53290000  0.69689000  1.0
  H  H7  1  0.52476000  0.69574000  0.69680000  1.0
  H  H8  1  0.45928000  0.29986000  0.69382000  1.0
  H  H9  1  0.80142000  0.03423000  0.80283000  1.0
  H  H10  1  0.19799000  0.96608000  0.80486000  1.0
  H  H11  1  0.96886000  0.80537000  0.80413000  1.0
  H  H12  1  0.03117000  0.19846000  0.79985000  1.0
  H  H13  1  0.30773000  0.52639000  0.30017000  1.0
  H  H14  1  0.70359000  0.45600000  0.30548000  1.0
  H  H15  1  0.47366000  0.30691000  0.30245000  1.0
  H  H16  1  0.52755000  0.69882000  0.30001000  1.0
  H  H17  1  0.31620000  0.95011000  0.25732000  1.0
  H  H18  1  0.67763000  0.06093000  0.25350000  1.0
  H  H19  1  0.06920000  0.31821000  0.25091000  1.0
  H  H20  1  0.93616000  0.67330000  0.25272000  1.0
  H  H21  1  0.82042000  0.43770000  0.75418000  1.0
  H  H22  1  0.17758000  0.56159000  0.75506000  1.0
  H  H23  1  0.55648000  0.81884000  0.75440000  1.0
  H  H24  1  0.42839000  0.17506000  0.75083000  1.0
  H  H25  1  0.67629000  0.06597000  0.74602000  1.0
  H  H26  1  0.32173000  0.93534000  0.74647000  1.0
  H  H27  1  0.93495000  0.68192000  0.74705000  1.0
  H  H28  1  0.06084000  0.32490000  0.74359000  1.0
  H  H29  1  0.18278000  0.55573000  0.24289000  1.0
  H  H30  1  0.82833000  0.42494000  0.24789000  1.0
  H  H31  1  0.43969000  0.18341000  0.24524000  1.0
  H  H32  1  0.55656000  0.82380000  0.24302000  1.0
  H  H33  1  0.49450000  0.10529000  0.16821000  1.0
  H  H34  1  0.49746000  0.90006000  0.16875000  1.0
  H  H35  1  0.89468000  0.49465000  0.17041000  1.0
  H  H36  1  0.10952000  0.50030000  0.16924000  1.0
  H  H37  1  0.99186000  0.61172000  0.67141000  1.0
  H  H38  1  0.99881000  0.40446000  0.66754000  1.0
  H  H39  1  0.39825000  0.00017000  0.66755000  1.0
  H  H40  1  0.61075000  0.00446000  0.67163000  1.0
  H  H41  1  0.50368000  0.89184000  0.82792000  1.0
  H  H42  1  0.49707000  0.10721000  0.82773000  1.0
  H  H43  1  0.10406000  0.50342000  0.82956000  1.0
  H  H44  1  0.89366000  0.49810000  0.83024000  1.0
  H  H45  1  0.00745000  0.39187000  0.32924000  1.0
  H  H46  1  0.99880000  0.60604000  0.32629000  1.0
  H  H47  1  0.60440000  0.00325000  0.32923000  1.0
  H  H48  1  0.39575000  0.00044000  0.33128000  1.0
  H  H49  1  0.37027000  0.13108000  0.11030000  1.0
  H  H50  1  0.62017000  0.87214000  0.10986000  1.0
  H  H51  1  0.86404000  0.37152000  0.11271000  1.0
  H  H52  1  0.13544000  0.62456000  0.11158000  1.0
  H  H53  1  0.86816000  0.63531000  0.61280000  1.0
  H  H54  1  0.12148000  0.38158000  0.60807000  1.0
  H  H55  1  0.37155000  0.87760000  0.60894000  1.0
  H  H56  1  0.63760000  0.12812000  0.61354000  1.0
  H  H57  1  0.62811000  0.86401000  0.88557000  1.0
  H  H58  1  0.37446000  0.13425000  0.88685000  1.0
  H  H59  1  0.13344000  0.62620000  0.88764000  1.0
  H  H60  1  0.86717000  0.37271000  0.88706000  1.0
  H  H61  1  0.13220000  0.36646000  0.38734000  1.0
  H  H62  1  0.87528000  0.63324000  0.38478000  1.0
  H  H63  1  0.63521000  0.12629000  0.38689000  1.0
  H  H64  1  0.37014000  0.87577000  0.38874000  1.0
  H  H65  1  0.27255000  0.91023000  0.00358000  1.0
  H  H66  1  0.29820000  0.97798000  0.96294000  1.0
  H  H67  1  0.71168000  0.05316000  0.02996000  1.0
  H  H68  1  0.72477000  0.07628000  0.97605000  1.0
  H  H69  1  0.08565000  0.27219000  0.00106000  1.0
  H  H70  1  0.01669000  0.29578000  0.96057000  1.0
  H  H71  1  0.98089000  0.70014000  0.03704000  1.0
  H  H72  1  0.90948000  0.72740000  0.99833000  1.0
  H  H73  1  0.77404000  0.40798000  0.50245000  1.0
  H  H74  1  0.79960000  0.47838000  0.46289000  1.0
  H  H75  1  0.22673000  0.59659000  0.49838000  1.0
  H  H76  1  0.20033000  0.52865000  0.45800000  1.0
  H  H77  1  0.59048000  0.77634000  0.49665000  1.0
  H  H78  1  0.51549000  0.80085000  0.45916000  1.0
  H  H79  1  0.41684000  0.21370000  0.49183000  1.0
  H  H80  1  0.50000000  0.19681000  0.45775000  1.0
  H  H81  1  0.24204000  0.19434000  0.03262000  1.0
  H  H82  1  0.25169000  0.20269000  0.97563000  1.0
  H  H83  1  0.73896000  0.79968000  0.02163000  1.0
  H  H84  1  0.75194000  0.80792000  0.96479000  1.0
  H  H85  1  0.80969000  0.26410000  0.02590000  1.0
  H  H86  1  0.81310000  0.26212000  0.96853000  1.0
  H  H87  1  0.19473000  0.74701000  0.03073000  1.0
  H  H88  1  0.19841000  0.74386000  0.97337000  1.0
  H  H89  1  0.76139000  0.69048000  0.52667000  1.0
  H  H90  1  0.76030000  0.68691000  0.46937000  1.0
  H  H91  1  0.36032000  0.30278000  0.53997000  1.0
  H  H92  1  0.25990000  0.27532000  0.53061000  1.0
  H  H93  1  0.30465000  0.73175000  0.53661000  1.0
  H  H94  1  0.28430000  0.75744000  0.48204000  1.0
  H  H95  1  0.69296000  0.26806000  0.53866000  1.0
  H  H96  1  0.71734000  0.24406000  0.48428000  1.0
  C  C1  1  0.49768000  0.00340000  0.24960000  1.0
  C  C2  1  0.00351000  0.49574000  0.24870000  1.0
  C  C3  1  0.99787000  0.50312000  0.74994000  1.0
  C  C4  1  0.49930000  0.99951000  0.74900000  1.0
  C  C5  1  0.27235000  0.05741000  0.15156000  1.0
  C  C6  1  0.71884000  0.94806000  0.14914000  1.0
  C  C7  1  0.94678000  0.27449000  0.15005000  1.0
  C  C8  1  0.05250000  0.71964000  0.15024000  1.0
  C  C9  1  0.77355000  0.55271000  0.65122000  1.0
  C  C10  1  0.21991000  0.45476000  0.64905000  1.0
  C  C11  1  0.44582000  0.77848000  0.64939000  1.0
  C  C12  1  0.55085000  0.22229000  0.65040000  1.0
  C  C13  1  0.72340000  0.94645000  0.84746000  1.0
  C  C14  1  0.27807000  0.05211000  0.84940000  1.0
  C  C15  1  0.05358000  0.72404000  0.84932000  1.0
  C  C16  1  0.94747000  0.27715000  0.84706000  1.0
  C  C17  1  0.22782000  0.44511000  0.34742000  1.0
  C  C18  1  0.78106000  0.54705000  0.34841000  1.0
  C  C19  1  0.55624000  0.22468000  0.34831000  1.0
  C  C20  1  0.44738000  0.77903000  0.34802000  1.0
  C  C21  1  0.25787000  0.00830000  0.19385000  1.0
  C  C22  1  0.73432000  0.99997000  0.19029000  1.0
  C  C23  1  0.00361000  0.26017000  0.18953000  1.0
  C  C24  1  0.99765000  0.73279000  0.19067000  1.0
  C  C25  1  0.76055000  0.49867000  0.69184000  1.0
  C  C26  1  0.23499000  0.50427000  0.69107000  1.0
  C  C27  1  0.49666000  0.76261000  0.69101000  1.0
  C  C28  1  0.49304000  0.23508000  0.68970000  1.0
  C  C29  1  0.73625000  0.00222000  0.80751000  1.0
  C  C30  1  0.26367000  0.99730000  0.80923000  1.0
  C  C31  1  0.99898000  0.73909000  0.80900000  1.0
  C  C32  1  0.00049000  0.26422000  0.80587000  1.0
  C  C33  1  0.24179000  0.49652000  0.30591000  1.0
  C  C34  1  0.76830000  0.48941000  0.30927000  1.0
  C  C35  1  0.50281000  0.24024000  0.30758000  1.0
  C  C36  1  0.49824000  0.76509000  0.30621000  1.0
  C  C37  1  0.32865000  0.99175000  0.22593000  1.0
  C  C38  1  0.66463000  0.01762000  0.22287000  1.0
  C  C39  1  0.02250000  0.33009000  0.22147000  1.0
  C  C40  1  0.98186000  0.66225000  0.22272000  1.0
  C  C41  1  0.83110000  0.48324000  0.72418000  1.0
  C  C42  1  0.16504000  0.51969000  0.72383000  1.0
  C  C43  1  0.51392000  0.83216000  0.72339000  1.0
  C  C44  1  0.47625000  0.16469000  0.72173000  1.0
  C  C45  1  0.66561000  0.01938000  0.77554000  1.0
  C  C46  1  0.33340000  0.98051000  0.77650000  1.0
  C  C47  1  0.98054000  0.66934000  0.77689000  1.0
  C  C48  1  0.01678000  0.33564000  0.77433000  1.0
  C  C49  1  0.17116000  0.51241000  0.27371000  1.0
  C  C50  1  0.83863000  0.47258000  0.27694000  1.0
  C  C51  1  0.48414000  0.17040000  0.27554000  1.0
  C  C52  1  0.51390000  0.83573000  0.27418000  1.0
  C  C53  1  0.41528000  0.02519000  0.21716000  1.0
  C  C54  1  0.57825000  0.98250000  0.21575000  1.0
  C  C55  1  0.98369000  0.41534000  0.21522000  1.0
  C  C56  1  0.02177000  0.57760000  0.21578000  1.0
  C  C57  1  0.91548000  0.52314000  0.71738000  1.0
  C  C58  1  0.07895000  0.48431000  0.71606000  1.0
  C  C59  1  0.47924000  0.91879000  0.71556000  1.0
  C  C60  1  0.51835000  0.08085000  0.71596000  1.0
  C  C61  1  0.58110000  0.97962000  0.78198000  1.0
  C  C62  1  0.41842000  0.01928000  0.78264000  1.0
  C  C63  1  0.01794000  0.58350000  0.78354000  1.0
  C  C64  1  0.97921000  0.42093000  0.78255000  1.0
  C  C65  1  0.08555000  0.47592000  0.28162000  1.0
  C  C66  1  0.92234000  0.51444000  0.28226000  1.0
  C  C67  1  0.51959000  0.08390000  0.28283000  1.0
  C  C68  1  0.47799000  0.92171000  0.28256000  1.0
  C  C69  1  0.42793000  0.07843000  0.17579000  1.0
  C  C70  1  0.56411000  0.92780000  0.17511000  1.0
  C  C71  1  0.92502000  0.42865000  0.17598000  1.0
  C  C72  1  0.07871000  0.56580000  0.17563000  1.0
  C  C73  1  0.92669000  0.58046000  0.67748000  1.0
  C  C74  1  0.06531000  0.43202000  0.67449000  1.0
  C  C75  1  0.42556000  0.93333000  0.67445000  1.0
  C  C76  1  0.57818000  0.06943000  0.67699000  1.0
  C  C77  1  0.56933000  0.92203000  0.82173000  1.0
  C  C78  1  0.43144000  0.07651000  0.82237000  1.0
  C  C79  1  0.07489000  0.56976000  0.82348000  1.0
  C  C80  1  0.92336000  0.43235000  0.82315000  1.0
  C  C81  1  0.07334000  0.42099000  0.32240000  1.0
  C  C82  1  0.93389000  0.57371000  0.32125000  1.0
  C  C83  1  0.57608000  0.06987000  0.32291000  1.0
  C  C84  1  0.42416000  0.93425000  0.32385000  1.0
  C  C85  1  0.35820000  0.09341000  0.14319000  1.0
  C  C86  1  0.63280000  0.91176000  0.14197000  1.0
  C  C87  1  0.90741000  0.35973000  0.14361000  1.0
  C  C88  1  0.09327000  0.63528000  0.14310000  1.0
  C  C89  1  0.85740000  0.59406000  0.64454000  1.0
  C  C90  1  0.13405000  0.41862000  0.64107000  1.0
  C  C91  1  0.41001000  0.86475000  0.64151000  1.0
  C  C92  1  0.59357000  0.13857000  0.64437000  1.0
  C  C93  1  0.63897000  0.90624000  0.85421000  1.0
  C  C94  1  0.36284000  0.09196000  0.85560000  1.0
  C  C95  1  0.09179000  0.63846000  0.85613000  1.0
  C  C96  1  0.90837000  0.36207000  0.85515000  1.0
  C  C97  1  0.14293000  0.40650000  0.35512000  1.0
  C  C98  1  0.86481000  0.58913000  0.35415000  1.0
  C  C99  1  0.59356000  0.13873000  0.35538000  1.0
  C  C100  1  0.40972000  0.86449000  0.35633000  1.0
  C  C101  1  0.19919000  0.06352000  0.11456000  1.0
  C  C102  1  0.79240000  0.93775000  0.11258000  1.0
  C  C103  1  0.93506000  0.20118000  0.11379000  1.0
  C  C104  1  0.06042000  0.79305000  0.11382000  1.0
  C  C105  1  0.70087000  0.55940000  0.61417000  1.0
  C  C106  1  0.29338000  0.44629000  0.61241000  1.0
  C  C107  1  0.43596000  0.70522000  0.61305000  1.0
  C  C108  1  0.56017000  0.29549000  0.61397000  1.0
  C  C109  1  0.79700000  0.93748000  0.88387000  1.0
  C  C110  1  0.20512000  0.06182000  0.88623000  1.0
  C  C111  1  0.06412000  0.79700000  0.88582000  1.0
  C  C112  1  0.93929000  0.20350000  0.88342000  1.0
  C  C113  1  0.30062000  0.43884000  0.38447000  1.0
  C  C114  1  0.70777000  0.55733000  0.38491000  1.0
  C  C115  1  0.56622000  0.29716000  0.38518000  1.0
  C  C116  1  0.44064000  0.70527000  0.38450000  1.0
  O  O1  1  0.12073000  0.03973000  0.12770000  1.0
  O  O2  1  0.87179000  0.95531000  0.12699000  1.0
  O  O3  1  0.95485000  0.12175000  0.12752000  1.0
  O  O4  1  0.04000000  0.87183000  0.12737000  1.0
  O  O5  1  0.62173000  0.53803000  0.62760000  1.0
  O  O6  1  0.37329000  0.46242000  0.62709000  1.0
  O  O7  1  0.45737000  0.62645000  0.62681000  1.0
  O  O8  1  0.53755000  0.37401000  0.62736000  1.0
  O  O9  1  0.87574000  0.95974000  0.87048000  1.0
  O  O10  1  0.12553000  0.04426000  0.87260000  1.0
  O  O11  1  0.04428000  0.87636000  0.87212000  1.0
  O  O12  1  0.95965000  0.12447000  0.87012000  1.0
  O  O13  1  0.38004000  0.45781000  0.37064000  1.0
  O  O14  1  0.62793000  0.54178000  0.37104000  1.0
  O  O15  1  0.54691000  0.37662000  0.37207000  1.0
  O  O16  1  0.46153000  0.62662000  0.37063000  1.0
  O  O17  1  0.79064000  0.47124000  0.49758000  1.0
  O  O18  1  0.20956000  0.53364000  0.49268000  1.0
  O  O19  1  0.52636000  0.79115000  0.49355000  1.0
  O  O20  1  0.48266000  0.20477000  0.49155000  1.0
  O  O21  1  0.20896000  0.20462000  0.00239000  1.0
  O  O22  1  0.20458000  0.78281000  0.00156000  1.0
  O  O23  1  0.72345000  0.69789000  0.49810000  1.0
  O  O24  1  0.31720000  0.28342000  0.51416000  1.0
  O  O25  1  0.28967000  0.70731000  0.50442000  1.0
  O  O26  1  0.71026000  0.29342000  0.50698000  1.0
  O  O27  1  0.22223000  0.08885000  0.07193000  1.0
  O  O28  1  0.76896000  0.91522000  0.06960000  1.0
  O  O29  1  0.90914000  0.22479000  0.07148000  1.0
  O  O30  1  0.08402000  0.76894000  0.07080000  1.0
  O  O31  1  0.72465000  0.58285000  0.57151000  1.0
  O  O32  1  0.27039000  0.42530000  0.56942000  1.0
  O  O33  1  0.40938000  0.72807000  0.57043000  1.0
  O  O34  1  0.58693000  0.27220000  0.57145000  1.0
  O  O35  1  0.77370000  0.91137000  0.92635000  1.0
  O  O36  1  0.23001000  0.08412000  0.92921000  1.0
  O  O37  1  0.08928000  0.77346000  0.92835000  1.0
  O  O38  1  0.91549000  0.22730000  0.92637000  1.0
  O  O39  1  0.27542000  0.41847000  0.42756000  1.0
  O  O40  1  0.73294000  0.57807000  0.42806000  1.0
  O  O41  1  0.59000000  0.27185000  0.42792000  1.0
  O  O42  1  0.41762000  0.72916000  0.42761000  1.0
  O  O43  1  0.11040000  0.94732000  0.04419000  1.0
  O  O44  1  0.04559000  0.10743000  0.04435000  1.0
  O  O45  1  0.39123000  0.55082000  0.54211000  1.0
  O  O46  1  0.60537000  0.44927000  0.54414000  1.0
  O  O47  1  0.44506000  0.38570000  0.54414000  1.0
  O  O48  1  0.55077000  0.61269000  0.54397000  1.0
  O  O49  1  0.04874000  0.11023000  0.95569000  1.0
  O  O50  1  0.61101000  0.44901000  0.45574000  1.0
  O  O51  1  0.39183000  0.55249000  0.45373000  1.0
  O  O52  1  0.55415000  0.61171000  0.45463000  1.0
  O  O53  1  0.44989000  0.39139000  0.45512000  1.0
  O  O54  1  0.78287000  0.79551000  0.99550000  1.0
  O  O55  1  0.94855000  0.88867000  0.04347000  1.0
  O  O56  1  0.80005000  0.22655000  0.99742000  1.0
  O  O57  1  0.88483000  0.04872000  0.04378000  1.0
  O  O58  1  0.28871000  0.97307000  0.99767000  1.0
  O  O59  1  0.97312000  0.71094000  0.00256000  1.0
  O  O60  1  0.11088000  0.95026000  0.95519000  1.0
  O  O61  1  0.88765000  0.04974000  0.95442000  1.0
  O  O62  1  0.95043000  0.88918000  0.95433000  1.0
  O  O63  1  0.71085000  0.02676000  0.99785000  1.0
  O  O64  1  0.02235000  0.28867000  0.99546000  1.0
