# generated using pymatgen
data_LuH11C12N3O7
_symmetry_space_group_name_H-M   'P 1'
_cell_length_a   10.07978000
_cell_length_b   10.18044000
_cell_length_c   11.14036000
_cell_angle_alpha   116.04879000
_cell_angle_beta   103.22442000
_cell_angle_gamma   92.35003000
_symmetry_Int_Tables_number   1
_chemical_formula_structural   LuH11C12N3O7
_chemical_formula_sum   'Lu2 H22 C24 N6 O14'
_cell_volume   986.65982890
_cell_formula_units_Z   2
loop_
 _symmetry_equiv_pos_site_id
 _symmetry_equiv_pos_as_xyz
  1  'x, y, z'
loop_
 _atom_site_type_symbol
 _atom_site_label
 _atom_site_symmetry_multiplicity
 _atom_site_fract_x
 _atom_site_fract_y
 _atom_site_fract_z
 _atom_site_occupancy
  Lu  Lu1  1  0.75997000  0.52151000  0.96977000  1.0
  Lu  Lu2  1  0.24003000  0.47849000  0.03023000  1.0
  H  H1  1  0.97708000  0.71967000  0.23940000  1.0
  H  H2  1  0.00929000  0.55622000  0.17779000  1.0
  H  H3  1  0.82200000  0.78277000  0.83299000  1.0
  H  H4  1  0.39622000  0.74017000  0.83649000  1.0
  H  H5  1  0.42413000  0.08922000  0.71471000  1.0
  H  H6  1  0.31650000  0.05708000  0.22205000  1.0
  H  H7  1  0.26858000  0.86709000  0.13547000  1.0
  H  H8  1  0.82170000  0.15719000  0.20373000  1.0
  H  H9  1  0.80950000  0.98149000  0.18326000  1.0
  H  H10  1  0.74447000  0.27651000  0.55873000  1.0
  H  H11  1  0.72971000  0.14164000  0.38750000  1.0
  H  H12  1  0.02292000  0.28033000  0.76060000  1.0
  H  H13  1  0.99071000  0.44378000  0.82221000  1.0
  H  H14  1  0.17801000  0.21723000  0.16701000  1.0
  H  H15  1  0.60379000  0.25982000  0.16350000  1.0
  H  H16  1  0.57587000  0.91078000  0.28529000  1.0
  H  H17  1  0.68350000  0.94291000  0.77795000  1.0
  H  H18  1  0.73142000  0.13291000  0.86453000  1.0
  H  H19  1  0.17830000  0.84280000  0.79627000  1.0
  H  H20  1  0.19050000  0.01850000  0.81674000  1.0
  H  H21  1  0.25553000  0.72349000  0.44126000  1.0
  H  H22  1  0.27029000  0.85836000  0.61250000  1.0
  C  C1  1  0.56820000  0.88387000  0.00456000  1.0
  C  C2  1  0.62343000  0.27914000  0.73927000  1.0
  C  C3  1  0.02841000  0.70638000  0.96701000  1.0
  C  C4  1  0.89943000  0.87942000  0.90618000  1.0
  C  C5  1  0.01790000  0.85812000  0.98638000  1.0
  C  C6  1  0.63204000  0.03236000  0.09726000  1.0
  C  C7  1  0.56203000  0.13759000  0.61451000  1.0
  C  C8  1  0.43951000  0.85507000  0.90923000  1.0
  C  C9  1  0.12346000  0.98171000  0.08395000  1.0
  C  C10  1  0.45623000  0.04802000  0.61958000  1.0
  C  C11  1  0.60939000  0.08961000  0.49243000  1.0
  C  C12  1  0.63184000  0.75419000  0.00041000  1.0
  C  C13  1  0.43180000  0.11612000  0.99544000  1.0
  C  C14  1  0.37657000  0.72085000  0.26072000  1.0
  C  C15  1  0.97159000  0.29362000  0.03299000  1.0
  C  C16  1  0.10058000  0.12058000  0.09382000  1.0
  C  C17  1  0.98210000  0.14188000  0.01361000  1.0
  C  C18  1  0.36796000  0.96763000  0.90274000  1.0
  C  C19  1  0.43798000  0.86240000  0.38548000  1.0
  C  C20  1  0.56049000  0.14493000  0.09076000  1.0
  C  C21  1  0.87654000  0.01829000  0.91604000  1.0
  C  C22  1  0.54377000  0.95198000  0.38042000  1.0
  C  C23  1  0.39061000  0.91039000  0.50757000  1.0
  C  C24  1  0.36816000  0.24581000  0.99959000  1.0
  N  N1  1  0.23923000  0.96879000  0.16883000  1.0
  N  N2  1  0.76015000  0.07045000  0.19593000  1.0
  N  N3  1  0.71806000  0.16902000  0.48419000  1.0
  N  N4  1  0.76077000  0.03121000  0.83117000  1.0
  N  N5  1  0.23985000  0.92955000  0.80407000  1.0
  N  N6  1  0.28195000  0.83098000  0.51580000  1.0
  O  O1  1  0.57991000  0.62470000  0.90033000  1.0
  O  O2  1  0.58693000  0.31755000  0.85227000  1.0
  O  O3  1  0.91869000  0.60533000  0.89991000  1.0
  O  O4  1  0.74128000  0.76846000  0.09565000  1.0
  O  O5  1  0.14403000  0.67543000  0.01368000  1.0
  O  O6  1  0.72099000  0.36729000  0.74002000  1.0
  O  O7  1  0.93352000  0.61659000  0.18550000  1.0
  O  O8  1  0.42010000  0.37530000  0.09966000  1.0
  O  O9  1  0.41307000  0.68244000  0.14773000  1.0
  O  O10  1  0.08131000  0.39466000  0.10009000  1.0
  O  O11  1  0.25872000  0.23154000  0.90435000  1.0
  O  O12  1  0.85597000  0.32456000  0.98632000  1.0
  O  O13  1  0.27901000  0.63271000  0.25998000  1.0
  O  O14  1  0.06648000  0.38340000  0.81450000  1.0
