# generated using pymatgen
data_H10C13(N2O3)2
_symmetry_space_group_name_H-M   'P 1'
_cell_length_a   20.65480000
_cell_length_b   20.65480000
_cell_length_c   23.74870000
_cell_angle_alpha   90.00000000
_cell_angle_beta   90.00000000
_cell_angle_gamma   120.00000000
_symmetry_Int_Tables_number   1
_chemical_formula_structural   H10C13(N2O3)2
_chemical_formula_sum   'H60 C78 N24 O36'
_cell_volume   8774.29963740
_cell_formula_units_Z   6
loop_
 _symmetry_equiv_pos_site_id
 _symmetry_equiv_pos_as_xyz
  1  'x, y, z'
loop_
 _atom_site_type_symbol
 _atom_site_label
 _atom_site_symmetry_multiplicity
 _atom_site_fract_x
 _atom_site_fract_y
 _atom_site_fract_z
 _atom_site_occupancy
  C  1  1  0.51520900  0.44372500  0.96743000  1
  C  2  1  0.58475000  0.46715000  0.00645000  1
  C  3  1  0.52866850  0.51208250  0.93023300  1
  C  4  1  0.54198350  0.57980850  0.96817000  1
  C  7  1  0.61184400  0.60167500  0.00663200  1
  C  8  1  0.59990600  0.53497400  0.04466000  1
  C  13  1  0.52844800  0.51081600  0.08111800  1
  C  14  1  0.45706700  0.48724600  0.04468400  1
  C  17  1  0.47231700  0.55570600  0.00718900  1
  C  20  1  0.44524100  0.42120300  0.00592900  1
  C  23  1  0.50347250  0.37967250  0.93131800  1
  C  24  1  0.38790250  0.46458850  0.07849600  1
  C  25  1  0.55381300  0.64444700  0.93274100  1
  C  26  1  0.66894750  0.55697650  0.07842600  1
  C  31  1  0.97493500  0.52548100  0.30125400  1
  C  32  1  0.92899100  0.45566400  0.34005600  1
  C  33  1  0.02957500  0.51223600  0.26354600  1
  C  34  1  0.08412000  0.49851500  0.30096800  1
  C  37  1  0.03628750  0.42838850  0.33923200  1
  C  38  1  0.98183400  0.44014200  0.37776800  1
  C  43  1  0.02946250  0.51133950  0.41442600  1
  C  44  1  0.07710350  0.58294650  0.37819800  1
  C  47  1  0.13000550  0.56787350  0.34019600  1
  C  50  1  0.02268300  0.59513900  0.33995600  1
  C  53  1  0.92244700  0.53755500  0.26561800  1
  C  54  1  0.12398000  0.65185500  0.41215300  1
  C  55  1  0.13666050  0.48686450  0.26506700  1
  C  56  1  0.93492400  0.37085400  0.41134400  1
  C  61  1  0.59758500  0.06663300  0.63450700  1
  C  62  1  0.57393200  0.11251300  0.67358100  1
  C  63  1  0.52944700  0.01201800  0.59700500  1
  C  64  1  0.46146000  0.95738600  0.63463300  1
  C  67  1  0.43938200  0.00512600  0.67319000  1
  C  68  1  0.50586100  0.05960500  0.71150500  1
  C  73  1  0.52977450  0.01204750  0.74789400  1
  C  74  1  0.55349950  0.96442850  0.71137800  1
  C  77  1  0.48526000  0.91151800  0.67358900  1
  C  80  1  0.61980550  0.01887050  0.67292100  1
  C  83  1  0.66189000  0.11915800  0.59869000  1
  C  84  1  0.57583000  0.91760500  0.74510100  1
  C  85  1  0.39702200  0.90484300  0.59892900  1
  C  86  1  0.48370500  0.10649200  0.74531200  1
  C  91  1  0.51426700  0.18348500  0.82756100  1
  C  93  1  0.56630300  0.31647400  0.81682400  1
  C  94  1  0.55380750  0.32112750  0.87467000  1
  C  96  1  0.50836750  0.18986250  0.88639400  1
  C  97  1  0.48051000  0.12991600  0.92331300  1
  C  98  1  0.59361550  0.37680950  0.78029500  1
  C  109  1  0.71579200  0.52711400  0.16084600  1
  C  111  1  0.79699900  0.47533500  0.15051000  1
  C  112  1  0.81411450  0.48813750  0.20834800  1
  C  114  1  0.72815600  0.53345800  0.21967000  1
  C  115  1  0.69578100  0.56118500  0.25643000  1
  C  116  1  0.83002900  0.44777100  0.11415000  1
  C  127  1  0.85829200  0.32439800  0.49387200  1
  C  129  1  0.72518250  0.24373950  0.48359200  1
  C  130  1  0.72066200  0.22759900  0.54162200  1
  C  132  1  0.85210600  0.31283600  0.55279600  1
  C  133  1  0.91222300  0.34550800  0.58956100  1
  C  134  1  0.66464250  0.21051250  0.44726200  1
  C  145  1  0.54550900  0.84106100  0.82766700  1
  C  147  1  0.49284100  0.70790700  0.81749700  1
  C  148  1  0.50442200  0.70341600  0.87554200  1
  C  150  1  0.55080000  0.83490900  0.88660100  1
  C  151  1  0.57845700  0.89506200  0.92338500  1
  C  152  1  0.46563100  0.64736700  0.78117100  1
  C  163  1  0.34214700  0.49579000  0.16090600  1
  C  165  1  0.26178950  0.54855950  0.15037400  1
  C  166  1  0.24545600  0.53694900  0.20837800  1
  C  168  1  0.33067250  0.49074450  0.21983600  1
  C  169  1  0.36291300  0.46302300  0.25673000  1
  C  170  1  0.22854050  0.57569850  0.11390000  1
  C  181  1  0.20080950  0.69809950  0.49451600  1
  C  183  1  0.33380500  0.77917500  0.48407600  1
  C  184  1  0.33820200  0.79628500  0.54192000  1
  C  186  1  0.20692350  0.71039650  0.55334400  1
  C  187  1  0.14684750  0.67808950  0.59013300  1
  C  188  1  0.39433900  0.81221700  0.44765800  1
  H  5  1  0.48024200  0.49516300  0.90278700  1
  H  6  1  0.57719400  0.52944400  0.90280700  1
  H  9  1  0.66122550  0.61929750  0.97999500  1
  H  10  1  0.62287000  0.64939700  0.03333600  1
  H  11  1  0.63441700  0.48249400  0.98085900  1
  H  12  1  0.57574850  0.41966050  0.03264200  1
  H  15  1  0.53844400  0.55777000  0.10834200  1
  H  16  1  0.51840600  0.46346900  0.10789600  1
  H  18  1  0.48122450  0.60274550  0.03389600  1
  H  19  1  0.42274400  0.54079900  0.98160800  1
  H  21  1  0.43414500  0.37303700  0.03211900  1
  H  22  1  0.39594000  0.40403000  0.97929600  1
  H  35  1  0.06099600  0.56087300  0.23627000  1
  H  36  1  0.99823950  0.46394450  0.23594600  1
  H  39  1  0.00430450  0.37921750  0.31244200  1
  H  40  1  0.07309850  0.41709350  0.36557000  1
  H  41  1  0.89446400  0.40622100  0.31431200  1
  H  42  1  0.89070100  0.46452900  0.36660600  1
  H  45  1  0.06655600  0.50109900  0.44129600  1
  H  46  1  0.99238300  0.52127100  0.44156000  1
  H  48  1  0.16825250  0.55869650  0.36654200  1
  H  49  1  0.16456750  0.61763250  0.31476000  1
  H  51  1  0.98582400  0.60609800  0.36651600  1
  H  52  1  0.05467200  0.64462300  0.31346600  1
  H  65  1  0.54650900  0.98067100  0.56951400  1
  H  66  1  0.51228450  0.04338450  0.56962000  1
  H  69  1  0.42193800  0.03706800  0.64659900  1
  H  70  1  0.39149500  0.96826600  0.69969300  1
  H  71  1  0.55877600  0.14701600  0.64803200  1
  H  72  1  0.62126650  0.15082050  0.69997900  1
  H  75  1  0.48271350  0.97496150  0.77498500  1
  H  76  1  0.57702350  0.04920750  0.77480400  1
  H  78  1  0.43803650  0.87323350  0.70008500  1
  H  79  1  0.50028650  0.87698950  0.64795200  1
  H  81  1  0.66781900  0.05573100  0.69931900  1
  H  82  1  0.63710500  0.98688600  0.64624200  1
  H  101  1  0.56221100  0.11270100  0.92440500  1
  H  104  1  0.69128300  0.43497200  0.80972300  1
  H  106  1  0.50272600  0.08239600  0.82384300  1
  H  108  1  0.60467900  0.43022900  0.89231800  1
  H  119  1  0.59714300  0.47901100  0.25780000  1
  H  122  1  0.78891700  0.34980300  0.14337200  1
  H  124  1  0.62595950  0.53803950  0.15701900  1
  H  126  1  0.87200200  0.43687400  0.22590700  1
  H  137  1  0.92837200  0.44389300  0.59122700  1
  H  140  1  0.60712050  0.25100250  0.47622400  1
  H  142  1  0.95964900  0.41337800  0.49002200  1
  H  144  1  0.61158900  0.16997100  0.55954200  1
  H  155  1  0.49604150  0.91117550  0.92432500  1
  H  158  1  0.36751650  0.58988250  0.80994800  1
  H  160  1  0.55814850  0.94258450  0.82367800  1
  H  162  1  0.45292450  0.59430850  0.89330300  1
  H  173  1  0.46197450  0.54446450  0.25718400  1
  H  176  1  0.26847100  0.67361500  0.14293400  1
  H  178  1  0.43087400  0.48296600  0.15704400  1
  H  180  1  0.18763150  0.58819550  0.22621800  1
  H  191  1  0.13004050  0.57932450  0.59129900  1
  H  194  1  0.45140700  0.77136600  0.47692200  1
  H  196  1  0.09984350  0.60839750  0.49059100  1
  H  198  1  0.44734250  0.85426250  0.55950800  1
  N  92  1  0.54491750  0.24747750  0.79651100  1
  N  95  1  0.52684000  0.25819600  0.90655400  1
  N  105  1  0.49589000  0.11784600  0.80168200  1
  N  107  1  0.55912950  0.38285750  0.89872100  1
  N  110  1  0.74924800  0.49642000  0.12999000  1
  N  113  1  0.77801900  0.51512300  0.24004600  1
  N  123  1  0.66825900  0.54500100  0.13480800  1
  N  125  1  0.87009200  0.48231000  0.23267800  1
  N  128  1  0.79416000  0.29082900  0.46299000  1
  N  131  1  0.78373550  0.26371150  0.57331600  1
  N  141  1  0.92391000  0.37134400  0.46778600  1
  N  143  1  0.65891300  0.17174900  0.56609000  1
  N  146  1  0.51488650  0.77689150  0.79683100  1
  N  149  1  0.53149000  0.76655300  0.90717700  1
  N  159  1  0.56432400  0.90669200  0.80155600  1
  N  161  1  0.49837850  0.64163550  0.90007000  1
  N  164  1  0.30874600  0.52642200  0.12990600  1
  N  167  1  0.28145250  0.50995850  0.24019000  1
  N  177  1  0.38880050  0.47669050  0.13487400  1
  N  179  1  0.18936100  0.54260000  0.23264400  1
  N  182  1  0.26491750  0.73149850  0.46360400  1
  N  185  1  0.27516400  0.76022800  0.57367000  1
  N  195  1  0.13531500  0.65075800  0.46850500  1
  N  197  1  0.39999000  0.85238400  0.56616200  1
  O  27  1  0.32385800  0.44284100  0.04921100  1
  O  28  1  0.43621800  0.31556000  0.93250650  1
  O  29  1  0.73314700  0.57939600  0.04916800  1
  O  30  1  0.62108100  0.70851700  0.93439300  1
  O  57  1  0.16583550  0.71616750  0.38304800  1
  O  58  1  0.92557150  0.60477950  0.26740800  1
  O  59  1  0.89278800  0.30691500  0.38189800  1
  O  60  1  0.13339550  0.41955050  0.26621600  1
  O  87  1  0.59766300  0.87538900  0.71579100  1
  O  88  1  0.72592500  0.11587300  0.59999900  1
  O  89  1  0.46114400  0.14819600  0.71611400  1
  O  90  1  0.33292000  0.90798400  0.60048800  1
  O  99  1  0.43213150  0.12280850  0.95649000  1
  O  100  1  0.52102700  0.10619800  0.94117100  1
  O  102  1  0.56434550  0.36703050  0.73396800  1
  O  103  1  0.66034550  0.42584350  0.78109600  1
  O  117  1  0.73691550  0.60989550  0.28945200  1
  O  118  1  0.63167650  0.52039650  0.27443600  1
  O  120  1  0.85082800  0.47811800  0.06829800  1
  O  121  1  0.81124550  0.38076950  0.11484800  1
  O  135  1  0.91931850  0.30374650  0.62226600  1
  O  136  1  0.93503550  0.40927650  0.60792000  1
  O  138  1  0.67400800  0.19019900  0.40113800  1
  O  139  1  0.61590350  0.22861650  0.44782200  1
  O  153  1  0.62753950  0.90259250  0.95597900  1
  O  154  1  0.53722300  0.91789500  0.94123800  1
  O  156  1  0.49546650  0.65671250  0.73511000  1
  O  157  1  0.39877800  0.59865400  0.78161700  1
  O  171  1  0.32181450  0.41499850  0.29019600  1
  O  172  1  0.42733000  0.50353300  0.27424200  1
  O  174  1  0.20854600  0.54607700  0.06773000  1
  O  175  1  0.24629500  0.64244800  0.11449400  1
  O  189  1  0.13943900  0.71923800  0.62324700  1
  O  190  1  0.12332650  0.61389750  0.60801500  1
  O  192  1  0.38468700  0.83288700  0.40178900  1
  O  193  1  0.44268900  0.79361400  0.44838600  1
