# generated using pymatgen
data_Cr3H20C35NO17
_symmetry_space_group_name_H-M   'P 1'
_cell_length_a   10.95619000
_cell_length_b   11.01059000
_cell_length_c   18.83240000
_cell_angle_alpha   90.33034000
_cell_angle_beta   90.10435000
_cell_angle_gamma   119.71387000
_symmetry_Int_Tables_number   1
_chemical_formula_structural   Cr3H20C35NO17
_chemical_formula_sum   'Cr6 H40 C70 N2 O34'
_cell_volume   1973.04910199
_cell_formula_units_Z   2
loop_
 _symmetry_equiv_pos_site_id
 _symmetry_equiv_pos_as_xyz
  1  'x, y, z'
loop_
 _atom_site_type_symbol
 _atom_site_label
 _atom_site_symmetry_multiplicity
 _atom_site_fract_x
 _atom_site_fract_y
 _atom_site_fract_z
 _atom_site_occupancy
  Cr  Cr0  1  0.39795000  0.60706000  0.50223000  1
  Cr  Cr1  1  0.70850000  0.60160000  0.50126000  1
  Cr  Cr2  1  0.39353000  0.29136000  0.49646000  1
  Cr  Cr3  1  0.93832000  0.06212000  0.00762000  1
  Cr  Cr4  1  0.93722000  0.37444000  0.99451000  1
  Cr  Cr5  1  0.62501000  0.06192000  0.00119000  1
  H  H6  1  0.90851000  0.34097000  0.76973000  1
  H  H7  1  0.83242000  0.53016000  0.69340000  1
  H  H8  1  0.66217000  0.12921000  0.64695000  1
  H  H9  1  0.64609000  0.45003000  0.82525000  1
  H  H10  1  0.58620000  0.46686000  0.71286000  1
  H  H11  1  0.45125000  0.28921000  0.70949000  1
  H  H12  1  0.53864000  0.06518000  0.78631000  1
  H  H13  1  0.49689000  0.10141000  0.67487000  1
  H  H14  1  0.25852000  0.55448000  0.70105000  1
  H  H15  1  0.08914000  0.03201000  0.86193000  1
  H  H16  1  0.23593000  0.52568000  0.82507000  1
  H  H17  1  0.03678000  0.84140000  0.78154000  1
  H  H18  1  0.03518000  0.86922000  0.65269000  1
  H  H19  1  0.07982000  0.08924000  0.60275000  1
  H  H20  1  0.80533000  0.72322000  0.70510000  1
  H  H21  1  0.40915000  0.76542000  0.89503000  1
  H  H22  1  0.81937000  0.75159000  0.83264000  1
  H  H23  1  0.25134000  0.83664000  0.70139000  1
  H  H24  1  0.44513000  0.84626000  0.63632000  1
  H  H25  1  0.86833000  0.42868000  0.32458000  1
  H  H26  1  0.42583000  0.25905000  0.10205000  1
  H  H27  1  0.89610000  0.41300000  0.19585000  1
  H  H28  1  0.20376000  0.06421000  0.14237000  1
  H  H29  1  0.18216000  0.97527000  0.26449000  1
  H  H30  1  0.37828000  0.07905000  0.34520000  1
  H  H31  1  0.09094000  0.15181000  0.32325000  1
  H  H32  1  0.31589000  0.59102000  0.10166000  1
  H  H33  1  0.03972000  0.12318000  0.19836000  1
  H  H34  1  0.35959000  0.81651000  0.14698000  1
  H  H35  1  0.32724000  0.84540000  0.27422000  1
  H  H36  1  0.25002000  0.65821000  0.35380000  1
  H  H37  1  0.56475000  0.90788000  0.33670000  1
  H  H38  1  0.73760000  0.67997000  0.09396000  1
  H  H39  1  0.59675000  0.98451000  0.21381000  1
  H  H40  1  0.93407000  0.64899000  0.13032000  1
  H  H41  1  0.85671000  0.69313000  0.34637000  1
  H  H42  1  0.87098000  0.56984000  0.80872000  1
  H  H43  1  0.20980000  0.77452000  0.88877000  1
  H  H44  1  0.04314000  0.68512000  0.31177000  1
  H  H45  1  0.79948000  0.12225000  0.73050000  1
  C  C46  1  0.64136000  0.75474000  0.61229000  1
  C  C47  1  0.62404000  0.34488000  0.59973000  1
  C  C48  1  0.22899000  0.37247000  0.60277000  1
  C  C49  1  0.62573000  0.71982000  0.39226000  1
  C  C50  1  0.62117000  0.35373000  0.39243000  1
  C  C51  1  0.23618000  0.38977000  0.39321000  1
  C  C52  1  0.84064000  0.38924000  0.77174000  1
  C  C53  1  0.81398000  0.42143000  0.69442000  1
  C  C54  1  0.63935000  0.14415000  0.76348000  1
  C  C55  1  0.59321000  0.34369000  0.80112000  1
  C  C56  1  0.69534000  0.28212000  0.80719000  1
  C  C57  1  0.65659000  0.32289000  0.67324000  1
  C  C58  1  0.61161000  0.16694000  0.68538000  1
  C  C59  1  0.56459000  0.35849000  0.72247000  1
  C  C60  1  0.15440000  0.30342000  0.82344000  1
  C  C61  1  0.12291000  0.18515000  0.77928000  1
  C  C62  1  0.13122000  0.20223000  0.70422000  1
  C  C63  1  0.21864000  0.45052000  0.72114000  1
  C  C64  1  0.20921000  0.43466000  0.79295000  1
  C  C65  1  0.08701000  0.05194000  0.80625000  1
  C  C66  1  0.06141000  0.94170000  0.76053000  1
  C  C67  1  0.06059000  0.95712000  0.68764000  1
  C  C68  1  0.08998000  0.08461000  0.65960000  1
  C  C69  1  0.18151000  0.33703000  0.67586000  1
  C  C70  1  0.65108000  0.79723000  0.83973000  1
  C  C71  1  0.53658000  0.79240000  0.80227000  1
  C  C72  1  0.53947000  0.79749000  0.72676000  1
  C  C73  1  0.73528000  0.75231000  0.73043000  1
  C  C74  1  0.74002000  0.76246000  0.80382000  1
  C  C75  1  0.42169000  0.78655000  0.83868000  1
  C  C76  1  0.31680000  0.79892000  0.80255000  1
  C  C77  1  0.32876000  0.82134000  0.72955000  1
  C  C78  1  0.43926000  0.82242000  0.69202000  1
  C  C79  1  0.64395000  0.77991000  0.69006000  1
  C  C80  1  0.67584000  0.33647000  0.17128000  1
  C  C81  1  0.53979000  0.27534000  0.20010000  1
  C  C82  1  0.52388000  0.24384000  0.27274000  1
  C  C83  1  0.77666000  0.38160000  0.29028000  1
  C  C84  1  0.79214000  0.37845000  0.21699000  1
  C  C85  1  0.41905000  0.22374000  0.15622000  1
  C  C86  1  0.29211000  0.11313000  0.17869000  1
  C  C87  1  0.27995000  0.06382000  0.24738000  1
  C  C88  1  0.39309000  0.12922000  0.29446000  1
  C  C89  1  0.64269000  0.32221000  0.31883000  1
  C  C90  1  0.16272000  0.34585000  0.17405000  1
  C  C91  1  0.23564000  0.48123000  0.20206000  1
  C  C92  1  0.23306000  0.49797000  0.27581000  1
  C  C93  1  0.12748000  0.24388000  0.29042000  1
  C  C94  1  0.10459000  0.22854000  0.21869000  1
  C  C95  1  0.29664000  0.59948000  0.15735000  1
  C  C96  1  0.32355000  0.72857000  0.18258000  1
  C  C97  1  0.30663000  0.74498000  0.25407000  1
  C  C98  1  0.26610000  0.63369000  0.30061000  1
  C  C99  1  0.19265000  0.37664000  0.31980000  1
  C  C100  1  0.66234000  0.83783000  0.17846000  1
  C  C101  1  0.70868000  0.74522000  0.19940000  1
  C  C102  1  0.72555000  0.73188000  0.27197000  1
  C  C103  1  0.60702000  0.86377000  0.29901000  1
  C  C104  1  0.62063000  0.90358000  0.22886000  1
  C  C105  1  0.76472000  0.68932000  0.14985000  1
  C  C106  1  0.87667000  0.67195000  0.16992000  1
  C  C107  1  0.91435000  0.68404000  0.24110000  1
  C  C108  1  0.82937000  0.69803000  0.29229000  1
  C  C109  1  0.65159000  0.77105000  0.32034000  1
  C  C110  1  0.09964000  0.29482000  0.89550000  1
  C  C111  1  0.70891000  0.24947000  0.88272000  1
  C  C112  1  0.70232000  0.87652000  0.90730000  1
  C  C113  1  0.10749000  0.32404000  0.10308000  1
  C  C114  1  0.69098000  0.30315000  0.09796000  1
  C  C115  1  0.70773000  0.90515000  0.11127000  1
  N  N116  1  0.91218000  0.41500000  0.64369000  1
  N  N117  1  0.46033000  0.26222000  0.83907000  1
  O  O118  1  0.25569000  0.49266000  0.58143000  1
  O  O119  1  0.52738000  0.71964000  0.57891000  1
  O  O120  1  0.73961000  0.73940000  0.58458000  1
  O  O121  1  0.69505000  0.46763000  0.57383000  1
  O  O122  1  0.50343000  0.25515000  0.57638000  1
  O  O123  1  0.27650000  0.30092000  0.57195000  1
  O  O124  1  0.25652000  0.50114000  0.41986000  1
  O  O125  1  0.52815000  0.72751000  0.42914000  1
  O  O126  1  0.74044000  0.74789000  0.42301000  1
  O  O127  1  0.69582000  0.47549000  0.42405000  1
  O  O128  1  0.50426000  0.26363000  0.41481000  1
  O  O129  1  0.27727000  0.30878000  0.42218000  1
  O  O130  1  0.49999000  0.50001000  0.49998000  1
  O  O131  1  0.82545000  0.91043000  0.93059000  1
  O  O132  1  0.05426000  0.18130000  0.92986000  1
  O  O133  1  0.07701000  0.39369000  0.91552000  1
  O  O134  1  0.80654000  0.35327000  0.91756000  1
  O  O135  1  0.59324000  0.16271000  0.91524000  1
  O  O136  1  0.63531000  0.93468000  0.93158000  1
  O  O137  1  0.82862000  0.93153000  0.09185000  1
  O  O138  1  0.05720000  0.20085000  0.07935000  1
  O  O139  1  0.08018000  0.41478000  0.07677000  1
  O  O140  1  0.80948000  0.37283000  0.06705000  1
  O  O141  1  0.59641000  0.18380000  0.07650000  1
  O  O142  1  0.63824000  0.95423000  0.08107000  1
  O  O143  1  0.83352000  0.16616000  0.00111000  1
  O  O144  1  0.91875000  0.51379000  0.81122000  1
  O  O145  1  0.20249000  0.79022000  0.83751000  1
  O  O146  1  0.00385000  0.52837000  0.61191000  1
  O  O147  1  0.90696000  0.29735000  0.62813000  1
  O  O148  1  0.02804000  0.67078000  0.25976000  1
  O  O149  1  0.73073000  0.08867000  0.76977000  1
  O  O150  1  0.37387000  0.13287000  0.82175000  1
  O  O151  1  0.42880000  0.31897000  0.89152000  1
