# generated using pymatgen
data_Zn4H24C48O13
_symmetry_space_group_name_H-M   'P 1'
_cell_length_a   20.00043000
_cell_length_b   27.94761000
_cell_length_c   27.97250000
_cell_angle_alpha   90.00000000
_cell_angle_beta   90.00000000
_cell_angle_gamma   90.03463000
_symmetry_Int_Tables_number   1
_chemical_formula_structural   Zn4H24C48O13
_chemical_formula_sum   'Zn16 H96 C192 O52'
_cell_volume   15635.62371733
_cell_formula_units_Z   4
loop_
 _symmetry_equiv_pos_site_id
 _symmetry_equiv_pos_as_xyz
  1  'x, y, z'
loop_
 _atom_site_type_symbol
 _atom_site_label
 _atom_site_symmetry_multiplicity
 _atom_site_fract_x
 _atom_site_fract_y
 _atom_site_fract_z
 _atom_site_occupancy
  Zn  Zn0  1  0.68515000  0.38427000  0.05628000  1
  Zn  Zn1  1  0.81581000  0.88429000  0.44363000  1
  Zn  Zn2  1  0.68515000  0.38427000  0.94372000  1
  Zn  Zn3  1  0.81581000  0.88429000  0.55637000  1
  Zn  Zn4  1  0.80245000  0.43957000  0.00000000  1
  Zn  Zn5  1  0.80307000  0.32739000  0.00000000  1
  Zn  Zn6  1  0.69879000  0.93938000  0.50000000  1
  Zn  Zn7  1  0.69654000  0.82797000  0.50000000  1
  Zn  Zn8  1  0.31486000  0.61572000  0.05628000  1
  Zn  Zn9  1  0.18420000  0.11571000  0.44363000  1
  Zn  Zn10  1  0.31486000  0.61572000  0.94372000  1
  Zn  Zn11  1  0.18420000  0.11571000  0.55637000  1
  Zn  Zn12  1  0.19755000  0.56043000  0.00000000  1
  Zn  Zn13  1  0.19693000  0.67260000  0.00000000  1
  Zn  Zn14  1  0.30121000  0.06062000  0.50000000  1
  Zn  Zn15  1  0.30347000  0.17203000  0.50000000  1
  H  H16  1  0.63686000  0.49641000  0.14942000  1
  H  H17  1  0.63102000  0.56304000  0.20912000  1
  H  H18  1  0.81338000  0.62199000  0.15143000  1
  H  H19  1  0.81787000  0.55547000  0.09186000  1
  H  H20  1  0.81702000  0.73183000  0.25989000  1
  H  H21  1  0.82600000  0.79106000  0.32662000  1
  H  H22  1  0.65502000  0.72809000  0.39482000  1
  H  H23  1  0.64455000  0.66919000  0.32795000  1
  H  H24  1  0.35345000  0.38025000  0.92290000  1
  H  H25  1  0.47862000  0.37709000  0.92325000  1
  H  H26  1  0.86304000  0.99637000  0.35058000  1
  H  H27  1  0.86903000  0.06305000  0.29088000  1
  H  H28  1  0.68671000  0.12192000  0.34860000  1
  H  H29  1  0.68213000  0.05541000  0.40816000  1
  H  H30  1  0.68299000  0.23170000  0.24035000  1
  H  H31  1  0.67383000  0.29098000  0.17362000  1
  H  H32  1  0.84459000  0.22815000  0.10521000  1
  H  H33  1  0.85541000  0.16927000  0.17208000  1
  H  H34  1  0.14679000  0.88026000  0.57713000  1
  H  H35  1  0.02157000  0.87708000  0.57672000  1
  H  H36  1  0.63686000  0.49641000  0.85057000  1
  H  H37  1  0.63102000  0.56304000  0.79088000  1
  H  H38  1  0.81338000  0.62199000  0.84857000  1
  H  H39  1  0.81787000  0.55547000  0.90813000  1
  H  H40  1  0.81702000  0.73183000  0.74010000  1
  H  H41  1  0.82600000  0.79106000  0.67338000  1
  H  H42  1  0.65502000  0.72809000  0.60518000  1
  H  H43  1  0.64455000  0.66919000  0.67205000  1
  H  H44  1  0.35345000  0.38025000  0.07710000  1
  H  H45  1  0.47862000  0.37709000  0.07675000  1
  H  H46  1  0.86304000  0.99637000  0.64942000  1
  H  H47  1  0.86903000  0.06305000  0.70912000  1
  H  H48  1  0.68671000  0.12192000  0.65140000  1
  H  H49  1  0.68213000  0.05541000  0.59184000  1
  H  H50  1  0.68299000  0.23170000  0.75965000  1
  H  H51  1  0.67383000  0.29098000  0.82638000  1
  H  H52  1  0.84459000  0.22815000  0.89478000  1
  H  H53  1  0.85541000  0.16927000  0.82792000  1
  H  H54  1  0.14679000  0.88026000  0.42287000  1
  H  H55  1  0.02157000  0.87708000  0.42328000  1
  H  H56  1  0.00738000  0.31010000  0.00000000  1
  H  H57  1  0.13258000  0.30785000  0.00000000  1
  H  H58  1  0.13730000  0.46202000  0.00000000  1
  H  H59  1  0.01228000  0.46357000  0.00000000  1
  H  H60  1  0.49283000  0.81030000  0.50000000  1
  H  H61  1  0.36771000  0.80796000  0.50000000  1
  H  H62  1  0.36295000  0.96212000  0.50000000  1
  H  H63  1  0.48795000  0.96379000  0.50000000  1
  H  H64  1  0.36315000  0.50359000  0.14942000  1
  H  H65  1  0.36899000  0.43696000  0.20912000  1
  H  H66  1  0.18663000  0.37801000  0.15143000  1
  H  H67  1  0.18213000  0.44453000  0.09186000  1
  H  H68  1  0.18299000  0.26817000  0.25989000  1
  H  H69  1  0.17400000  0.20894000  0.32662000  1
  H  H70  1  0.34498000  0.27191000  0.39482000  1
  H  H71  1  0.35545000  0.33081000  0.32795000  1
  H  H72  1  0.64655000  0.61975000  0.92290000  1
  H  H73  1  0.52138000  0.62291000  0.92325000  1
  H  H74  1  0.13697000  0.00363000  0.35058000  1
  H  H75  1  0.13097000  0.93694000  0.29088000  1
  H  H76  1  0.31329000  0.87808000  0.34860000  1
  H  H77  1  0.31787000  0.94459000  0.40816000  1
  H  H78  1  0.31702000  0.76830000  0.24035000  1
  H  H79  1  0.32618000  0.70902000  0.17362000  1
  H  H80  1  0.15542000  0.77185000  0.10521000  1
  H  H81  1  0.14459000  0.83073000  0.17208000  1
  H  H82  1  0.85321000  0.11974000  0.57713000  1
  H  H83  1  0.97844000  0.12292000  0.57672000  1
  H  H84  1  0.36315000  0.50359000  0.85057000  1
  H  H85  1  0.36899000  0.43696000  0.79088000  1
  H  H86  1  0.18663000  0.37801000  0.84857000  1
  H  H87  1  0.18213000  0.44453000  0.90813000  1
  H  H88  1  0.18299000  0.26817000  0.74010000  1
  H  H89  1  0.17400000  0.20894000  0.67338000  1
  H  H90  1  0.34498000  0.27191000  0.60518000  1
  H  H91  1  0.35545000  0.33081000  0.67205000  1
  H  H92  1  0.64655000  0.61975000  0.07710000  1
  H  H93  1  0.52138000  0.62291000  0.07675000  1
  H  H94  1  0.13697000  0.00363000  0.64942000  1
  H  H95  1  0.13097000  0.93694000  0.70912000  1
  H  H96  1  0.31329000  0.87808000  0.65140000  1
  H  H97  1  0.31787000  0.94459000  0.59184000  1
  H  H98  1  0.31702000  0.76830000  0.75965000  1
  H  H99  1  0.32618000  0.70902000  0.82638000  1
  H  H100  1  0.15542000  0.77185000  0.89478000  1
  H  H101  1  0.14459000  0.83073000  0.82792000  1
  H  H102  1  0.85321000  0.11974000  0.42287000  1
  H  H103  1  0.97844000  0.12292000  0.42328000  1
  H  H104  1  0.99263000  0.68990000  0.00000000  1
  H  H105  1  0.86743000  0.69215000  0.00000000  1
  H  H106  1  0.86271000  0.53798000  0.00000000  1
  H  H107  1  0.98773000  0.53643000  0.00000000  1
  H  H108  1  0.50718000  0.18970000  0.50000000  1
  H  H109  1  0.63230000  0.19204000  0.50000000  1
  H  H110  1  0.63705000  0.03787000  0.50000000  1
  H  H111  1  0.51206000  0.03621000  0.50000000  1
  C  C112  1  0.73431000  0.48042000  0.08433000  1
  C  C113  1  0.72819000  0.52174000  0.11767000  1
  C  C114  1  0.67488000  0.52422000  0.15031000  1
  C  C115  1  0.67170000  0.56125000  0.18340000  1
  C  C116  1  0.72235000  0.59662000  0.18473000  1
  C  C117  1  0.77471000  0.59464000  0.15076000  1
  C  C118  1  0.77738000  0.55763000  0.11770000  1
  C  C119  1  0.72246000  0.63249000  0.22040000  1
  C  C120  1  0.72542000  0.66256000  0.25210000  1
  C  C121  1  0.73012000  0.69652000  0.28944000  1
  C  C122  1  0.78154000  0.73132000  0.28934000  1
  C  C123  1  0.78664000  0.76421000  0.32643000  1
  C  C124  1  0.74111000  0.76309000  0.36468000  1
  C  C125  1  0.68992000  0.72861000  0.36502000  1
  C  C126  1  0.68415000  0.69586000  0.32787000  1
  C  C127  1  0.74710000  0.79816000  0.40467000  1
  C  C128  1  0.38112000  0.37933000  0.95638000  1
  C  C129  1  0.45059000  0.37759000  0.95656000  1
  C  C130  1  0.76613000  0.98033000  0.41558000  1
  C  C131  1  0.77179000  0.02166000  0.38223000  1
  C  C132  1  0.82509000  0.02421000  0.34962000  1
  C  C133  1  0.82832000  0.06125000  0.31658000  1
  C  C134  1  0.77768000  0.09658000  0.31528000  1
  C  C135  1  0.72533000  0.09457000  0.34926000  1
  C  C136  1  0.72261000  0.05753000  0.38230000  1
  C  C137  1  0.77757000  0.13243000  0.27963000  1
  C  C138  1  0.77457000  0.16251000  0.24795000  1
  C  C139  1  0.76985000  0.19650000  0.21069000  1
  C  C140  1  0.71842000  0.23126000  0.21087000  1
  C  C141  1  0.71320000  0.26416000  0.17379000  1
  C  C142  1  0.75857000  0.26287000  0.13545000  1
  C  C143  1  0.80986000  0.22855000  0.13510000  1
  C  C144  1  0.81579000  0.19587000  0.17225000  1
  C  C145  1  0.75265000  0.29744000  0.09510000  1
  C  C146  1  0.11914000  0.87933000  0.54364000  1
  C  C147  1  0.04970000  0.87758000  0.54345000  1
  C  C148  1  0.73431000  0.48042000  0.91566000  1
  C  C149  1  0.72819000  0.52174000  0.88232000  1
  C  C150  1  0.67488000  0.52422000  0.84969000  1
  C  C151  1  0.67170000  0.56125000  0.81660000  1
  C  C152  1  0.72235000  0.59662000  0.81527000  1
  C  C153  1  0.77471000  0.59464000  0.84923000  1
  C  C154  1  0.77738000  0.55763000  0.88230000  1
  C  C155  1  0.72246000  0.63249000  0.77960000  1
  C  C156  1  0.72542000  0.66256000  0.74790000  1
  C  C157  1  0.73012000  0.69652000  0.71056000  1
  C  C158  1  0.78154000  0.73132000  0.71066000  1
  C  C159  1  0.78664000  0.76421000  0.67357000  1
  C  C160  1  0.74111000  0.76309000  0.63532000  1
  C  C161  1  0.68992000  0.72861000  0.63497000  1
  C  C162  1  0.68415000  0.69586000  0.67213000  1
  C  C163  1  0.74710000  0.79816000  0.59533000  1
  C  C164  1  0.38112000  0.37933000  0.04362000  1
  C  C165  1  0.45059000  0.37759000  0.04344000  1
  C  C166  1  0.76613000  0.98033000  0.58442000  1
  C  C167  1  0.77179000  0.02166000  0.61777000  1
  C  C168  1  0.82509000  0.02421000  0.65038000  1
  C  C169  1  0.82832000  0.06125000  0.68342000  1
  C  C170  1  0.77768000  0.09658000  0.68472000  1
  C  C171  1  0.72533000  0.09457000  0.65074000  1
  C  C172  1  0.72261000  0.05753000  0.61770000  1
  C  C173  1  0.77757000  0.13243000  0.72037000  1
  C  C174  1  0.77457000  0.16251000  0.75205000  1
  C  C175  1  0.76985000  0.19650000  0.78931000  1
  C  C176  1  0.71842000  0.23126000  0.78913000  1
  C  C177  1  0.71320000  0.26416000  0.82621000  1
  C  C178  1  0.75857000  0.26287000  0.86455000  1
  C  C179  1  0.80986000  0.22855000  0.86489000  1
  C  C180  1  0.81579000  0.19587000  0.82775000  1
  C  C181  1  0.75265000  0.29744000  0.90490000  1
  C  C182  1  0.11914000  0.87933000  0.45636000  1
  C  C183  1  0.04970000  0.87758000  0.45654000  1
  C  C184  1  0.92798000  0.38748000  0.00000000  1
  C  C185  1  0.00245000  0.38690000  0.00000000  1
  C  C186  1  0.03649000  0.34294000  0.00000000  1
  C  C187  1  0.10590000  0.34174000  0.00000000  1
  C  C188  1  0.14297000  0.38481000  0.00000000  1
  C  C189  1  0.10859000  0.42895000  0.00000000  1
  C  C190  1  0.03909000  0.42976000  0.00000000  1
  C  C191  1  0.21373000  0.38361000  0.00000000  1
  C  C192  1  0.27474000  0.38211000  0.00000000  1
  C  C193  1  0.34553000  0.38029000  0.00000000  1
  C  C194  1  0.48588000  0.37685000  0.00000000  1
  C  C195  1  0.56042000  0.37639000  0.00000000  1
  C  C196  1  0.57242000  0.88770000  0.50000000  1
  C  C197  1  0.49788000  0.88712000  0.50000000  1
  C  C198  1  0.46376000  0.84314000  0.50000000  1
  C  C199  1  0.39435000  0.84188000  0.50000000  1
  C  C200  1  0.35727000  0.88491000  0.50000000  1
  C  C201  1  0.39166000  0.92908000  0.50000000  1
  C  C202  1  0.46119000  0.92994000  0.50000000  1
  C  C203  1  0.28650000  0.88363000  0.50000000  1
  C  C204  1  0.22552000  0.88212000  0.50000000  1
  C  C205  1  0.15472000  0.88029000  0.50000000  1
  C  C206  1  0.01450000  0.87684000  0.50000000  1
  C  C207  1  0.94010000  0.87639000  0.50000000  1
  C  C208  1  0.26569000  0.51958000  0.08433000  1
  C  C209  1  0.27181000  0.47825000  0.11767000  1
  C  C210  1  0.32512000  0.47578000  0.15031000  1
  C  C211  1  0.32831000  0.43875000  0.18340000  1
  C  C212  1  0.27766000  0.40338000  0.18473000  1
  C  C213  1  0.22530000  0.40536000  0.15076000  1
  C  C214  1  0.22263000  0.44237000  0.11770000  1
  C  C215  1  0.27755000  0.36751000  0.22040000  1
  C  C216  1  0.27459000  0.33744000  0.25210000  1
  C  C217  1  0.26989000  0.30348000  0.28944000  1
  C  C218  1  0.21846000  0.26868000  0.28934000  1
  C  C219  1  0.21336000  0.23579000  0.32643000  1
  C  C220  1  0.25889000  0.23691000  0.36468000  1
  C  C221  1  0.31008000  0.27139000  0.36502000  1
  C  C222  1  0.31586000  0.30414000  0.32787000  1
  C  C223  1  0.25291000  0.20183000  0.40467000  1
  C  C224  1  0.61888000  0.62067000  0.95638000  1
  C  C225  1  0.54942000  0.62240000  0.95656000  1
  C  C226  1  0.23387000  0.01967000  0.41558000  1
  C  C227  1  0.22821000  0.97834000  0.38223000  1
  C  C228  1  0.17492000  0.97579000  0.34962000  1
  C  C229  1  0.17168000  0.93875000  0.31658000  1
  C  C230  1  0.22233000  0.90342000  0.31528000  1
  C  C231  1  0.27468000  0.90543000  0.34926000  1
  C  C232  1  0.27739000  0.94247000  0.38230000  1
  C  C233  1  0.22243000  0.86757000  0.27963000  1
  C  C234  1  0.22544000  0.83749000  0.24795000  1
  C  C235  1  0.23016000  0.80350000  0.21069000  1
  C  C236  1  0.28159000  0.76874000  0.21087000  1
  C  C237  1  0.28680000  0.73584000  0.17379000  1
  C  C238  1  0.24143000  0.73713000  0.13545000  1
  C  C239  1  0.19015000  0.77145000  0.13510000  1
  C  C240  1  0.18421000  0.80413000  0.17225000  1
  C  C241  1  0.24736000  0.70256000  0.09510000  1
  C  C242  1  0.88086000  0.12067000  0.54364000  1
  C  C243  1  0.95031000  0.12241000  0.54345000  1
  C  C244  1  0.26569000  0.51958000  0.91566000  1
  C  C245  1  0.27181000  0.47825000  0.88232000  1
  C  C246  1  0.32512000  0.47578000  0.84969000  1
  C  C247  1  0.32831000  0.43875000  0.81660000  1
  C  C248  1  0.27766000  0.40338000  0.81527000  1
  C  C249  1  0.22530000  0.40536000  0.84923000  1
  C  C250  1  0.22263000  0.44237000  0.88230000  1
  C  C251  1  0.27755000  0.36751000  0.77960000  1
  C  C252  1  0.27459000  0.33744000  0.74790000  1
  C  C253  1  0.26989000  0.30348000  0.71056000  1
  C  C254  1  0.21846000  0.26868000  0.71066000  1
  C  C255  1  0.21336000  0.23579000  0.67357000  1
  C  C256  1  0.25889000  0.23691000  0.63532000  1
  C  C257  1  0.31008000  0.27139000  0.63497000  1
  C  C258  1  0.31586000  0.30414000  0.67213000  1
  C  C259  1  0.25291000  0.20183000  0.59533000  1
  C  C260  1  0.61888000  0.62067000  0.04362000  1
  C  C261  1  0.54942000  0.62240000  0.04344000  1
  C  C262  1  0.23387000  0.01967000  0.58442000  1
  C  C263  1  0.22821000  0.97834000  0.61777000  1
  C  C264  1  0.17492000  0.97579000  0.65038000  1
  C  C265  1  0.17168000  0.93875000  0.68342000  1
  C  C266  1  0.22233000  0.90342000  0.68472000  1
  C  C267  1  0.27468000  0.90543000  0.65074000  1
  C  C268  1  0.27739000  0.94247000  0.61770000  1
  C  C269  1  0.22243000  0.86757000  0.72037000  1
  C  C270  1  0.22544000  0.83749000  0.75205000  1
  C  C271  1  0.23016000  0.80350000  0.78931000  1
  C  C272  1  0.28159000  0.76874000  0.78913000  1
  C  C273  1  0.28680000  0.73584000  0.82621000  1
  C  C274  1  0.24143000  0.73713000  0.86455000  1
  C  C275  1  0.19015000  0.77145000  0.86489000  1
  C  C276  1  0.18421000  0.80413000  0.82775000  1
  C  C277  1  0.24736000  0.70256000  0.90490000  1
  C  C278  1  0.88086000  0.12067000  0.45636000  1
  C  C279  1  0.95031000  0.12241000  0.45654000  1
  C  C280  1  0.07203000  0.61252000  0.00000000  1
  C  C281  1  0.99756000  0.61310000  0.00000000  1
  C  C282  1  0.96351000  0.65706000  0.00000000  1
  C  C283  1  0.89410000  0.65826000  0.00000000  1
  C  C284  1  0.85704000  0.61519000  0.00000000  1
  C  C285  1  0.89141000  0.57104000  0.00000000  1
  C  C286  1  0.96092000  0.57024000  0.00000000  1
  C  C287  1  0.78627000  0.61639000  0.00000000  1
  C  C288  1  0.72527000  0.61789000  0.00000000  1
  C  C289  1  0.65448000  0.61971000  0.00000000  1
  C  C290  1  0.51412000  0.62315000  0.00000000  1
  C  C291  1  0.43959000  0.62361000  0.00000000  1
  C  C292  1  0.42759000  0.11230000  0.50000000  1
  C  C293  1  0.50213000  0.11288000  0.50000000  1
  C  C294  1  0.53625000  0.15686000  0.50000000  1
  C  C295  1  0.60566000  0.15812000  0.50000000  1
  C  C296  1  0.64273000  0.11509000  0.50000000  1
  C  C297  1  0.60835000  0.07092000  0.50000000  1
  C  C298  1  0.53881000  0.07006000  0.50000000  1
  C  C299  1  0.71351000  0.11637000  0.50000000  1
  C  C300  1  0.77449000  0.11788000  0.50000000  1
  C  C301  1  0.84529000  0.11971000  0.50000000  1
  C  C302  1  0.98551000  0.12316000  0.50000000  1
  C  C303  1  0.05991000  0.12360000  0.50000000  1
  O  O304  1  0.69025000  0.44736000  0.08797000  1
  O  O305  1  0.78387000  0.48098000  0.05537000  1
  O  O306  1  0.79114000  0.83111000  0.40015000  1
  O  O307  1  0.70745000  0.79227000  0.44020000  1
  O  O308  1  0.58955000  0.37629000  0.95924000  1
  O  O309  1  0.81012000  0.94726000  0.41181000  1
  O  O310  1  0.71709000  0.98099000  0.44493000  1
  O  O311  1  0.71012000  0.33128000  0.09978000  1
  O  O312  1  0.79097000  0.29026000  0.05909000  1
  O  O313  1  0.91104000  0.87630000  0.54077000  1
  O  O314  1  0.69025000  0.44736000  0.91203000  1
  O  O315  1  0.78387000  0.48098000  0.94463000  1
  O  O316  1  0.79114000  0.83111000  0.59985000  1
  O  O317  1  0.70745000  0.79227000  0.55980000  1
  O  O318  1  0.58955000  0.37629000  0.04075000  1
  O  O319  1  0.81012000  0.94726000  0.58819000  1
  O  O320  1  0.71709000  0.98099000  0.55507000  1
  O  O321  1  0.71012000  0.33128000  0.90022000  1
  O  O322  1  0.79097000  0.29026000  0.94091000  1
  O  O323  1  0.91104000  0.87630000  0.45923000  1
  O  O324  1  0.74402000  0.38337000  0.00000000  1
  O  O325  1  0.89856000  0.34689000  0.00000000  1
  O  O326  1  0.89918000  0.42846000  0.00000000  1
  O  O327  1  0.75725000  0.88330000  0.50000000  1
  O  O328  1  0.60167000  0.84707000  0.50000000  1
  O  O329  1  0.60166000  0.92853000  0.50000000  1
  O  O330  1  0.30976000  0.55264000  0.08797000  1
  O  O331  1  0.21614000  0.51902000  0.05537000  1
  O  O332  1  0.20887000  0.16889000  0.40015000  1
  O  O333  1  0.29255000  0.20773000  0.44020000  1
  O  O334  1  0.41046000  0.62371000  0.95924000  1
  O  O335  1  0.18988000  0.05274000  0.41181000  1
  O  O336  1  0.28291000  0.01900000  0.44493000  1
  O  O337  1  0.28989000  0.66872000  0.09978000  1
  O  O338  1  0.20904000  0.70973000  0.05909000  1
  O  O339  1  0.08896000  0.12369000  0.54077000  1
  O  O340  1  0.30976000  0.55264000  0.91203000  1
  O  O341  1  0.21614000  0.51902000  0.94463000  1
  O  O342  1  0.20887000  0.16889000  0.59985000  1
  O  O343  1  0.29255000  0.20773000  0.55980000  1
  O  O344  1  0.41046000  0.62371000  0.04075000  1
  O  O345  1  0.18988000  0.05274000  0.58819000  1
  O  O346  1  0.28291000  0.01900000  0.55507000  1
  O  O347  1  0.28989000  0.66872000  0.90022000  1
  O  O348  1  0.20904000  0.70973000  0.94091000  1
  O  O349  1  0.08896000  0.12369000  0.45923000  1
  O  O350  1  0.25598000  0.61663000  0.00000000  1
  O  O351  1  0.10145000  0.65311000  0.00000000  1
  O  O352  1  0.10083000  0.57154000  0.00000000  1
  O  O353  1  0.24275000  0.11670000  0.50000000  1
  O  O354  1  0.39834000  0.15293000  0.50000000  1
  O  O355  1  0.39834000  0.07147000  0.50000000  1
