# generated using pymatgen
data_H9C18N2O3
_symmetry_space_group_name_H-M   'P 1'
_cell_length_a   24.22350000
_cell_length_b   39.83980000
_cell_length_c   39.83980000
_cell_angle_alpha   90.00000000
_cell_angle_beta   90.00000000
_cell_angle_gamma   90.00000000
_symmetry_Int_Tables_number   1
_chemical_formula_structural   H9C18N2O3
_chemical_formula_sum   'H144 C288 N32 O48'
_cell_volume   38447.77329687
_cell_formula_units_Z   16
loop_
 _symmetry_equiv_pos_site_id
 _symmetry_equiv_pos_as_xyz
  1  'x, y, z'
loop_
 _atom_site_type_symbol
 _atom_site_label
 _atom_site_symmetry_multiplicity
 _atom_site_fract_x
 _atom_site_fract_y
 _atom_site_fract_z
 _atom_site_occupancy
  C  1  1  0.12751500  0.12530100  0.10712200  1
  C  2  1  0.15214500  0.10544900  0.13247000  1
  C  3  1  0.14960200  0.07002300  0.13157100  1
  C  4  1  0.12265800  0.05471700  0.10408800  1
  C  5  1  0.09768600  0.07377800  0.07833300  1
  C  6  1  0.10028700  0.10929200  0.07995600  1
  C  9  1  0.13054900  0.16091600  0.10919400  1
  C  10  1  0.10500000  0.17876400  0.13582100  1
  C  11  1  0.10768000  0.21429900  0.13688800  1
  C  12  1  0.13579300  0.23157300  0.11108700  1
  C  13  1  0.16122200  0.21435900  0.08424400  1
  C  14  1  0.15894400  0.17895100  0.08393700  1
  C  21  1  0.62707600  0.66128900  0.10666900  1
  C  22  1  0.65303400  0.68144500  0.08206600  1
  C  23  1  0.65194500  0.71683400  0.08402200  1
  C  24  1  0.62552200  0.73181900  0.11184600  1
  C  25  1  0.59949200  0.71243100  0.13695600  1
  C  26  1  0.60033800  0.67695200  0.13422800  1
  C  29  1  0.62718000  0.62574900  0.10304800  1
  C  30  1  0.60033400  0.60992600  0.07562500  1
  C  31  1  0.59921500  0.57441300  0.07320700  1
  C  32  1  0.62516700  0.55517100  0.09847700  1
  C  33  1  0.65192200  0.57034200  0.12607000  1
  C  34  1  0.65318700  0.60573600  0.12773800  1
  C  41  1  0.62632500  0.16422200  0.60685300  1
  C  42  1  0.60072400  0.18397600  0.63189400  1
  C  43  1  0.60221200  0.21939000  0.63064600  1
  C  44  1  0.62909900  0.23480700  0.60321900  1
  C  45  1  0.65485900  0.21580400  0.57769900  1
  C  46  1  0.65326200  0.18027600  0.57961400  1
  C  49  1  0.62463600  0.12863900  0.60942100  1
  C  50  1  0.65130300  0.11153800  0.63610300  1
  C  51  1  0.65007000  0.07597900  0.63769200  1
  C  52  1  0.62164800  0.05800900  0.61245300  1
  C  53  1  0.59481400  0.07449400  0.58562300  1
  C  54  1  0.59632500  0.10991800  0.58468500  1
  C  61  1  0.12492800  0.62818100  0.60403000  1
  C  62  1  0.09767700  0.60974200  0.57864500  1
  C  63  1  0.09806200  0.57428800  0.57845000  1
  C  64  1  0.12595900  0.55747800  0.60467500  1
  C  65  1  0.15334300  0.57516400  0.63053300  1
  C  66  1  0.15248000  0.61075900  0.63015900  1
  C  69  1  0.12333000  0.66383900  0.60326400  1
  C  70  1  0.14931600  0.68222500  0.57719000  1
  C  71  1  0.14730600  0.71778800  0.57713200  1
  C  72  1  0.11913500  0.73451500  0.60327700  1
  C  73  1  0.09310300  0.71671600  0.62952900  1
  C  74  1  0.09506800  0.68130200  0.62894900  1
  C  81  1  0.37766200  0.89513100  0.33937700  1
  C  82  1  0.34729400  0.91920000  0.32101100  1
  C  83  1  0.34328600  0.91699800  0.28579000  1
  C  84  1  0.36973900  0.89039700  0.26887700  1
  C  85  1  0.40084100  0.86629500  0.28671600  1
  C  86  1  0.40443600  0.86857200  0.32215300  1
  C  89  1  0.37815100  0.89676200  0.37491900  1
  C  90  1  0.40683200  0.92249300  0.39222900  1
  C  91  1  0.40718200  0.92287200  0.42777400  1
  C  92  1  0.37825200  0.89790400  0.44573800  1
  C  93  1  0.34856600  0.87265800  0.42872500  1
  C  94  1  0.34845300  0.87241000  0.39334300  1
  C  101  1  0.87202400  0.89376300  0.87474400  1
  C  102  1  0.84244200  0.86939500  0.89320300  1
  C  103  1  0.84048400  0.87079300  0.92852700  1
  C  104  1  0.86801200  0.89695500  0.94547700  1
  C  105  1  0.89811400  0.92140100  0.92751000  1
  C  106  1  0.89990200  0.91989000  0.89200100  1
  C  109  1  0.87167200  0.89243000  0.83917400  1
  C  110  1  0.89869600  0.86625500  0.82153300  1
  C  111  1  0.89936600  0.86640800  0.78599100  1
  C  112  1  0.87264800  0.89247000  0.76832800  1
  C  113  1  0.84473200  0.91824100  0.78566200  1
  C  114  1  0.84412400  0.91791700  0.82103600  1
  C  121  1  0.87602400  0.39514000  0.37197800  1
  C  122  1  0.90376400  0.42071500  0.38985200  1
  C  123  1  0.90565900  0.42022100  0.42521100  1
  C  124  1  0.87969800  0.39385000  0.44276400  1
  C  125  1  0.85148200  0.36820200  0.42534400  1
  C  126  1  0.84992400  0.36874200  0.38980900  1
  C  129  1  0.87560400  0.39582300  0.33641300  1
  C  130  1  0.84425000  0.41996000  0.31854300  1
  C  131  1  0.84296200  0.41909600  0.28302100  1
  C  132  1  0.87325400  0.39433200  0.26563200  1
  C  133  1  0.90532600  0.37052700  0.28315700  1
  C  134  1  0.90653600  0.37163600  0.31853800  1
  C  141  1  0.37047400  0.39410400  0.83712100  1
  C  142  1  0.40114500  0.36978100  0.81926200  1
  C  143  1  0.40433000  0.37089800  0.78396800  1
  C  144  1  0.37699200  0.39673700  0.76643500  1
  C  145  1  0.34589900  0.42117200  0.78378000  1
  C  146  1  0.34287600  0.41995200  0.81927700  1
  C  149  1  0.37051500  0.39334300  0.87271100  1
  C  150  1  0.34454800  0.36704000  0.89075100  1
  C  151  1  0.34472600  0.36739200  0.92630000  1
  C  152  1  0.37137300  0.39374700  0.94357000  1
  C  153  1  0.39827400  0.41963100  0.92581900  1
  C  154  1  0.39797500  0.41913600  0.89045200  1
  C  161  1  0.92565800  0.94702600  0.94550000  1
  C  162  1  0.98356400  0.94660900  0.94892100  1
  C  164  1  0.98127400  0.99423300  0.98537500  1
  C  165  1  0.92295800  0.99657400  0.98227000  1
  C  166  1  0.89568700  0.97243800  0.96219700  1
  C  168  1  0.01001800  0.01634900  0.00677100  1
  C  169  1  0.09493500  0.03174100  0.03299300  1
  C  170  1  0.06864800  0.05667500  0.05245500  1
  C  171  1  0.01138500  0.06160800  0.04769500  1
  C  174  1  0.98106700  0.04144700  0.02499900  1
  C  175  1  0.92327600  0.04471200  0.02070200  1
  C  176  1  0.89423600  0.02199500  0.99995300  1
  C  183  1  0.42780500  0.84037600  0.26871600  1
  C  184  1  0.48588300  0.83946800  0.26654800  1
  C  186  1  0.48288600  0.79250200  0.22927200  1
  C  187  1  0.42432300  0.79145300  0.23108000  1
  C  188  1  0.39736900  0.81589300  0.25095200  1
  C  190  1  0.51152800  0.77008500  0.20813500  1
  C  191  1  0.59691200  0.75329200  0.18335300  1
  C  192  1  0.57028000  0.72930100  0.16290600  1
  C  193  1  0.51253000  0.72557100  0.16640300  1
  C  196  1  0.48216800  0.74594800  0.18888100  1
  C  197  1  0.42400500  0.74391700  0.19189700  1
  C  198  1  0.39515500  0.76696200  0.21238400  1
  C  205  1  0.82461000  0.34271300  0.44387800  1
  C  206  1  0.76671400  0.34281600  0.44738500  1
  C  208  1  0.76995000  0.29559200  0.48431800  1
  C  209  1  0.82829800  0.29359100  0.48116500  1
  C  210  1  0.85509800  0.31768800  0.46079800  1
  C  212  1  0.74160600  0.27345800  0.50588600  1
  C  213  1  0.65694800  0.25763200  0.53215700  1
  C  214  1  0.68366200  0.23299200  0.55178000  1
  C  215  1  0.74103600  0.22846000  0.54709400  1
  C  218  1  0.77100000  0.24866800  0.52426800  1
  C  219  1  0.82884300  0.24574400  0.51996500  1
  C  220  1  0.85746800  0.26848500  0.49902900  1
  C  227  1  0.31931800  0.44674500  0.76518000  1
  C  228  1  0.26157900  0.44651100  0.76083800  1
  C  230  1  0.26596800  0.49370000  0.72387000  1
  C  231  1  0.32415600  0.49583900  0.72787800  1
  C  232  1  0.35027100  0.47183800  0.74866100  1
  C  234  1  0.23838900  0.51580600  0.70190200  1
  C  235  1  0.15458800  0.53187600  0.67476300  1
  C  236  1  0.18186400  0.55677500  0.65575700  1
  C  237  1  0.23912900  0.56113800  0.66105800  1
  C  240  1  0.26837500  0.54070800  0.68402800  1
  C  241  1  0.32603000  0.54369000  0.68911800  1
  C  242  1  0.35393100  0.52096700  0.71042600  1
  C  249  1  0.57760200  0.23938800  0.65626400  1
  C  250  1  0.52293800  0.23359900  0.66715500  1
  C  252  1  0.52498800  0.28150300  0.70327200  1
  C  253  1  0.58053900  0.28836000  0.69417300  1
  C  254  1  0.60613600  0.26687400  0.67061600  1
  C  256  1  0.49662600  0.30322000  0.72527800  1
  C  257  1  0.41229700  0.31819700  0.75260500  1
  C  258  1  0.43646800  0.34738200  0.76613100  1
  C  259  1  0.49248400  0.35401300  0.75904000  1
  C  262  1  0.52351000  0.33206300  0.73849600  1
  C  263  1  0.57937900  0.33832800  0.73013700  1
  C  264  1  0.60777300  0.31656600  0.70810600  1
  C  271  1  0.17379000  0.73729800  0.55203100  1
  C  272  1  0.23171200  0.73678400  0.54841900  1
  C  274  1  0.22886800  0.78087000  0.50774900  1
  C  275  1  0.17033300  0.78218100  0.50957400  1
  C  276  1  0.14347500  0.76013500  0.53208900  1
  C  278  1  0.25777700  0.80335300  0.48680800  1
  C  279  1  0.34428000  0.82485900  0.46761100  1
  C  280  1  0.31774500  0.84872500  0.44705300  1
  C  281  1  0.25946200  0.84930200  0.44665400  1
  C  284  1  0.22851100  0.82698000  0.46685500  1
  C  285  1  0.17012700  0.82797700  0.46839900  1
  C  286  1  0.14120600  0.80582000  0.48979200  1
  C  293  1  0.67574400  0.55014900  0.15179000  1
  C  294  1  0.73036000  0.55551300  0.16295800  1
  C  296  1  0.72628600  0.50808500  0.19964500  1
  C  297  1  0.67070300  0.50170200  0.19028900  1
  C  298  1  0.64617800  0.52312500  0.16625000  1
  C  300  1  0.75356500  0.48643600  0.22221300  1
  C  301  1  0.83695100  0.47102900  0.25030100  1
  C  302  1  0.81163600  0.44245000  0.26435900  1
  C  303  1  0.75551000  0.43635300  0.25711200  1
  C  306  1  0.72554400  0.45820000  0.23586300  1
  C  307  1  0.66963800  0.45243200  0.22723200  1
  C  308  1  0.64236300  0.47406600  0.20455000  1
  C  315  1  0.43480800  0.94820300  0.44600700  1
  C  316  1  0.49006500  0.94376800  0.45609700  1
  C  318  1  0.48733600  0.99398400  0.48888300  1
  C  319  1  0.43177400  0.00015000  0.47923200  1
  C  320  1  0.40601000  0.97675000  0.45760100  1
  C  322  1  0.51393600  0.01555600  0.51179500  1
  C  323  1  0.59341200  0.02757900  0.54506800  1
  C  324  1  0.56766300  0.05567900  0.56003600  1
  C  325  1  0.51357900  0.06371400  0.54924300  1
  C  328  1  0.48571800  0.04378600  0.52520100  1
  C  329  1  0.43097400  0.05053800  0.51468200  1
  C  330  1  0.40382200  0.02851600  0.49228700  1
  C  337  1  0.92717700  0.84128000  0.76758000  1
  C  338  1  0.98337200  0.84511000  0.75932700  1
  C  340  1  0.98181400  0.79527100  0.72597300  1
  C  341  1  0.92535000  0.78964600  0.73385200  1
  C  342  1  0.89847600  0.81320200  0.75481600  1
  C  344  1  0.00957200  0.77373700  0.70354800  1
  C  345  1  0.09095300  0.76172400  0.67204200  1
  C  346  1  0.06538600  0.73438700  0.65563900  1
  C  347  1  0.01047200  0.72655000  0.66488100  1
  C  350  1  0.98153000  0.74615600  0.68872100  1
  C  351  1  0.92580600  0.73988900  0.69750900  1
  C  352  1  0.89786000  0.76152500  0.71991900  1
  C  359  1  0.31846600  0.34192700  0.94510600  1
  C  360  1  0.26254900  0.34512200  0.95427300  1
  C  362  1  0.26690500  0.29509000  0.98725200  1
  C  363  1  0.32316800  0.29010700  0.97847400  1
  C  364  1  0.34847100  0.31406800  0.95723700  1
  C  366  1  0.24065900  0.27307600  0.00989000  1
  C  367  1  0.16082900  0.25990900  0.04237300  1
  C  368  1  0.18773000  0.23265600  0.05811000  1
  C  369  1  0.24249500  0.22547900  0.04806300  1
  C  372  1  0.27000200  0.24563300  0.02403600  1
  C  373  1  0.32553700  0.24004400  0.01439100  1
  C  374  1  0.35198400  0.26217000  0.99177800  1
  C  381  1  0.08106600  0.23337800  0.16227300  1
  C  382  1  0.02303700  0.23331200  0.16525000  1
  C  384  1  0.02563100  0.27720300  0.20614200  1
  C  385  1  0.08423600  0.27798100  0.20504400  1
  C  386  1  0.11127900  0.25582000  0.18271900  1
  C  388  1  0.99657900  0.29998900  0.22667900  1
  C  389  1  0.91000000  0.32247700  0.24452700  1
  C  390  1  0.93633200  0.34622700  0.26534000  1
  C  391  1  0.99460600  0.34610400  0.26664300  1
  C  394  1  0.02571000  0.32338500  0.24697100  1
  C  395  1  0.08415800  0.32378200  0.24622300  1
  C  396  1  0.11325700  0.30133700  0.22521700  1
  C  403  1  0.67548800  0.73727600  0.05838300  1
  C  404  1  0.72985800  0.73199500  0.04673500  1
  C  406  1  0.72546600  0.78013700  0.01096700  1
  C  407  1  0.67009600  0.78645000  0.02083600  1
  C  408  1  0.64583900  0.76460000  0.04457500  1
  C  410  1  0.75244600  0.80221800  0.98866300  1
  C  411  1  0.83522500  0.81803900  0.96007100  1
  C  412  1  0.80978700  0.84703500  0.94699100  1
  C  413  1  0.75394500  0.85313500  0.95498000  1
  C  416  1  0.72432900  0.83084600  0.97592400  1
  C  417  1  0.66864800  0.83656400  0.98508800  1
  C  418  1  0.64164900  0.81446500  0.00742100  1
  C  425  1  0.42558600  0.44554200  0.94341900  1
  C  426  1  0.48364400  0.44596600  0.94569800  1
  C  428  1  0.48143300  0.49367800  0.98203100  1
  C  429  1  0.42290500  0.49518400  0.98004300  1
  C  430  1  0.39551100  0.47056200  0.96061800  1
  C  432  1  0.51044600  0.51627300  0.00278500  1
  C  433  1  0.59602800  0.53279900  0.02748200  1
  C  434  1  0.56980600  0.55736800  0.04743700  1
  C  435  1  0.51219000  0.56159000  0.04363800  1
  C  438  1  0.48152000  0.54103500  0.02147500  1
  C  439  1  0.42343600  0.54352700  0.01822000  1
  C  440  1  0.39418900  0.52032200  0.99812600  1
  C  447  1  0.81839800  0.94426000  0.76764000  1
  C  448  1  0.76036800  0.94569300  0.76547600  1
  C  450  1  0.76462200  0.99291200  0.72854600  1
  C  451  1  0.82320000  0.99346200  0.73049100  1
  C  452  1  0.84952100  0.96856000  0.75009500  1
  C  454  1  0.73662900  0.01577000  0.70755200  1
  C  455  1  0.65174600  0.03375800  0.68294300  1
  C  456  1  0.67905000  0.05774500  0.66282000  1
  C  457  1  0.73693200  0.06070800  0.66627400  1
  C  460  1  0.76669500  0.03976400  0.68852300  1
  C  461  1  0.82489400  0.04121500  0.69161300  1
  C  462  1  0.85301000  0.01812300  0.71240600  1
  C  469  1  0.17342100  0.04985600  0.15741200  1
  C  470  1  0.22767700  0.05559700  0.16909100  1
  C  472  1  0.22486300  0.00711400  0.20445100  1
  C  473  1  0.16966500  0.00027900  0.19458500  1
  C  474  1  0.14463500  0.02212100  0.17112100  1
  C  476  1  0.25266700  0.98509900  0.22644700  1
  C  477  1  0.33598700  0.97005300  0.25489600  1
  C  478  1  0.31172600  0.94046700  0.26746900  1
  C  479  1  0.25616100  0.93367300  0.25929900  1
  C  482  1  0.22564800  0.95589700  0.23874800  1
  C  483  1  0.17013200  0.94961100  0.22957200  1
  C  484  1  0.14223800  0.97173200  0.20766400  1
  C  491  1  0.93312200  0.44576800  0.44319500  1
  C  492  1  0.98946400  0.44248500  0.45133800  1
  C  494  1  0.98717700  0.49270600  0.48413200  1
  C  495  1  0.93048000  0.49772400  0.47643800  1
  C  496  1  0.90393400  0.47372800  0.45581100  1
  C  498  1  0.01472000  0.51482500  0.50611000  1
  C  499  1  0.09635200  0.52829400  0.53684000  1
  C  500  1  0.07035200  0.55566100  0.55294700  1
  C  501  1  0.01498400  0.56265100  0.54399700  1
  C  504  1  0.98617800  0.54235000  0.52068100  1
  C  505  1  0.93015200  0.54793500  0.51214900  1
  C  506  1  0.90245200  0.52573800  0.49018400  1
  H  7  1  0.17154400  0.11701600  0.15218100  1
  H  8  1  0.12067900  0.02904100  0.10293800  1
  H  15  1  0.13731600  0.25729100  0.11169100  1
  H  16  1  0.17706700  0.16613800  0.06454300  1
  H  19  1  0.09840700  0.12723100  0.03584800  1
  H  20  1  0.09910500  0.16135700  0.17997300  1
  H  27  1  0.67171900  0.67018500  0.06192300  1
  H  28  1  0.62432300  0.75748900  0.11354700  1
  H  35  1  0.62376600  0.52949100  0.09704700  1
  H  36  1  0.67203900  0.61711700  0.14775800  1
  H  39  1  0.59647400  0.65760700  0.17767400  1
  H  40  1  0.59668600  0.62900000  0.03206600  1
  H  47  1  0.58150500  0.17237300  0.65165500  1
  H  48  1  0.63043600  0.26049600  0.60196100  1
  H  55  1  0.62102000  0.03230200  0.61343700  1
  H  56  1  0.57749400  0.12229200  0.56525400  1
  H  59  1  0.65565200  0.16175000  0.53577900  1
  H  60  1  0.65715000  0.12967400  0.67996600  1
  H  67  1  0.07763400  0.62235500  0.55982500  1
  H  68  1  0.12634800  0.53175300  0.60497100  1
  H  75  1  0.11767800  0.76023800  0.60322400  1
  H  76  1  0.07637100  0.66802600  0.64782500  1
  H  79  1  0.15615000  0.62750900  0.67467500  1
  H  80  1  0.15408900  0.66568400  0.53266600  1
  H  87  1  0.32699600  0.93808000  0.33340300  1
  H  88  1  0.36693200  0.88885300  0.24323300  1
  H  95  1  0.37785900  0.89848900  0.47147900  1
  H  96  1  0.32679700  0.85413100  0.38088800  1
  H  99  1  0.41152800  0.82542600  0.34175100  1
  H  100  1  0.41252400  0.96585400  0.37314000  1
  H  107  1  0.82144800  0.85077800  0.88084100  1
  H  108  1  0.86647600  0.89803500  0.97118800  1
  H  115  1  0.87330800  0.89263100  0.74258500  1
  H  116  1  0.82420300  0.93677500  0.83369500  1
  H  119  1  0.90719200  0.96344200  0.87333100  1
  H  120  1  0.90254800  0.82231100  0.83946300  1
  H  127  1  0.92300800  0.43972600  0.37705000  1
  H  128  1  0.88066900  0.39360700  0.46850400  1
  H  135  1  0.87246600  0.39385000  0.23989300  1
  H  136  1  0.92946400  0.35425700  0.33142800  1
  H  139  1  0.84603300  0.32482400  0.37171600  1
  H  140  1  0.83492000  0.46367500  0.33624400  1
  H  147  1  0.42223600  0.35149800  0.83205300  1
  H  148  1  0.37962500  0.39768300  0.74075200  1
  H  155  1  0.37165400  0.39395100  0.96931500  1
  H  156  1  0.41759400  0.43792400  0.87752000  1
  H  159  1  0.33474100  0.46367200  0.83742400  1
  H  160  1  0.34163900  0.32290600  0.87321000  1
  H  167  1  0.85356300  0.97292700  0.96005800  1
  H  172  1  0.00694300  0.92842400  0.93769600  1
  H  177  1  0.99116200  0.07884500  0.06226300  1
  H  178  1  0.13619600  0.02697800  0.03555100  1
  H  180  1  0.89426500  0.08859100  0.02375800  1
  H  182  1  0.82217200  0.01194000  0.01510000  1
  H  189  1  0.35514600  0.81628200  0.25220500  1
  H  194  1  0.50970700  0.85694000  0.27853100  1
  H  199  1  0.49212500  0.70906800  0.15109600  1
  H  200  1  0.63850800  0.75728600  0.18160500  1
  H  202  1  0.39280300  0.70073200  0.18733800  1
  H  204  1  0.32471200  0.77882700  0.19578800  1
  H  211  1  0.89721400  0.31743400  0.45857700  1
  H  216  1  0.74298000  0.36073500  0.43601200  1
  H  221  1  0.76154900  0.21142300  0.56174500  1
  H  222  1  0.61559200  0.26212200  0.53465700  1
  H  224  1  0.85835200  0.20201200  0.52337600  1
  H  226  1  0.92940600  0.27899000  0.51408400  1
  H  233  1  0.39230000  0.47217400  0.75144300  1
  H  238  1  0.23752900  0.42854700  0.77188700  1
  H  243  1  0.26004300  0.57846500  0.64696900  1
  H  244  1  0.11323200  0.52758800  0.67194200  1
  H  246  1  0.35588400  0.58738800  0.68640200  1
  H  248  1  0.42649600  0.51048700  0.69650500  1
  H  255  1  0.64605000  0.27144500  0.66351300  1
  H  260  1  0.49983600  0.21450200  0.65734600  1
  H  265  1  0.51019200  0.37547200  0.76823700  1
  H  266  1  0.37161300  0.31269000  0.75665600  1
  H  268  1  0.62302200  0.35963600  0.76314400  1
  H  270  1  0.68452400  0.31276500  0.71552400  1
  H  277  1  0.10141700  0.76104400  0.53454400  1
  H  282  1  0.25569300  0.72132200  0.56280200  1
  H  287  1  0.23961300  0.86696000  0.43239200  1
  H  288  1  0.38638700  0.82352900  0.46881500  1
  H  290  1  0.13668400  0.87051500  0.46304500  1
  H  292  1  0.07559500  0.82366900  0.50824600  1
  H  299  1  0.60623700  0.51892600  0.15896800  1
  H  304  1  0.75413400  0.57426500  0.15307700  1
  H  309  1  0.73696600  0.41533400  0.26670300  1
  H  310  1  0.87771700  0.47618200  0.25451200  1
  H  312  1  0.62449600  0.43237400  0.26027500  1
  H  314  1  0.56562000  0.47894100  0.21136800  1
  H  321  1  0.36545900  0.97984200  0.45101200  1
  H  326  1  0.51215900  0.92313300  0.44885300  1
  H  331  1  0.49351200  0.08358300  0.56003600  1
  H  332  1  0.63273600  0.02073500  0.55137400  1
  H  334  1  0.40998900  0.09610900  0.51206400  1
  H  336  1  0.32710800  0.02447600  0.49992300  1
  H  343  1  0.85742300  0.81041900  0.76029300  1
  H  348  1  0.00556000  0.86531600  0.76759700  1
  H  353  1  0.99055800  0.70731600  0.65289500  1
  H  354  1  0.13071900  0.76844800  0.66666667  1
  H  356  1  0.90339900  0.69449200  0.69795300  1
  H  358  1  0.84254200  0.74138700  0.74656300  1
  H  365  1  0.38934400  0.31173600  0.95109200  1
  H  370  1  0.23945200  0.36514300  0.94647900  1
  H  375  1  0.26326400  0.20623000  0.05947600  1
  H  376  1  0.12107500  0.26615400  0.04831200  1
  H  378  1  0.34928400  0.19491100  0.01321200  1
  H  380  1  0.40679300  0.24276100  0.96421700  1
  H  387  1  0.15340300  0.25648200  0.18063800  1
  H  392  1  0.99912400  0.21828000  0.15037800  1
  H  397  1  0.01440900  0.36364700  0.28106800  1
  H  398  1  0.86792300  0.32152000  0.24273000  1
  H  400  1  0.11851200  0.36600400  0.25195200  1
  H  402  1  0.17990600  0.31864600  0.20763600  1
  H  409  1  0.60606200  0.76876900  0.05219400  1
  H  414  1  0.75365600  0.71297800  0.05607600  1
  H  419  1  0.73529800  0.87441500  0.94605700  1
  H  420  1  0.87584700  0.81290400  0.95535900  1
  H  422  1  0.62320200  0.85754000  0.95277400  1
  H  424  1  0.56475700  0.80992200  0.00100700  1
  H  431  1  0.35329100  0.47045200  0.95926800  1
  H  436  1  0.50713100  0.42811200  0.93403100  1
  H  441  1  0.49202400  0.57847500  0.05864000  1
  H  442  1  0.63751600  0.52848700  0.02940300  1
  H  444  1  0.39334900  0.58710700  0.02168600  1
  H  446  1  0.32327900  0.50951300  0.01470000  1
  H  453  1  0.89172600  0.96780700  0.75144500  1
  H  458  1  0.73612300  0.92838600  0.77738900  1
  H  463  1  0.75779600  0.07727100  0.65126600  1
  H  464  1  0.60999400  0.03037600  0.68130700  1
  H  466  1  0.85725000  0.08410400  0.68710200  1
  H  468  1  0.91875000  0.03387900  0.73244100  1
  H  475  1  0.10497500  0.01754900  0.16352300  1
  H  480  1  0.25108200  0.07478400  0.15974400  1
  H  485  1  0.23830400  0.91202600  0.26792800  1
  H  486  1  0.37635500  0.97574400  0.25977300  1
  H  488  1  0.12553800  0.92753000  0.26159000  1
  H  490  1  0.06523400  0.97511400  0.21428800  1
  H  497  1  0.86274400  0.47608700  0.45051200  1
  H  502  1  0.01202700  0.42237200  0.44321000  1
  H  507  1  0.99471100  0.58188800  0.55575400  1
  H  508  1  0.13643700  0.52212400  0.54196800  1
  H  510  1  0.90645000  0.59308600  0.51115800  1
  H  512  1  0.84628700  0.54503600  0.46356200  1
  N  163  1  0.00882900  0.96962200  0.96867300  1
  N  173  1  0.06527500  0.01272600  0.01137100  1
  N  185  1  0.51089200  0.81621200  0.24696000  1
  N  195  1  0.56719000  0.77257500  0.20471100  1
  N  207  1  0.74191500  0.31986100  0.46741700  1
  N  217  1  0.68627900  0.27672800  0.51044200  1
  N  229  1  0.23742900  0.46940000  0.74042600  1
  N  239  1  0.18322100  0.51258100  0.69665300  1
  N  251  1  0.49885800  0.25460500  0.68954200  1
  N  261  1  0.44267500  0.29756200  0.73286800  1
  N  273  1  0.25677400  0.75839000  0.52703400  1
  N  283  1  0.31390600  0.80328300  0.48630300  1
  N  295  1  0.75344500  0.53451400  0.18573500  1
  N  305  1  0.80755600  0.49161700  0.22999200  1
  N  317  1  0.51388000  0.96635800  0.47696600  1
  N  327  1  0.56622000  0.00882700  0.52208100  1
  N  339  1  0.00818200  0.82246500  0.73896500  1
  N  349  1  0.06270700  0.78016800  0.69479600  1
  N  361  1  0.23924600  0.32208800  0.97485700  1
  N  371  1  0.18770500  0.27887200  0.01943800  1
  N  383  1  0.99782000  0.25506200  0.18642300  1
  N  393  1  0.94046600  0.30050100  0.22637600  1
  N  405  1  0.75266700  0.75335800  0.02417300  1
  N  415  1  0.80620000  0.79708000  0.98022600  1
  N  427  1  0.50903800  0.46939500  0.96488800  1
  N  437  1  0.56602000  0.51337900  0.00640200  1
  N  449  1  0.73598500  0.96930300  0.74600800  1
  N  459  1  0.68090400  0.01391300  0.70408300  1
  N  471  1  0.25119300  0.03429700  0.19144000  1
  N  481  1  0.30619300  0.99087400  0.23501100  1
  N  493  1  0.01399500  0.46558200  0.47133300  1
  N  503  1  0.06820600  0.50913900  0.51460900  1
  O  17  1  0.07493000  0.12831300  0.05596700  1
  O  18  1  0.07595800  0.16166000  0.15968900  1
  O  37  1  0.57335600  0.65772000  0.15737400  1
  O  38  1  0.57350000  0.62905200  0.05233600  1
  O  57  1  0.67927800  0.16130200  0.55585700  1
  O  58  1  0.67993800  0.12949400  0.65953200  1
  O  77  1  0.17940000  0.62855300  0.65445900  1
  O  78  1  0.17772000  0.66554600  0.55274700  1
  O  97  1  0.43463500  0.84563500  0.33979600  1
  O  98  1  0.43621200  0.94586400  0.37470100  1
  O  117  1  0.92982400  0.94296700  0.87436200  1
  O  118  1  0.92680600  0.84209600  0.83877700  1
  O  137  1  0.82163300  0.34453300  0.37271000  1
  O  138  1  0.81311200  0.44286400  0.33557400  1
  O  157  1  0.31228700  0.44313000  0.83634500  1
  O  158  1  0.31685200  0.34244700  0.87387800  1
  O  179  1  0.89414300  0.06835900  0.03790300  1
  O  181  1  0.83849100  0.02538000  0.99692300  1
  O  201  1  0.39447500  0.72125400  0.17365500  1
  O  203  1  0.33909600  0.76481600  0.21413900  1
  O  223  1  0.85840300  0.22239500  0.53730500  1
  O  225  1  0.91325300  0.26540800  0.49595900  1
  O  245  1  0.35613300  0.56714400  0.67227300  1
  O  247  1  0.40956400  0.52414700  0.71430900  1
  O  267  1  0.60594400  0.36615400  0.74171900  1
  O  269  1  0.66058500  0.32430200  0.69926100  1
  O  289  1  0.14078000  0.85009800  0.44937800  1
  O  291  1  0.08503600  0.80738400  0.49059500  1
  O  311  1  0.64197900  0.42516800  0.23919200  1
  O  313  1  0.58946400  0.46679200  0.19550500  1
  O  333  1  0.40245100  0.07718900  0.52724200  1
  O  335  1  0.35083300  0.03542100  0.48314000  1
  O  355  1  0.89729500  0.71404500  0.68335000  1
  O  357  1  0.84350600  0.75571200  0.72646800  1
  O  377  1  0.35532800  0.21439600  0.02791800  1
  O  379  1  0.40621700  0.25698900  0.98438800  1
  O  399  1  0.11339300  0.34565700  0.26559400  1
  O  401  1  0.16947500  0.30239100  0.22511000  1
  O  421  1  0.64092800  0.86416200  0.97397100  1
  O  423  1  0.58896200  0.82164400  0.01698700  1
  O  443  1  0.39433200  0.56688300  0.03583200  1
  O  445  1  0.33821600  0.52296700  0.99609800  1
  O  465  1  0.85510200  0.06359300  0.67342300  1
  O  467  1  0.90918600  0.01917600  0.71347800  1
  O  487  1  0.14344900  0.92147900  0.24028000  1
  O  489  1  0.08978000  0.96401200  0.19805700  1
  O  509  1  0.90117000  0.57369800  0.52610200  1
  O  511  1  0.84787400  0.53096700  0.48382600  1
