# generated using pymatgen
data_H36C55(N3O2)4
_symmetry_space_group_name_H-M   'P 1'
_cell_length_a   43.11420000
_cell_length_b   43.11420000
_cell_length_c   43.11420000
_cell_angle_alpha   90.00000000
_cell_angle_beta   90.00000000
_cell_angle_gamma   90.00000000
_symmetry_Int_Tables_number   1
_chemical_formula_structural   H36C55(N3O2)4
_chemical_formula_sum   'H216 C330 N72 O48'
_cell_volume   80142.15126092
_cell_formula_units_Z   6
loop_
 _symmetry_equiv_pos_site_id
 _symmetry_equiv_pos_as_xyz
  1  'x, y, z'
loop_
 _atom_site_type_symbol
 _atom_site_label
 _atom_site_symmetry_multiplicity
 _atom_site_fract_x
 _atom_site_fract_y
 _atom_site_fract_z
 _atom_site_occupancy
  H  25  1  0.07143400  0.60785300  0.50260200  1
  H  26  1  0.09671600  0.55896900  0.50081600  1
  H  27  1  0.09703600  0.44614000  0.50334700  1
  H  28  1  0.07186900  0.39710300  0.50528300  1
  H  29  1  0.98480000  0.44125300  0.50792700  1
  H  30  1  0.98471700  0.56364900  0.50881100  1
  H  31  1  0.02367300  0.50044000  0.56735100  1
  H  32  1  0.93660700  0.50320700  0.61149900  1
  H  33  1  0.91145300  0.50539500  0.56246600  1
  H  34  1  0.02374500  0.49964900  0.44495100  1
  H  35  1  0.91176200  0.50791600  0.44964000  1
  H  36  1  0.93702700  0.50594900  0.40075200  1
  H  39  1  0.08719000  0.50227500  0.48173400  1
  H  40  1  0.08983300  0.50281300  0.52281400  1
  H  42  1  0.91857400  0.48601600  0.50579600  1
  H  43  1  0.92138300  0.52708600  0.50633900  1
  H  72  1  0.50865300  0.07208900  0.61044100  1
  H  73  1  0.50915900  0.09646500  0.56107500  1
  H  74  1  0.51247100  0.09509800  0.44857400  1
  H  75  1  0.51272600  0.06967200  0.39989600  1
  H  76  1  0.50432100  0.98314200  0.44423400  1
  H  77  1  0.50498900  0.98442700  0.56769000  1
  H  78  1  0.56692900  0.02156400  0.50323800  1
  H  79  1  0.60973400  0.93395600  0.50757300  1
  H  80  1  0.56030000  0.90959800  0.51043200  1
  H  81  1  0.44470700  0.02375500  0.50211000  1
  H  82  1  0.44740900  0.91188900  0.51294000  1
  H  83  1  0.39898700  0.93792500  0.51018400  1
  H  86  1  0.48875000  0.08831000  0.50451600  1
  H  87  1  0.52985500  0.08629800  0.50523000  1
  H  89  1  0.50368300  0.91718000  0.49107900  1
  H  90  1  0.50425400  0.92098600  0.53206800  1
  H  119  1  0.61035500  0.50887400  0.07215700  1
  H  120  1  0.56098200  0.50941900  0.09651800  1
  H  121  1  0.44848100  0.51271000  0.09512800  1
  H  122  1  0.39980800  0.51292100  0.06969500  1
  H  123  1  0.44416700  0.50458100  0.98316700  1
  H  124  1  0.56762900  0.50524400  0.98448200  1
  H  125  1  0.50297800  0.56722100  0.02159800  1
  H  126  1  0.50748000  0.61003800  0.93400700  1
  H  127  1  0.51055300  0.56061300  0.90965600  1
  H  128  1  0.50186900  0.44500200  0.02376100  1
  H  129  1  0.51305100  0.44772000  0.91192900  1
  H  130  1  0.51009100  0.39929000  0.93793900  1
  H  133  1  0.50443000  0.48903800  0.08835400  1
  H  134  1  0.50513700  0.53014300  0.08633000  1
  H  136  1  0.49126900  0.50399400  0.91714700  1
  H  137  1  0.53224200  0.50456900  0.92113000  1
  H  166  1  0.57021300  0.10897100  0.00042200  1
  H  167  1  0.59545500  0.06013700  0.00030300  1
  H  168  1  0.59544600  0.94739500  0.00619600  1
  H  169  1  0.57013700  0.89872700  0.00942300  1
  H  170  1  0.48313300  0.94280700  0.00568000  1
  H  171  1  0.48329100  0.06491000  0.00506100  1
  H  172  1  0.52211300  0.00255100  0.06576100  1
  H  173  1  0.43478200  0.00599100  0.10927000  1
  H  174  1  0.41000200  0.00704100  0.06009800  1
  H  175  1  0.52235900  0.00178500  0.94224300  1
  H  176  1  0.41025400  0.00642100  0.94745800  1
  H  177  1  0.43517900  0.00480000  0.89840400  1
  H  180  1  0.58653300  0.00315800  0.98188200  1
  H  181  1  0.58777100  0.00429600  0.02302000  1
  H  183  1  0.41773000  0.98613200  0.00388900  1
  H  184  1  0.41965300  0.02724300  0.00367300  1
  H  213  1  0.00032200  0.57006200  0.10948100  1
  H  214  1  0.00022700  0.59529500  0.06063800  1
  H  215  1  0.00612500  0.59524900  0.94787500  1
  H  216  1  0.00955200  0.56992100  0.89923000  1
  H  217  1  0.00586900  0.48293600  0.94335400  1
  H  218  1  0.00496100  0.48313300  0.06543300  1
  H  219  1  0.06572000  0.52194800  0.00303800  1
  H  220  1  0.10924400  0.43463100  0.00661700  1
  H  221  1  0.06007300  0.40984600  0.00772900  1
  H  222  1  0.94221800  0.52219000  0.00215600  1
  H  223  1  0.94742000  0.41009200  0.00695200  1
  H  224  1  0.89837200  0.43501600  0.00517700  1
  H  227  1  0.98177100  0.58632800  0.00363900  1
  H  228  1  0.02290500  0.58762700  0.00480000  1
  H  230  1  0.00388200  0.41752600  0.98677900  1
  H  231  1  0.00361300  0.41953400  0.02788600  1
  H  260  1  0.10880100  0.00120500  0.57138700  1
  H  261  1  0.06007400  0.00105900  0.59681200  1
  H  262  1  0.94727200  0.00635100  0.59726000  1
  H  263  1  0.89848500  0.00932800  0.57212900  1
  H  264  1  0.94225500  0.00574700  0.48497900  1
  H  265  1  0.06439500  0.00579500  0.48462200  1
  H  266  1  0.00188300  0.06552500  0.52384800  1
  H  267  1  0.99837300  0.10932500  0.43671000  1
  H  268  1  0.00146300  0.06054900  0.41156500  1
  H  269  1  0.00214300  0.94339900  0.52418000  1
  H  270  1  0.00682100  0.94774100  0.41199200  1
  H  271  1  0.00676900  0.89901000  0.43741200  1
  H  274  1  0.00318400  0.98241600  0.58815200  1
  H  275  1  0.00406500  0.02355700  0.58932500  1
  H  277  1  0.98427800  0.00373100  0.41947200  1
  H  278  1  0.02541900  0.00464900  0.42067100  1
  H  289  1  0.01942200  0.52675000  0.34092000  1
  H  296  1  0.96339700  0.50666100  0.23396000  1
  H  297  1  0.05831000  0.48581900  0.23524300  1
  H  298  1  0.98656800  0.44802600  0.26791600  1
  H  300  1  0.93920500  0.52234000  0.18774600  1
  H  301  1  0.95757300  0.52554300  0.15432800  1
  H  305  1  0.03941500  0.55672100  0.29953700  1
  H  306  1  0.03679400  0.54583600  0.26281600  1
  H  313  1  0.03145700  0.53843500  0.14358700  1
  H  314  1  0.97026200  0.46675800  0.37255200  1
  H  321  1  0.98976400  0.53786700  0.67217000  1
  H  328  1  0.05600300  0.51355700  0.77657700  1
  H  329  1  0.96340800  0.48462900  0.77050400  1
  H  330  1  0.04130800  0.45933300  0.73368800  1
  H  332  1  0.07716800  0.52816000  0.82466700  1
  H  333  1  0.05725700  0.52805300  0.85736400  1
  H  337  1  0.97104100  0.56155000  0.71767300  1
  H  338  1  0.97884900  0.54835300  0.75282100  1
  H  345  1  0.98242500  0.53691300  0.86336000  1
  H  346  1  0.03856500  0.49410100  0.62605300  1
  H  353  1  0.33964900  0.01907200  0.52988300  1
  H  360  1  0.23311800  0.96419000  0.50798300  1
  H  361  1  0.23450000  0.05918100  0.48751700  1
  H  362  1  0.26770000  0.98866400  0.44921800  1
  H  364  1  0.18681900  0.93993800  0.52333300  1
  H  365  1  0.15338500  0.95829200  0.52643600  1
  H  369  1  0.29789000  0.03846000  0.55975000  1
  H  370  1  0.26132700  0.03628700  0.54824400  1
  H  377  1  0.14279200  0.03223400  0.53970100  1
  H  378  1  0.37155900  0.97046400  0.47003700  1
  H  385  1  0.67153700  0.98728900  0.54030700  1
  H  392  1  0.77516400  0.05456400  0.51570700  1
  H  393  1  0.77003100  0.96186300  0.48691600  1
  H  394  1  0.73236400  0.03936400  0.46158500  1
  H  396  1  0.82305800  0.07624500  0.53023600  1
  H  397  1  0.85594900  0.05664900  0.53016100  1
  H  401  1  0.71726200  0.96907000  0.56392500  1
  H  402  1  0.75230200  0.97722300  0.55065400  1
  H  409  1  0.86263600  0.98191700  0.53928400  1
  H  410  1  0.62494000  0.03568200  0.49639100  1
  H  417  1  0.52923100  0.33989200  0.01917000  1
  H  424  1  0.50733100  0.23362400  0.96391400  1
  H  425  1  0.48645400  0.23470000  0.05882300  1
  H  426  1  0.44852000  0.26821100  0.98825800  1
  H  428  1  0.52271100  0.18738800  0.93956200  1
  H  429  1  0.52569400  0.15388600  0.95781100  1
  H  433  1  0.55890800  0.29802000  0.03860100  1
  H  434  1  0.54731800  0.26149100  0.03630400  1
  H  441  1  0.53859900  0.14295800  0.03172200  1
  H  442  1  0.46963400  0.37206000  0.97039900  1
  H  449  1  0.53950600  0.67209600  0.98721200  1
  H  456  1  0.51442200  0.77556300  0.05452600  1
  H  457  1  0.48537800  0.77024500  0.96191900  1
  H  458  1  0.46050000  0.73240800  0.03945200  1
  H  460  1  0.52871900  0.82353600  0.07616300  1
  H  461  1  0.52835900  0.85643200  0.05658800  1
  H  465  1  0.56278200  0.71797600  0.96893800  1
  H  466  1  0.54929700  0.75292800  0.97712100  1
  H  473  1  0.53718200  0.86312100  0.98175700  1
  H  474  1  0.49588500  0.62521100  0.03568500  1
  H  481  1  0.54518000  0.02246400  0.67281300  1
  H  488  1  0.52014600  0.94874900  0.77738400  1
  H  489  1  0.50412800  0.04453900  0.77649800  1
  H  490  1  0.47297400  0.96544000  0.73689800  1
  H  492  1  0.52540000  0.92228500  0.82505200  1
  H  493  1  0.52406600  0.93990600  0.85911300  1
  H  497  1  0.57083500  0.04056100  0.71741500  1
  H  498  1  0.56063400  0.03054100  0.75297200  1
  H  505  1  0.53667200  0.99529300  0.88159300  1
  H  506  1  0.50244400  0.97070000  0.62833100  1
  H  513  1  0.54081000  0.99481300  0.33803500  1
  H  520  1  0.50799700  0.04920900  0.22970200  1
  H  521  1  0.51040900  0.95211500  0.23143500  1
  H  522  1  0.45884400  0.01737400  0.26479700  1
  H  524  1  0.51149700  0.07595700  0.18199800  1
  H  525  1  0.51522200  0.05818700  0.14819700  1
  H  529  1  0.57364400  0.97998700  0.29655400  1
  H  530  1  0.56295300  0.98208600  0.25974300  1
  H  537  1  0.53544700  0.99215000  0.12629900  1
  H  538  1  0.47739700  0.03810700  0.36829400  1
  H  545  1  0.01856000  0.33671000  0.46988900  1
  H  552  1  0.95217300  0.23226200  0.49368900  1
  H  553  1  0.04488300  0.23795600  0.52233300  1
  H  554  1  0.96705900  0.27472800  0.54808600  1
  H  556  1  0.93085500  0.18430000  0.47886500  1
  H  557  1  0.95070500  0.15156500  0.47869300  1
  H  561  1  0.03718100  0.29134200  0.44586200  1
  H  562  1  0.02934800  0.25611700  0.45883200  1
  H  569  1  0.02544700  0.14534200  0.46960600  1
  H  570  1  0.96985600  0.38257900  0.51390700  1
  H  577  1  0.98904200  0.66757300  0.48125900  1
  H  584  1  0.04457200  0.77496700  0.50123100  1
  H  585  1  0.94959800  0.77311100  0.52175100  1
  H  586  1  0.02148400  0.74095700  0.55980100  1
  H  588  1  0.06852100  0.82132100  0.48558000  1
  H  589  1  0.04995800  0.85462000  0.48229600  1
  H  593  1  0.96897200  0.70879200  0.45110400  1
  H  594  1  0.97144700  0.74555900  0.46187100  1
  H  601  1  0.97600000  0.86482400  0.46912100  1
  H  602  1  0.03820000  0.63631900  0.54142500  1
  H  609  1  0.33790500  0.54094700  0.99493600  1
  H  616  1  0.22970600  0.50790700  0.04940100  1
  H  617  1  0.23128900  0.51047200  0.95230700  1
  H  618  1  0.26480600  0.45883200  0.01741600  1
  H  620  1  0.18204400  0.51133000  0.07622800  1
  H  621  1  0.14821200  0.51505000  0.05851900  1
  H  625  1  0.29636400  0.57375000  0.98021900  1
  H  626  1  0.25956900  0.56300400  0.98233900  1
  H  633  1  0.12617800  0.53524600  0.99238500  1
  H  634  1  0.36828900  0.47751300  0.03809000  1
  H  641  1  0.67280300  0.54524000  0.02263200  1
  H  648  1  0.77740900  0.52014800  0.94897400  1
  H  649  1  0.77641700  0.50403500  0.04474900  1
  H  650  1  0.73684000  0.47301600  0.96557700  1
  H  652  1  0.82510800  0.52538800  0.92256300  1
  H  653  1  0.85915000  0.52400600  0.94021600  1
  H  657  1  0.71742200  0.57081600  0.04079300  1
  H  658  1  0.75297400  0.56058100  0.03079000  1
  H  665  1  0.88157200  0.53656300  0.99591000  1
  H  666  1  0.62830300  0.50257700  0.97078900  1
  C  1  1  0.98558600  0.50259500  0.47615800  1
  C  2  1  0.95270200  0.50459000  0.47692400  1
  C  3  1  0.95258100  0.50391000  0.53529000  1
  C  4  1  0.98550500  0.50245100  0.53612000  1
  C  5  1  0.00001800  0.50129400  0.56589400  1
  C  6  1  0.98245300  0.50131900  0.59369300  1
  C  7  1  0.94995800  0.50293100  0.59182100  1
  C  8  1  0.93518300  0.50421400  0.56301600  1
  C  9  1  0.93544500  0.50600000  0.44916300  1
  C  10  1  0.95029900  0.50470300  0.42040900  1
  C  11  1  0.98278000  0.50122900  0.41844000  1
  C  12  1  0.00011800  0.50123100  0.44636500  1
  C  13  1  0.02288700  0.53244400  0.50601400  1
  C  14  1  0.05577600  0.53168300  0.50409800  1
  C  15  1  0.05590500  0.47331700  0.50477300  1
  C  16  1  0.02297500  0.47248200  0.50613000  1
  C  17  1  0.07330400  0.44559100  0.50445800  1
  C  18  1  0.05852100  0.41678100  0.50559400  1
  C  19  1  0.02601900  0.41490900  0.50707400  1
  C  20  1  0.00845700  0.44271000  0.50716200  1
  C  21  1  0.00834700  0.56223900  0.50729200  1
  C  22  1  0.02567400  0.59017200  0.50728700  1
  C  23  1  0.05816400  0.58819800  0.50387300  1
  C  24  1  0.07302900  0.55944600  0.50268600  1
  C  37  1  0.00423900  0.50243500  0.50616500  1
  C  38  1  0.07367100  0.50252300  0.50322600  1
  C  41  1  0.93481700  0.50553800  0.50608600  1
  C  48  1  0.47518400  0.98512000  0.50605100  1
  C  49  1  0.47539500  0.95227000  0.50876700  1
  C  50  1  0.53375000  0.95109200  0.50814800  1
  C  51  1  0.53509000  0.98394900  0.50601900  1
  C  52  1  0.56509200  0.99796100  0.50454100  1
  C  53  1  0.59262600  0.98001100  0.50480600  1
  C  54  1  0.59025500  0.94758700  0.50708600  1
  C  55  1  0.56121600  0.93328600  0.50876500  1
  C  56  1  0.44734400  0.93552900  0.51047900  1
  C  57  1  0.41886400  0.95083700  0.50871400  1
  C  58  1  0.41745200  0.98325800  0.50443700  1
  C  59  1  0.44567200  0.00014300  0.50422300  1
  C  60  1  0.50597200  0.02210100  0.53570000  1
  C  61  1  0.50730100  0.05500000  0.53445900  1
  C  62  1  0.50817100  0.05433700  0.47595700  1
  C  63  1  0.50617900  0.02145800  0.47532100  1
  C  64  1  0.51043000  0.07142100  0.44815600  1
  C  65  1  0.51039800  0.05641300  0.41945600  1
  C  66  1  0.50700000  0.02390600  0.41732200  1
  C  67  1  0.50573600  0.00678900  0.44548400  1
  C  68  1  0.50564700  0.00805100  0.56586000  1
  C  69  1  0.50662200  0.02590700  0.59358400  1
  C  70  1  0.50780200  0.05838200  0.59102300  1
  C  71  1  0.50806700  0.07274100  0.56196800  1
  C  84  1  0.50550400  0.00320700  0.50570300  1
  C  85  1  0.50856800  0.07244400  0.50502400  1
  C  88  1  0.50424200  0.93388900  0.51019800  1
  C  95  1  0.50598800  0.47548300  0.98514800  1
  C  96  1  0.50880400  0.47569900  0.95230500  1
  C  97  1  0.50818500  0.53405300  0.95114100  1
  C  98  1  0.50595400  0.53538700  0.98399300  1
  C  99  1  0.50437200  0.56538600  0.99800000  1
  C  100  1  0.50461300  0.59292300  0.98005000  1
  C  101  1  0.50701400  0.59055700  0.94763600  1
  C  102  1  0.50881100  0.56152200  0.93333900  1
  C  103  1  0.51052500  0.44765000  0.93556100  1
  C  104  1  0.50865300  0.41916800  0.95085600  1
  C  105  1  0.50426000  0.41776000  0.98326000  1
  C  106  1  0.50407000  0.44597100  0.00015500  1
  C  107  1  0.53562600  0.50625700  0.02214500  1
  C  108  1  0.53437800  0.50758400  0.05504400  1
  C  109  1  0.47587500  0.50844000  0.05437000  1
  C  110  1  0.47524700  0.50645900  0.02149000  1
  C  111  1  0.44807000  0.51067600  0.07145100  1
  C  112  1  0.41937200  0.51062500  0.05643800  1
  C  113  1  0.41725000  0.50723200  0.02393100  1
  C  114  1  0.44541400  0.50599500  0.00681600  1
  C  115  1  0.56579000  0.50590300  0.00810600  1
  C  116  1  0.59351200  0.50686100  0.02597000  1
  C  117  1  0.59094000  0.50804800  0.05844400  1
  C  118  1  0.56187900  0.50833100  0.07279400  1
  C  131  1  0.50563400  0.50579800  0.00324400  1
  C  132  1  0.50493800  0.50885300  0.07248200  1
  C  135  1  0.51031600  0.50455000  0.93393800  1
  C  142  1  0.48431100  0.00369700  0.97374100  1
  C  143  1  0.45139400  0.00496800  0.97459000  1
  C  144  1  0.45124500  0.00528100  0.03314100  1
  C  145  1  0.48416000  0.00407200  0.03414100  1
  C  146  1  0.49846900  0.00334600  0.06415000  1
  C  147  1  0.48081100  0.00386400  0.09200100  1
  C  148  1  0.44833000  0.00544600  0.08973000  1
  C  149  1  0.43373600  0.00604000  0.06079500  1
  C  150  1  0.43399100  0.00543900  0.94686100  1
  C  151  1  0.44868000  0.00452100  0.91798500  1
  C  152  1  0.48117100  0.00301200  0.91580700  1
  C  153  1  0.49871700  0.00271100  0.94376300  1
  C  154  1  0.52150800  0.03373000  0.00381000  1
  C  155  1  0.55442500  0.03292300  0.00280800  1
  C  156  1  0.55439000  0.97460600  0.00420000  1
  C  157  1  0.52145200  0.97383200  0.00434400  1
  C  158  1  0.57169100  0.94689600  0.00568100  1
  C  159  1  0.55675100  0.91821200  0.00730400  1
  C  160  1  0.52407100  0.91615000  0.00628900  1
  C  161  1  0.50682800  0.94411300  0.00540700  1
  C  162  1  0.50697000  0.06352600  0.00435800  1
  C  163  1  0.52425400  0.09148700  0.00444100  1
  C  164  1  0.55684900  0.08941800  0.00197100  1
  C  165  1  0.57173000  0.06065200  0.00159000  1
  C  178  1  0.50280900  0.00378900  0.00399300  1
  C  179  1  0.57228900  0.00374300  0.00289400  1
  C  182  1  0.43355500  0.00599300  0.00381900  1
  C  189  1  0.97371100  0.48414400  0.00418400  1
  C  190  1  0.97455500  0.45122900  0.00550200  1
  C  191  1  0.03311000  0.45108300  0.00589700  1
  C  192  1  0.03410900  0.48399300  0.00463700  1
  C  193  1  0.06411400  0.49830700  0.00388200  1
  C  194  1  0.09196700  0.48065300  0.00440900  1
  C  195  1  0.08970100  0.44817500  0.00606900  1
  C  196  1  0.06076700  0.43357800  0.00669300  1
  C  197  1  0.94682700  0.43382900  0.00593900  1
  C  198  1  0.91795000  0.44851800  0.00493300  1
  C  199  1  0.91577700  0.48100600  0.00338100  1
  C  200  1  0.94373300  0.49855000  0.00312400  1
  C  201  1  0.00374100  0.52134500  0.03424600  1
  C  202  1  0.00273200  0.55426300  0.03343000  1
  C  203  1  0.00415600  0.55420900  0.97511000  1
  C  204  1  0.00435100  0.52127100  0.97434900  1
  C  205  1  0.00567200  0.57149300  0.94738800  1
  C  206  1  0.00738800  0.55654000  0.91871300  1
  C  207  1  0.00647900  0.52385500  0.91667200  1
  C  208  1  0.00552700  0.50663300  0.94464200  1
  C  209  1  0.00426400  0.50681000  0.06404500  1
  C  210  1  0.00430400  0.52409800  0.09200300  1
  C  211  1  0.00188000  0.55669600  0.08993000  1
  C  212  1  0.00151200  0.57157000  0.06115900  1
  C  225  1  0.00396100  0.50263900  0.00431100  1
  C  226  1  0.00280400  0.57211500  0.00424000  1
  C  229  1  0.00378700  0.43339300  0.00660900  1
  C  236  1  0.00334900  0.97441600  0.48583500  1
  C  237  1  0.00435500  0.97511200  0.45291300  1
  C  238  1  0.00329800  0.03346200  0.45270700  1
  C  239  1  0.00317000  0.03436000  0.48563800  1
  C  240  1  0.00219600  0.06413500  0.50015700  1
  C  241  1  0.00136800  0.09203800  0.48283400  1
  C  242  1  0.00044200  0.08987900  0.45016000  1
  C  243  1  0.00196200  0.06113000  0.43531800  1
  C  244  1  0.00551200  0.94731400  0.43571700  1
  C  245  1  0.00517100  0.91860400  0.45070700  1
  C  246  1  0.00276400  0.91664600  0.48331600  1
  C  247  1  0.00279400  0.94467900  0.50049400  1
  C  248  1  0.03338200  0.00449800  0.52296900  1
  C  249  1  0.03269300  0.00348800  0.55589100  1
  C  250  1  0.97434700  0.00448600  0.55610900  1
  C  251  1  0.97343700  0.00457600  0.52317800  1
  C  252  1  0.94668500  0.00583000  0.57350700  1
  C  253  1  0.91793100  0.00728900  0.55867400  1
  C  254  1  0.91575600  0.00627500  0.52600300  1
  C  255  1  0.94365400  0.00547500  0.50867000  1
  C  256  1  0.06311600  0.00512200  0.50830800  1
  C  257  1  0.09114700  0.00518400  0.52548300  1
  C  258  1  0.08920100  0.00275900  0.55809200  1
  C  259  1  0.06049400  0.00236300  0.57308500  1
  C  272  1  0.00334200  0.00445200  0.50440400  1
  C  273  1  0.00357600  0.00340700  0.57387300  1
  C  276  1  0.00441700  0.00423600  0.43493800  1
  C  283  1  0.99769600  0.48298700  0.33712300  1
  C  284  1  0.98848100  0.45995700  0.31529500  1
  C  285  1  0.99415400  0.46449600  0.28329600  1
  C  286  1  0.00881600  0.49147100  0.27204000  1
  C  287  1  0.01894800  0.51434800  0.29360100  1
  C  288  1  0.01328800  0.50957900  0.32568800  1
  C  290  1  0.01055100  0.49546500  0.23926200  1
  C  291  1  0.98388400  0.50376200  0.22224700  1
  C  292  1  0.98506900  0.51019600  0.19001900  1
  C  293  1  0.01399500  0.50706900  0.17411300  1
  C  294  1  0.04084400  0.49774100  0.19095300  1
  C  295  1  0.03873700  0.49184200  0.22320800  1
  C  311  1  0.01815300  0.51957300  0.14464700  1
  C  312  1  0.98760400  0.48133300  0.36803400  1
  C  315  1  0.01806500  0.49792600  0.66973700  1
  C  316  1  0.03337600  0.47515400  0.68810500  1
  C  317  1  0.03046500  0.47607300  0.72073400  1
  C  318  1  0.01250100  0.49892600  0.73588500  1
  C  319  1  0.99753400  0.52217300  0.71780900  1
  C  320  1  0.00059800  0.52111800  0.68512900  1
  C  322  1  0.01037200  0.49824600  0.76888800  1
  C  323  1  0.03560200  0.50780500  0.78734300  1
  C  324  1  0.03259500  0.51251100  0.81976000  1
  C  325  1  0.00337200  0.50646900  0.83421700  1
  C  326  1  0.97816700  0.49545800  0.81596000  1
  C  327  1  0.98208900  0.49117200  0.78364400  1
  C  343  1  0.99659400  0.51865500  0.86329000  1
  C  344  1  0.01883500  0.49756000  0.63738600  1
  C  347  1  0.33642300  0.99865400  0.48545000  1
  C  348  1  0.31491700  0.99013300  0.46186600  1
  C  349  1  0.28286700  0.99578300  0.46608700  1
  C  350  1  0.27127200  0.00971500  0.49330600  1
  C  351  1  0.29252100  0.01915300  0.51676200  1
  C  352  1  0.32465800  0.01353400  0.51230000  1
  C  354  1  0.23845700  0.01137700  0.49695400  1
  C  355  1  0.22141000  0.98468000  0.50507500  1
  C  356  1  0.18914900  0.98584600  0.51136500  1
  C  357  1  0.17325900  0.01478700  0.50828700  1
  C  358  1  0.19014600  0.04166400  0.49911800  1
  C  359  1  0.22242600  0.03957800  0.49335900  1
  C  375  1  0.14380200  0.01895100  0.52082100  1
  C  376  1  0.36722700  0.98824200  0.48414600  1
  C  379  1  0.66872600  0.01549100  0.50032000  1
  C  380  1  0.68689400  0.03098400  0.47750600  1
  C  381  1  0.71954900  0.02839000  0.47834800  1
  C  382  1  0.73492400  0.01060600  0.50119200  1
  C  383  1  0.71705300  0.99548300  0.52449700  1
  C  384  1  0.68434300  0.99820600  0.52349800  1
  C  386  1  0.76794100  0.00882900  0.50047100  1
  C  387  1  0.78613500  0.03426300  0.50998700  1
  C  388  1  0.81857700  0.03158500  0.51470900  1
  C  389  1  0.83331900  0.00249500  0.50873200  1
  C  390  1  0.81532900  0.97709300  0.49774100  1
  C  391  1  0.78298100  0.98068600  0.49343100  1
  C  407  1  0.86243000  0.99602600  0.52098100  1
  C  408  1  0.63636500  0.01605200  0.50010200  1
  C  411  1  0.48488400  0.33682200  0.99854000  1
  C  412  1  0.46127500  0.31539500  0.98988200  1
  C  413  1  0.46539400  0.28332400  0.99548300  1
  C  414  1  0.49252400  0.27163200  0.00950600  1
  C  415  1  0.51599200  0.29279900  0.01909300  1
  C  416  1  0.51163600  0.32495800  0.01352100  1
  C  418  1  0.49610500  0.23880700  0.01107300  1
  C  419  1  0.50431800  0.22184800  0.98434800  1
  C  420  1  0.51055300  0.18957600  0.98542600  1
  C  421  1  0.50732700  0.17359100  0.01429800  1
  C  422  1  0.49806800  0.19039100  0.04119900  1
  C  423  1  0.49236400  0.22268600  0.03920300  1
  C  439  1  0.51975700  0.14408600  0.01839300  1
  C  440  1  0.48370300  0.36765400  0.98819100  1
  C  443  1  0.49959600  0.66902000  0.01549700  1
  C  444  1  0.47669400  0.68704200  0.03103500  1
  C  445  1  0.47732300  0.71970400  0.02844300  1
  C  446  1  0.50003000  0.73523100  0.01061500  1
  C  447  1  0.52341700  0.71750800  0.99544200  1
  C  448  1  0.52263500  0.68479000  0.99816500  1
  C  450  1  0.49908800  0.76824300  0.00884200  1
  C  451  1  0.50856100  0.78650100  0.03424600  1
  C  452  1  0.51305800  0.81897300  0.03155800  1
  C  453  1  0.50687900  0.83368500  0.00249000  1
  C  454  1  0.49593600  0.81561700  0.97712300  1
  C  455  1  0.49185900  0.78323800  0.98072500  1
  C  471  1  0.51895600  0.86286400  0.99596800  1
  C  472  1  0.49958500  0.63665500  0.01606400  1
  C  475  1  0.50682100  0.99213200  0.67154900  1
  C  476  1  0.48594600  0.97530700  0.69086000  1
  C  477  1  0.48850900  0.97748200  0.72351300  1
  C  478  1  0.51138800  0.99586400  0.73828800  1
  C  479  1  0.53254100  0.01260200  0.71911500  1
  C  480  1  0.52965300  0.01057900  0.68634200  1
  C  482  1  0.51233200  0.99655700  0.77169700  1
  C  483  1  0.51717500  0.96920900  0.78909900  1
  C  484  1  0.51863600  0.96917200  0.82202800  1
  C  485  1  0.51503900  0.99771000  0.83847300  1
  C  486  1  0.50954600  0.02539000  0.82131800  1
  C  487  1  0.50814300  0.02439900  0.78842700  1
  C  503  1  0.51657400  0.99877000  0.87090700  1
  C  504  1  0.50544800  0.99084700  0.63903000  1
  C  507  1  0.49443300  0.00990000  0.33418400  1
  C  508  1  0.47059600  0.01623300  0.31221900  1
  C  509  1  0.47618900  0.01196100  0.28012800  1
  C  510  1  0.50509500  0.00164200  0.26866100  1
  C  511  1  0.52884400  0.99428700  0.29047300  1
  C  512  1  0.52304800  0.99852700  0.32269200  1
  C  514  1  0.50925900  0.00080200  0.23563500  1
  C  515  1  0.50968100  0.02850400  0.21814900  1
  C  516  1  0.51243900  0.02861200  0.18533200  1
  C  517  1  0.51454900  0.99975400  0.16919700  1
  C  518  1  0.51387400  0.97163500  0.18651400  1
  C  519  1  0.51133900  0.97253300  0.21933800  1
  C  535  1  0.51598700  0.99855700  0.13680800  1
  C  536  1  0.49135800  0.01998600  0.36504700  1
  C  539  1  0.99032300  0.33890200  0.50988500  1
  C  540  1  0.97502200  0.32040500  0.53256200  1
  C  541  1  0.97789300  0.28778200  0.53142100  1
  C  542  1  0.99580600  0.27276400  0.50843500  1
  C  543  1  0.01075900  0.29097400  0.48528500  1
  C  544  1  0.00773800  0.32365000  0.48656600  1
  C  546  1  0.99787700  0.23975600  0.50888100  1
  C  547  1  0.97257200  0.22141800  0.49929500  1
  C  548  1  0.97549500  0.18902800  0.49437500  1
  C  549  1  0.00470800  0.17447700  0.50022500  1
  C  550  1  0.02999400  0.19260200  0.51126000  1
  C  551  1  0.02615600  0.22489900  0.51576500  1
  C  567  1  0.01134300  0.14542700  0.48791600  1
  C  568  1  0.98959000  0.37124600  0.51046700  1
  C  571  1  0.01066200  0.67159500  0.52505200  1
  C  572  1  0.01976800  0.69353400  0.54801900  1
  C  573  1  0.01399300  0.72549600  0.54336400  1
  C  574  1  0.99933400  0.73661500  0.51632800  1
  C  575  1  0.98932800  0.71494000  0.49350100  1
  C  576  1  0.99509100  0.68288800  0.49838800  1
  C  578  1  0.99741300  0.76937700  0.51226700  1
  C  579  1  0.02400100  0.78655500  0.50404900  1
  C  580  1  0.02263300  0.81877100  0.49758100  1
  C  581  1  0.99360000  0.83450200  0.50059300  1
  C  582  1  0.96682700  0.81749800  0.50984800  1
  C  583  1  0.96911600  0.78526100  0.51578100  1
  C  599  1  0.98928100  0.86391400  0.48800800  1
  C  600  1  0.02082700  0.64071700  0.52684900  1
  C  603  1  0.33413300  0.49453300  0.00993600  1
  C  604  1  0.31221000  0.47065200  0.01624500  1
  C  605  1  0.28010700  0.47620900  0.01201900  1
  C  606  1  0.26859100  0.50512100  0.00177100  1
  C  607  1  0.29035900  0.52891400  0.99444000  1
  C  608  1  0.32259000  0.52315400  0.99863100  1
  C  610  1  0.23556000  0.50924700  0.00098700  1
  C  611  1  0.21811800  0.50960700  0.02871600  1
  C  612  1  0.18529900  0.51232500  0.02887800  1
  C  613  1  0.16911700  0.51445400  0.00004600  1
  C  614  1  0.18639200  0.51385100  0.97190000  1
  C  615  1  0.21922000  0.51135600  0.97274400  1
  C  631  1  0.13672400  0.51584100  0.99890000  1
  C  632  1  0.36500900  0.49149200  0.01998700  1
  C  635  1  0.67150900  0.50691600  0.99225500  1
  C  636  1  0.69080900  0.48603700  0.97542000  1
  C  637  1  0.72346700  0.48855300  0.97762600  1
  C  638  1  0.73825500  0.51139000  0.99604700  1
  C  639  1  0.71909400  0.53255000  0.01279400  1
  C  640  1  0.68632100  0.52970700  0.01074000  1
  C  642  1  0.77166600  0.51229000  0.99677100  1
  C  643  1  0.78910100  0.51714000  0.96944300  1
  C  644  1  0.82203000  0.51856400  0.96943900  1
  C  645  1  0.83844700  0.51491600  0.99798600  1
  C  646  1  0.82126000  0.50941900  0.02564500  1
  C  647  1  0.78836900  0.50805500  0.02462300  1
  C  663  1  0.87088200  0.51641700  0.99907200  1
  C  664  1  0.63899100  0.50558700  0.99094400  1
  N  44  1  0.01514700  0.38618800  0.50764700  1
  N  45  1  0.99596600  0.49966800  0.39027300  1
  N  46  1  0.99331000  0.50055200  0.62241900  1
  N  47  1  0.01246100  0.61833900  0.50868400  1
  N  91  1  0.50713400  0.01069000  0.38889900  1
  N  92  1  0.38947500  0.99679200  0.50239100  1
  N  93  1  0.62147500  0.99054800  0.50368800  1
  N  94  1  0.50710200  0.01579300  0.62282700  1
  N  138  1  0.38883000  0.50733100  0.01071800  1
  N  139  1  0.50206900  0.38978800  0.99676600  1
  N  140  1  0.50331400  0.62177200  0.99057600  1
  N  141  1  0.62276000  0.50729200  0.01586900  1
  N  185  1  0.51024900  0.88839800  0.00897300  1
  N  186  1  0.49150100  0.00189700  0.88664700  1
  N  187  1  0.49116500  0.00343900  0.12112800  1
  N  188  1  0.51044600  0.11939100  0.00419500  1
  N  232  1  0.00936200  0.50999400  0.88895900  1
  N  233  1  0.88661900  0.49133400  0.00214700  1
  N  234  1  0.12108800  0.49101900  0.00392200  1
  N  235  1  0.00403300  0.51027700  0.11990200  1
  N  279  1  0.88799500  0.00891700  0.51220200  1
  N  280  1  0.00320500  0.88879500  0.49724200  1
  N  281  1  0.99859800  0.11977700  0.49665000  1
  N  282  1  0.11900800  0.00488100  0.51156900  1
  N  299  1  0.95847000  0.52020400  0.17613900  1
  N  302  1  0.06979100  0.49522600  0.17549500  1
  N  303  1  0.97279300  0.43282500  0.32534500  1
  N  304  1  0.03288100  0.54119000  0.28450000  1
  N  331  1  0.05763200  0.52406100  0.83524600  1
  N  334  1  0.94883500  0.49027200  0.82998600  1
  N  335  1  0.05128200  0.45037300  0.67616900  1
  N  336  1  0.98073400  0.54572200  0.73054500  1
  N  363  1  0.17522500  0.95921500  0.52122500  1
  N  366  1  0.17471400  0.07063200  0.49667800  1
  N  367  1  0.32536400  0.97512400  0.43449900  1
  N  368  1  0.28306400  0.03237500  0.54383900  1
  N  395  1  0.83382200  0.05680000  0.52619300  1
  N  398  1  0.82965700  0.94790100  0.49259100  1
  N  399  1  0.67474500  0.04881000  0.45276900  1
  N  400  1  0.73000500  0.97886500  0.54805600  1
  N  427  1  0.52050300  0.17573000  0.95878600  1
  N  430  1  0.49547200  0.17485600  0.07009800  1
  N  431  1  0.43399800  0.32593900  0.97477800  1
  N  432  1  0.54298800  0.28324800  0.03241300  1
  N  459  1  0.52453200  0.83428400  0.05673800  1
  N  462  1  0.49061500  0.82990200  0.94794000  1
  N  463  1  0.45207100  0.67474000  0.04890900  1
  N  464  1  0.54685200  0.73061300  0.97877200  1
  N  491  1  0.52323300  0.94153600  0.83666300  1
  N  494  1  0.50569900  0.05386600  0.83732700  1
  N  495  1  0.46153700  0.95630800  0.67983800  1
  N  496  1  0.55623600  0.02985000  0.73091700  1
  N  523  1  0.51289600  0.05654300  0.17053900  1
  N  526  1  0.51502300  0.94282300  0.17069300  1
  N  527  1  0.44148300  0.02770300  0.32243400  1
  N  528  1  0.55749300  0.98456800  0.28144800  1
  N  555  1  0.95038200  0.17365900  0.48282900  1
  N  558  1  0.05930500  0.17847300  0.51627700  1
  N  559  1  0.95716700  0.33220100  0.55744500  1
  N  560  1  0.02750100  0.27837700  0.46162000  1
  N  587  1  0.04917800  0.83280600  0.48764400  1
  N  590  1  0.93777400  0.83277200  0.51224200  1
  N  591  1  0.03543700  0.68362800  0.57521600  1
  N  592  1  0.97541600  0.72390300  0.46660200  1
  N  619  1  0.17055100  0.51273300  0.05683500  1
  N  622  1  0.17052800  0.51502700  0.94311300  1
  N  623  1  0.32248100  0.44153200  0.02764600  1
  N  624  1  0.28128300  0.55757200  0.98478600  1
  N  651  1  0.83669800  0.52318500  0.94182400  1
  N  654  1  0.83724300  0.50552200  0.05412900  1
  N  655  1  0.67977600  0.46166700  0.95638500  1
  N  656  1  0.73091400  0.55621100  0.03007700  1
  O  307  1  0.08944900  0.51378900  0.18639900  1
  O  308  1  0.98756000  0.40864500  0.31850300  1
  O  309  1  0.08047200  0.46815900  0.17715100  1
  O  310  1  0.94594800  0.43103900  0.31409100  1
  O  339  1  0.92833900  0.50782800  0.81894800  1
  O  340  1  0.07485700  0.45990400  0.66196700  1
  O  341  1  0.94022800  0.46260600  0.82685500  1
  O  342  1  0.03569300  0.43308900  0.65863400  1
  O  371  1  0.18554300  0.09019500  0.51538700  1
  O  372  1  0.31892300  0.99052900  0.41061200  1
  O  373  1  0.17649400  0.08144300  0.46967100  1
  O  374  1  0.31406100  0.94837100  0.43184400  1
  O  403  1  0.81881600  0.92731100  0.51016100  1
  O  404  1  0.66042500  0.07229600  0.46233900  1
  O  405  1  0.82663000  0.93923800  0.46493500  1
  O  406  1  0.65726300  0.03310600  0.43553400  1
  O  435  1  0.51410400  0.18558900  0.08978700  1
  O  436  1  0.41003200  0.31952800  0.99007200  1
  O  437  1  0.46841800  0.17663500  0.08079000  1
  O  438  1  0.43142800  0.31469200  0.94799300  1
  O  467  1  0.50820600  0.81917700  0.92730900  1
  O  468  1  0.46177600  0.66049000  0.07238400  1
  O  469  1  0.46295600  0.82668300  0.93934700  1
  O  470  1  0.43491900  0.65714500  0.03324300  1
  O  499  1  0.52623900  0.07317200  0.82991400  1
  O  500  1  0.47147300  0.93329300  0.66500800  1
  O  501  1  0.47950500  0.06558500  0.83219200  1
  O  502  1  0.44271200  0.97116700  0.66327300  1
  O  531  1  0.53816100  0.92708800  0.17883300  1
  O  532  1  0.41965700  0.00983500  0.31511400  1
  O  533  1  0.49089800  0.92712100  0.17533700  1
  O  534  1  0.43596500  0.05426700  0.31174400  1
  O  563  1  0.07977800  0.18956800  0.49873100  1
  O  564  1  0.93360100  0.34650300  0.54804000  1
  O  565  1  0.06799800  0.18141000  0.54393600  1
  O  566  1  0.97280600  0.34960200  0.57482000  1
  O  595  1  0.91825600  0.82173100  0.49361200  1
  O  596  1  0.02060400  0.69050100  0.59934300  1
  O  597  1  0.92700300  0.83107100  0.53927000  1
  O  598  1  0.06224200  0.69497500  0.57701100  1
  O  627  1  0.17861600  0.53820500  0.92740600  1
  O  628  1  0.31517200  0.41972900  0.00974200  1
  O  629  1  0.17518100  0.49093500  0.92736200  1
  O  630  1  0.31182500  0.43594400  0.05421000  1
  O  659  1  0.82983700  0.52605100  0.07345000  1
  O  660  1  0.66498000  0.47164700  0.93336500  1
  O  661  1  0.83206600  0.47932400  0.06581800  1
  O  662  1  0.66317300  0.44284200  0.97120100  1
