# generated using pymatgen
data_H10C14N5O
_symmetry_space_group_name_H-M   'P 1'
_cell_length_a   25.00473687
_cell_length_b   25.82885000
_cell_length_c   39.71980000
_cell_angle_alpha   90.36640000
_cell_angle_beta   90.00000073
_cell_angle_gamma   118.94989975
_symmetry_Int_Tables_number   1
_chemical_formula_structural   H10C14N5O
_chemical_formula_sum   'H80 C112 N40 O8'
_cell_volume   22446.69248100
_cell_formula_units_Z   8
loop_
 _symmetry_equiv_pos_site_id
 _symmetry_equiv_pos_as_xyz
  1  'x, y, z'
loop_
 _atom_site_type_symbol
 _atom_site_label
 _atom_site_symmetry_multiplicity
 _atom_site_fract_x
 _atom_site_fract_y
 _atom_site_fract_z
 _atom_site_occupancy
  C  1  1  0.70728950  0.30378950  0.93272900  1
  C  2  1  0.76145000  0.32787600  0.95260600  1
  C  3  1  0.78123050  0.29171250  0.96904500  1
  C  4  1  0.74238500  0.22967900  0.96721200  1
  C  5  1  0.68729100  0.20317500  0.94833900  1
  C  6  1  0.66968700  0.24075700  0.93043100  1
  C  9  1  0.68899350  0.34357450  0.91868200  1
  C  10  1  0.66520100  0.37382900  0.93904000  1
  C  11  1  0.64476850  0.41107750  0.92321300  1
  C  12  1  0.65129200  0.41857600  0.88777000  1
  C  13  1  0.67264100  0.38773000  0.86696500  1
  C  14  1  0.69055400  0.34982800  0.88310900  1
  C  23  1  0.67501300  0.39601900  0.83185600  1
  C  24  1  0.65445200  0.14039800  0.94606700  1
  C  25  1  0.83908600  0.31444700  0.98509100  1
  C  26  1  0.61480900  0.43780900  0.94100300  1
  C  31  1  0.23255400  0.65966300  0.43293100  1
  C  32  1  0.17855050  0.63585450  0.45273500  1
  C  33  1  0.15864300  0.67225100  0.46909000  1
  C  34  1  0.19718650  0.73427150  0.46723200  1
  C  35  1  0.25208050  0.76048050  0.44840500  1
  C  36  1  0.26984000  0.72266100  0.43058200  1
  C  39  1  0.25083900  0.61972600  0.41875900  1
  C  40  1  0.27460050  0.58960550  0.43900100  1
  C  41  1  0.29512550  0.55229850  0.42301600  1
  C  42  1  0.28866100  0.54456200  0.38751600  1
  C  43  1  0.26730550  0.57526250  0.36684100  1
  C  44  1  0.24930800  0.61320900  0.38315800  1
  C  53  1  0.26495350  0.56689350  0.33167100  1
  C  54  1  0.28458150  0.82318050  0.44607600  1
  C  55  1  0.10093250  0.64969550  0.48509200  1
  C  56  1  0.32520200  0.52584000  0.44074800  1
  C  61  1  0.38691400  0.66855700  0.04346000  1
  C  62  1  0.41779900  0.64276600  0.02582100  1
  C  63  1  0.46786600  0.67610400  0.00442800  1
  C  64  1  0.48796200  0.73739100  0.00176700  1
  C  65  1  0.46319200  0.76680800  0.02123400  1
  C  66  1  0.41050450  0.73156650  0.04157400  1
  C  69  1  0.33051900  0.62992300  0.05981800  1
  C  70  1  0.27640600  0.58898200  0.04173300  1
  C  71  1  0.21901250  0.55819150  0.05919600  1
  C  72  1  0.21690000  0.57039700  0.09392500  1
  C  73  1  0.27015700  0.60797000  0.11243800  1
  C  74  1  0.32601300  0.63766100  0.09491900  1
  C  83  1  0.26686050  0.62267550  0.14589300  1
  C  84  1  0.49278150  0.82979350  0.01993700  1
  C  85  1  0.49857300  0.65168200  0.98556700  1
  C  86  1  0.16446450  0.51514050  0.04315000  1
  C  91  1  0.55354700  0.29703500  0.54366900  1
  C  92  1  0.52239550  0.32243850  0.52610800  1
  C  93  1  0.47212950  0.28867950  0.50463000  1
  C  94  1  0.45199350  0.22734350  0.50188600  1
  C  95  1  0.47695250  0.19834650  0.52133000  1
  C  96  1  0.52994550  0.23398750  0.54166300  1
  C  99  1  0.61032450  0.33594850  0.55993600  1
  C  100  1  0.66411750  0.37623150  0.54170300  1
  C  101  1  0.72202150  0.40695150  0.55893200  1
  C  102  1  0.72497250  0.39507050  0.59351700  1
  C  103  1  0.67211550  0.35826550  0.61222900  1
  C  104  1  0.61568550  0.32884050  0.59498300  1
  C  113  1  0.67679050  0.34403250  0.64547300  1
  C  114  1  0.44729800  0.13534200  0.51997500  1
  C  115  1  0.44128650  0.31266850  0.48570400  1
  C  116  1  0.77630850  0.44954050  0.54281800  1
  C  121  1  0.67314150  0.36509450  0.70450500  1
  C  122  1  0.67821150  0.31894750  0.72059100  1
  C  123  1  0.67899700  0.31600400  0.75627500  1
  C  124  1  0.67501000  0.36035400  0.77567200  1
  C  128  1  0.68427750  0.27084150  0.77200300  1
  C  129  1  0.74427850  0.27561350  0.77458900  1
  C  136  1  0.26601650  0.59847450  0.20459300  1
  C  137  1  0.26274000  0.64539500  0.22128800  1
  C  138  1  0.26238050  0.64819450  0.25700900  1
  C  139  1  0.26494500  0.60290100  0.27582400  1
  C  143  1  0.25876450  0.69408950  0.27332100  1
  C  144  1  0.19949250  0.69085050  0.27628700  1
  C  151  1  0.55670900  0.92054500  0.98718400  1
  C  152  1  0.57508900  0.94030200  0.95409400  1
  C  153  1  0.60434100  0.00157100  0.94662200  1
  C  154  1  0.61933350  0.04285350  0.97364300  1
  C  158  1  0.62251150  0.01981650  0.91390600  1
  C  159  1  0.57613800  0.00796900  0.88853100  1
  C  166  1  0.52181450  0.57139950  0.97251300  1
  C  167  1  0.55584650  0.59321550  0.94255100  1
  C  168  1  0.58379950  0.56301850  0.92685500  1
  C  169  1  0.57887150  0.51173750  0.94245100  1
  C  173  1  0.61714600  0.58431400  0.89744800  1
  C  174  1  0.58373150  0.57205650  0.86594800  1
  C  181  1  0.05267300  0.46999600  0.03497000  1
  C  182  1  0.04075500  0.42060100  0.01449600  1
  C  183  1  0.98138700  0.38361500  0.00113300  1
  C  184  1  0.93500950  0.39966750  0.00668200  1
  C  188  1  0.97204650  0.33754250  0.97952000  1
  C  189  1  0.97577850  0.28729350  0.99293200  1
  C  196  1  0.38268150  0.04390150  0.48723000  1
  C  197  1  0.36370100  0.02334300  0.45415500  1
  C  198  1  0.33439700  0.96189300  0.44665700  1
  C  199  1  0.31989850  0.92132050  0.47367700  1
  C  203  1  0.31561700  0.94277500  0.41392000  1
  C  204  1  0.36182150  0.95414650  0.38864200  1
  C  211  1  0.41799600  0.39268200  0.47254200  1
  C  212  1  0.38411750  0.37042150  0.44238700  1
  C  213  1  0.35635450  0.40046850  0.42654800  1
  C  214  1  0.36120050  0.45199950  0.44220100  1
  C  218  1  0.32316800  0.37874700  0.39694000  1
  C  219  1  0.35604950  0.38800050  0.36560000  1
  C  226  1  0.88806650  0.49479850  0.53469600  1
  C  227  1  0.89965950  0.54377350  0.51433600  1
  C  228  1  0.95884350  0.58056450  0.50101400  1
  C  229  1  0.00538200  0.56475800  0.50653300  1
  C  233  1  0.96786050  0.62617550  0.47953800  1
  C  234  1  0.96276150  0.67629650  0.49228100  1
  H  7  1  0.78861350  0.37292750  0.95377600  1
  H  8  1  0.75627550  0.20271150  0.97872600  1
  H  15  1  0.63638350  0.44472150  0.87624200  1
  H  16  1  0.70672750  0.32738150  0.86866200  1
  H  19  1  0.59984250  0.24204250  0.90365000  1
  H  20  1  0.58424350  0.17600350  0.91553400  1
  H  21  1  0.65266350  0.39042450  0.98842400  1
  H  22  1  0.67288900  0.33956233  0.98437600  1
  H  27  1  0.67532000  0.43240000  0.82342900  1
  H  28  1  0.62661300  0.12172100  0.92582400  1
  H  29  1  0.85268100  0.28448000  0.99193500  1
  H  30  1  0.59936550  0.42458850  0.96483700  1
  H  37  1  0.15154850  0.59081450  0.45386000  1
  H  38  1  0.18324450  0.76140450  0.47872500  1
  H  45  1  0.30363500  0.51838600  0.37587200  1
  H  46  1  0.23314800  0.63556800  0.36880200  1
  H  49  1  0.33984750  0.72109050  0.40411800  1
  H  50  1  0.35505450  0.78734050  0.41585100  1
  H  51  1  0.28696900  0.57330500  0.48833000  1
  H  52  1  0.26689800  0.62423300  0.48449100  1
  H  57  1  0.26452700  0.53046000  0.32295000  1
  H  58  1  0.31213550  0.84139950  0.42583100  1
  H  59  1  0.08723000  0.67970600  0.49191800  1
  H  60  1  0.34057650  0.53931750  0.46467400  1
  H  67  1  0.40139550  0.59798450  0.02721800  1
  H  68  1  0.52547250  0.76226150  0.98709900  1
  H  75  1  0.17611150  0.54937050  0.10651100  1
  H  76  1  0.36426250  0.66746450  0.10787800  1
  H  79  1  0.33911950  0.73370150  0.06601400  1
  H  80  1  0.38885800  0.79759700  0.05123500  1
  H  81  1  0.24116200  0.56519700  0.99379300  1
  H  82  1  0.31417550  0.61060750  0.99444000  1
  H  87  1  0.26598950  0.66023050  0.15001200  1
  H  88  1  0.48566750  0.85299150  0.03869200  1
  H  89  1  0.53118900  0.67933000  0.96901300  1
  H  90  1  0.16858200  0.49404100  0.02232200  1
  H  97  1  0.53886800  0.36727000  0.52754800  1
  H  98  1  0.41429900  0.20214100  0.48721700  1
  H  105  1  0.76614150  0.41600350  0.60592200  1
  H  106  1  0.57775550  0.29936750  0.60803900  1
  H  109  1  0.60173400  0.23220100  0.56589800  1
  H  110  1  0.55169950  0.16810150  0.55101600  1
  H  111  1  0.69825400  0.39896200  0.49368300  1
  H  112  1  0.62517200  0.35411500  0.49448100  1
  H  117  1  0.68451350  0.31018750  0.64904300  1
  H  118  1  0.45455900  0.11256900  0.53873500  1
  H  119  1  0.40871350  0.28472350  0.46904000  1
  H  120  1  0.77194450  0.47031750  0.52208500  1
  H  127  1  0.68101650  0.28714650  0.70639800  1
  H  130  1  0.75953650  0.26878450  0.74999500  1
  H  131  1  0.74307800  0.24244600  0.79194300  1
  H  132  1  0.77753400  0.31917400  0.78426600  1
  H  142  1  0.26064300  0.67772000  0.20752400  1
  H  145  1  0.18418400  0.69815900  0.25188500  1
  H  146  1  0.20193350  0.72442350  0.29401900  1
  H  147  1  0.16562750  0.64761250  0.28569800  1
  H  157  1  0.56477000  0.90967500  0.93517000  1
  H  160  1  0.55352800  0.96144300  0.88091900  1
  H  161  1  0.59701350  0.03512150  0.86637000  1
  H  162  1  0.54170550  0.01879750  0.89805700  1
  H  172  1  0.55924800  0.63032500  0.93149600  1
  H  175  1  0.54978800  0.52523500  0.86400400  1
  H  176  1  0.61500050  0.58257650  0.84472500  1
  H  177  1  0.56047700  0.59846500  0.86401200  1
  H  187  1  0.07499850  0.41055850  0.00998000  1
  H  190  1  0.02331700  0.29847500  0.99727300  1
  H  191  1  0.95538500  0.25027200  0.97515200  1
  H  192  1  0.95082350  0.27279550  0.01662900  1
  H  202  1  0.37373300  0.05349500  0.43524500  1
  H  205  1  0.38445000  0.00054800  0.38117400  1
  H  206  1  0.34070650  0.92667950  0.36639500  1
  H  207  1  0.39624800  0.94334900  0.39813100  1
  H  217  1  0.38073000  0.33311000  0.43129400  1
  H  220  1  0.39151600  0.43416400  0.36336400  1
  H  221  1  0.32480100  0.37758200  0.34429300  1
  H  222  1  0.37734600  0.35977500  0.36418000  1
  H  232  1  0.86529750  0.55362850  0.50985200  1
  H  235  1  0.91487700  0.66461900  0.49562200  1
  H  236  1  0.98366200  0.71299100  0.47461900  1
  H  237  1  0.98647750  0.69144950  0.51640500  1
  N  17  1  0.61445500  0.21741700  0.91413100  1
  N  18  1  0.66221600  0.36664400  0.97326700  1
  N  47  1  0.32501250  0.74583250  0.41441800  1
  N  48  1  0.27753450  0.59704150  0.47326900  1
  N  77  1  0.37856050  0.75696650  0.05550700  1
  N  78  1  0.27788400  0.58570300  0.00729300  1
  N  107  1  0.56215050  0.20885450  0.55537900  1
  N  108  1  0.66182300  0.37888100  0.50729400  1
  N  125  1  0.67002700  0.40311500  0.75817700  1
  N  126  1  0.66914200  0.40527200  0.72515300  1
  N  134  1  0.67100550  0.37199850  0.67106500  1
  N  135  1  0.67471200  0.35916800  0.80963800  1
  N  140  1  0.26807350  0.55933250  0.25777700  1
  N  141  1  0.26855900  0.55731500  0.22471900  1
  N  149  1  0.26731050  0.59145850  0.17105000  1
  N  150  1  0.26535900  0.60383500  0.30979300  1
  N  155  1  0.60200900  0.01971500  0.00501700  1
  N  156  1  0.57193450  0.96278650  0.01146300  1
  N  164  1  0.52485350  0.86135850  0.99285400  1
  N  165  1  0.64722700  0.10317900  0.97188200  1
  N  170  1  0.54550750  0.49354050  0.97130600  1
  N  171  1  0.51849950  0.52111750  0.98513200  1
  N  179  1  0.49390000  0.59744900  0.98987400  1
  N  180  1  0.60719200  0.48281000  0.92895800  1
  N  185  1  0.95109450  0.44905150  0.02574300  1
  N  186  1  0.00536700  0.48125900  0.03932100  1
  N  194  1  0.10774650  0.50814050  0.04918000  1
  N  195  1  0.87590650  0.37129150  0.99529900  1
  N  200  1  0.33771100  0.94522100  0.50505000  1
  N  201  1  0.36788350  0.00229550  0.51150100  1
  N  209  1  0.41472650  0.10320450  0.49290500  1
  N  210  1  0.29208750  0.86097150  0.47192000  1
  N  215  1  0.39437000  0.47056800  0.47126000  1
  N  216  1  0.42126450  0.44317250  0.48520800  1
  N  224  1  0.44588950  0.36695650  0.49002000  1
  N  225  1  0.33290350  0.48071450  0.42861000  1
  N  230  1  0.98960700  0.51576400  0.52549400  1
  N  231  1  0.93548900  0.48372500  0.53900700  1
  N  239  1  0.83316800  0.45682800  0.54881800  1
  N  240  1  0.06437750  0.59304150  0.49522400  1
  O  133  1  0.64186600  0.22105600  0.76661700  1
  O  148  1  0.30191400  0.74340300  0.26822500  1
  O  163  1  0.66708200  0.01624900  0.90420000  1
  O  178  1  0.66247550  0.63320550  0.89955300  1
  O  193  1  0.99170200  0.35270500  0.95099800  1
  O  208  1  0.27067150  0.94599550  0.40462900  1
  O  223  1  0.27639550  0.33117450  0.39969000  1
  O  238  1  0.94942200  0.61029000  0.45074600  1
