# generated using pymatgen
data_ZnH2C7NO4
_symmetry_space_group_name_H-M   'P 1'
_cell_length_a   7.16132000
_cell_length_b   7.16132000
_cell_length_c   19.86193000
_cell_angle_alpha   90.00000000
_cell_angle_beta   90.00000000
_cell_angle_gamma   90.00000000
_symmetry_Int_Tables_number   1
_chemical_formula_structural   ZnH2C7NO4
_chemical_formula_sum   'Zn4 H8 C28 N4 O16'
_cell_volume   1018.60923136
_cell_formula_units_Z   4
loop_
 _symmetry_equiv_pos_site_id
 _symmetry_equiv_pos_as_xyz
  1  'x, y, z'
loop_
 _atom_site_type_symbol
 _atom_site_label
 _atom_site_symmetry_multiplicity
 _atom_site_fract_x
 _atom_site_fract_y
 _atom_site_fract_z
 _atom_site_occupancy
  Zn  Zn0  1  0.99999000  0.00001000  0.72111000  1
  Zn  Zn1  1  0.50001000  0.50000000  0.22111000  1
  Zn  Zn2  1  0.49999000  0.49999000  0.77889000  1
  Zn  Zn3  1  0.00002000  0.99999000  0.27889000  1
  H  H4  1  0.80266000  0.23212000  0.94989000  1
  H  H5  1  0.19734000  0.76788000  0.94989000  1
  H  H6  1  0.26788000  0.30266000  0.44989000  1
  H  H7  1  0.73212000  0.69734000  0.44989000  1
  H  H8  1  0.69734000  0.73212000  0.55010000  1
  H  H9  1  0.30266000  0.26788000  0.55010000  1
  H  H10  1  0.23212000  0.80266000  0.05011000  1
  H  H11  1  0.76788000  0.19734000  0.05011000  1
  C  C12  1  0.89039000  0.12776000  0.92591000  1
  C  C13  1  0.89339000  0.12271000  0.85582000  1
  C  C14  1  0.78019000  0.24827000  0.81021000  1
  C  C15  1  0.10961000  0.87225000  0.92591000  1
  C  C16  1  0.10660000  0.87729000  0.85582000  1
  C  C17  1  0.21980000  0.75174000  0.81021000  1
  C  C18  1  0.37224000  0.39039000  0.42591000  1
  C  C19  1  0.37729000  0.39340000  0.35582000  1
  C  C20  1  0.25174000  0.28020000  0.31021000  1
  C  C21  1  0.62776000  0.60961000  0.42591000  1
  C  C22  1  0.62271000  0.60661000  0.35582000  1
  C  C23  1  0.74826000  0.71980000  0.31021000  1
  C  C24  1  0.60961000  0.62776000  0.57409000  1
  C  C25  1  0.60660000  0.62271000  0.64418000  1
  C  C26  1  0.71980000  0.74826000  0.68978000  1
  C  C27  1  0.39039000  0.37225000  0.57409000  1
  C  C28  1  0.39339000  0.37729000  0.64418000  1
  C  C29  1  0.28020000  0.25174000  0.68978000  1
  C  C30  1  0.12776000  0.89039000  0.07409000  1
  C  C31  1  0.12271000  0.89340000  0.14418000  1
  C  C32  1  0.24826000  0.78019000  0.18978000  1
  C  C33  1  0.87224000  0.10961000  0.07409000  1
  C  C34  1  0.87729000  0.10660000  0.14418000  1
  C  C35  1  0.75174000  0.21980000  0.18978000  1
  C  C36  1  0.00000000  0.00000000  0.96261000  1
  C  C37  1  0.50000000  0.50000000  0.46261000  1
  C  C38  1  0.50000000  0.50000000  0.53739000  1
  C  C39  1  0.00000000  0.00000000  0.03739000  1
  N  N40  1  0.00000000  0.00000000  0.82277000  1
  N  N41  1  0.50000000  0.50000000  0.32277000  1
  N  N42  1  0.50000000  0.50000000  0.67723000  1
  N  N43  1  0.00000000  0.00000000  0.17723000  1
  O  O44  1  0.66729000  0.36011000  0.83989000  1
  O  O45  1  0.80392000  0.23170000  0.74765000  1
  O  O46  1  0.33270000  0.63989000  0.83989000  1
  O  O47  1  0.19608000  0.76831000  0.74765000  1
  O  O48  1  0.13989000  0.16729000  0.33989000  1
  O  O49  1  0.26830000  0.30392000  0.24765000  1
  O  O50  1  0.86012000  0.83271000  0.33989000  1
  O  O51  1  0.73170000  0.69608000  0.24765000  1
  O  O52  1  0.83271000  0.86012000  0.66011000  1
  O  O53  1  0.69608000  0.73170000  0.75235000  1
  O  O54  1  0.16729000  0.13989000  0.66011000  1
  O  O55  1  0.30392000  0.26831000  0.75235000  1
  O  O56  1  0.36011000  0.66730000  0.16011000  1
  O  O57  1  0.23170000  0.80392000  0.25235000  1
  O  O58  1  0.63989000  0.33270000  0.16011000  1
  O  O59  1  0.76831000  0.19608000  0.25235000  1
