# generated using pymatgen
data_AgH6C4N3
_symmetry_space_group_name_H-M   'P 1'
_cell_length_a   11.70938000
_cell_length_b   11.99572000
_cell_length_c   21.40544000
_cell_angle_alpha   90.00110000
_cell_angle_beta   90.00446000
_cell_angle_gamma   64.67841000
_symmetry_Int_Tables_number   1
_chemical_formula_structural   AgH6C4N3
_chemical_formula_sum   'Ag16 H96 C64 N48'
_cell_volume   2717.78483251
_cell_formula_units_Z   16
loop_
 _symmetry_equiv_pos_site_id
 _symmetry_equiv_pos_as_xyz
  1  'x, y, z'
loop_
 _atom_site_type_symbol
 _atom_site_label
 _atom_site_symmetry_multiplicity
 _atom_site_fract_x
 _atom_site_fract_y
 _atom_site_fract_z
 _atom_site_occupancy
  Ag  Ag0  1  0.53228000  0.41606000  0.18614000  1
  Ag  Ag1  1  0.35078000  0.31916000  0.05307000  1
  Ag  Ag2  1  0.44930000  0.09100000  0.18664000  1
  Ag  Ag3  1  0.63732000  0.18638000  0.05279000  1
  Ag  Ag4  1  0.96776000  0.58389000  0.68624000  1
  Ag  Ag5  1  0.14918000  0.68084000  0.55308000  1
  Ag  Ag6  1  0.05072000  0.90899000  0.68670000  1
  Ag  Ag7  1  0.86261000  0.81374000  0.55288000  1
  Ag  Ag8  1  0.46771000  0.58395000  0.81386000  1
  Ag  Ag9  1  0.64921000  0.68085000  0.94693000  1
  Ag  Ag10  1  0.55069000  0.90901000  0.81336000  1
  Ag  Ag11  1  0.36267000  0.81363000  0.94721000  1
  Ag  Ag12  1  0.03223000  0.41612000  0.31376000  1
  Ag  Ag13  1  0.85081000  0.31918000  0.44692000  1
  Ag  Ag14  1  0.94927000  0.09102000  0.31330000  1
  Ag  Ag15  1  0.13738000  0.18627000  0.44712000  1
  H  H16  1  0.30057000  0.46515000  0.29507000  1
  H  H17  1  0.14678000  0.25423000  0.12219000  1
  H  H18  1  0.03995000  0.31708000  0.18497000  1
  H  H19  1  0.93536000  0.41127000  0.08339000  1
  H  H20  1  0.05633000  0.45926000  0.06712000  1
  H  H21  1  0.95093000  0.52649000  0.13032000  1
  H  H22  1  0.36837000  0.88141000  0.10115000  1
  H  H23  1  0.35955000  0.19580000  0.92773000  1
  H  H24  1  0.36581000  0.05679000  0.89616000  1
  H  H25  1  0.16202000  0.23229000  0.86603000  1
  H  H26  1  0.12577000  0.27280000  0.94594000  1
  H  H27  1  0.13149000  0.13141000  0.91681000  1
  H  H28  1  0.68085000  0.03988000  0.29505000  1
  H  H29  1  0.83501000  0.25265000  0.12310000  1
  H  H30  1  0.94020000  0.19137000  0.18663000  1
  H  H31  1  0.04789000  0.09711000  0.08580000  1
  H  H32  1  0.03299000  0.98155000  0.13272000  1
  H  H33  1  0.92895000  0.04669000  0.06879000  1
  H  H34  1  0.60675000  0.62950000  0.10001000  1
  H  H35  1  0.66859000  0.43044000  0.89699000  1
  H  H36  1  0.66142000  0.29671000  0.92805000  1
  H  H37  1  0.87787000  0.24942000  0.88293000  1
  H  H38  1  0.89396000  0.35457000  0.93644000  1
  H  H39  1  0.88693000  0.21789000  0.96441000  1
  H  H40  1  0.19970000  0.53484000  0.79509000  1
  H  H41  1  0.35329000  0.74576000  0.62216000  1
  H  H42  1  0.46016000  0.68291000  0.68492000  1
  H  H43  1  0.56471000  0.58876000  0.58334000  1
  H  H44  1  0.44374000  0.54077000  0.56706000  1
  H  H45  1  0.54919000  0.47350000  0.63025000  1
  H  H46  1  0.13157000  0.11869000  0.60114000  1
  H  H47  1  0.14041000  0.80417000  0.42774000  1
  H  H48  1  0.13416000  0.94318000  0.39618000  1
  H  H49  1  0.33788000  0.76768000  0.36603000  1
  H  H50  1  0.37423000  0.72714000  0.44592000  1
  H  H51  1  0.36850000  0.86853000  0.41680000  1
  H  H52  1  0.81906000  0.96034000  0.79514000  1
  H  H53  1  0.66491000  0.74747000  0.62318000  1
  H  H54  1  0.55967000  0.80876000  0.68668000  1
  H  H55  1  0.45209000  0.90293000  0.58582000  1
  H  H56  1  0.46690000  0.01856000  0.63271000  1
  H  H57  1  0.57100000  0.95336000  0.56882000  1
  H  H58  1  0.89344000  0.37047000  0.60000000  1
  H  H59  1  0.83126000  0.56960000  0.39704000  1
  H  H60  1  0.83845000  0.70334000  0.42807000  1
  H  H61  1  0.62203000  0.75061000  0.38295000  1
  H  H62  1  0.60590000  0.64550000  0.43646000  1
  H  H63  1  0.61292000  0.78218000  0.46443000  1
  H  H64  1  0.69942000  0.53486000  0.70493000  1
  H  H65  1  0.85321000  0.74579000  0.87781000  1
  H  H66  1  0.96003000  0.68293000  0.81503000  1
  H  H67  1  0.06463000  0.58874000  0.91661000  1
  H  H68  1  0.94365000  0.54075000  0.93288000  1
  H  H69  1  0.04906000  0.47352000  0.86968000  1
  H  H70  1  0.63162000  0.11860000  0.89885000  1
  H  H71  1  0.64043000  0.80421000  0.07227000  1
  H  H72  1  0.63418000  0.94322000  0.10384000  1
  H  H73  1  0.83797000  0.76772000  0.13397000  1
  H  H74  1  0.87422000  0.72721000  0.05406000  1
  H  H75  1  0.86850000  0.86860000  0.08319000  1
  H  H76  1  0.31913000  0.96014000  0.70495000  1
  H  H77  1  0.16498000  0.74736000  0.87690000  1
  H  H78  1  0.05979000  0.80864000  0.81337000  1
  H  H79  1  0.95210000  0.90290000  0.91420000  1
  H  H80  1  0.96699000  0.01846000  0.86728000  1
  H  H81  1  0.07103000  0.95333000  0.93121000  1
  H  H82  1  0.39324000  0.37052000  0.89999000  1
  H  H83  1  0.33140000  0.56958000  0.10301000  1
  H  H84  1  0.33857000  0.70330000  0.07195000  1
  H  H85  1  0.12212000  0.75059000  0.11707000  1
  H  H86  1  0.10603000  0.64544000  0.06356000  1
  H  H87  1  0.11305000  0.78212000  0.03559000  1
  H  H88  1  0.80029000  0.46517000  0.20491000  1
  H  H89  1  0.64670000  0.25425000  0.37784000  1
  H  H90  1  0.53983000  0.31710000  0.31508000  1
  H  H91  1  0.43528000  0.41125000  0.41667000  1
  H  H92  1  0.55624000  0.45925000  0.43294000  1
  H  H93  1  0.45080000  0.52651000  0.36975000  1
  H  H94  1  0.86842000  0.88132000  0.39886000  1
  H  H95  1  0.85958000  0.19584000  0.57226000  1
  H  H96  1  0.86582000  0.05683000  0.60382000  1
  H  H97  1  0.66211000  0.23233000  0.63397000  1
  H  H98  1  0.62576000  0.27287000  0.55408000  1
  H  H99  1  0.63149000  0.13148000  0.58320000  1
  H  H100  1  0.18092000  0.03967000  0.20486000  1
  H  H101  1  0.33508000  0.25254000  0.37682000  1
  H  H102  1  0.44032000  0.19125000  0.31332000  1
  H  H103  1  0.54790000  0.09708000  0.41418000  1
  H  H104  1  0.53309000  0.98145000  0.36729000  1
  H  H105  1  0.42899000  0.04665000  0.43118000  1
  H  H106  1  0.10654000  0.62954000  0.40000000  1
  H  H107  1  0.16873000  0.43041000  0.60296000  1
  H  H108  1  0.16154000  0.29667000  0.57193000  1
  H  H109  1  0.37796000  0.24940000  0.61705000  1
  H  H110  1  0.39409000  0.35452000  0.56354000  1
  H  H111  1  0.38706000  0.21783000  0.53558000  1
  C  C112  1  0.18594000  0.37418000  0.18159000  1
  C  C113  1  0.27744000  0.43447000  0.25126000  1
  C  C114  1  0.09375000  0.33912000  0.14880000  1
  C  C115  1  0.00371000  0.43999000  0.10493000  1
  C  C116  1  0.33885000  0.07670000  0.99411000  1
  C  C117  1  0.36016000  0.95904000  0.07256000  1
  C  C118  1  0.31649000  0.13051000  0.93012000  1
  C  C119  1  0.17545000  0.19575000  0.91383000  1
  C  C120  1  0.79547000  0.13266000  0.18231000  1
  C  C121  1  0.70395000  0.07125000  0.25147000  1
  C  C122  1  0.88785000  0.16828000  0.15011000  1
  C  C123  1  0.97988000  0.06744000  0.10690000  1
  C  C124  1  0.66453000  0.42239000  0.99587000  1
  C  C125  1  0.62273000  0.54870000  0.07223000  1
  C  C126  1  0.70517000  0.36084000  0.93414000  1
  C  C127  1  0.84955000  0.29144000  0.92925000  1
  C  C128  1  0.31421000  0.62576000  0.68157000  1
  C  C129  1  0.22274000  0.56552000  0.75126000  1
  C  C130  1  0.40637000  0.66086000  0.64875000  1
  C  C131  1  0.49639000  0.56002000  0.60487000  1
  C  C132  1  0.16110000  0.92328000  0.49414000  1
  C  C133  1  0.13975000  0.04104000  0.57257000  1
  C  C134  1  0.18348000  0.86947000  0.43015000  1
  C  C135  1  0.32451000  0.80421000  0.41384000  1
  C  C136  1  0.70443000  0.86745000  0.68242000  1
  C  C137  1  0.79598000  0.92887000  0.75157000  1
  C  C138  1  0.61206000  0.83184000  0.65018000  1
  C  C139  1  0.52006000  0.93264000  0.60693000  1
  C  C140  1  0.83537000  0.57768000  0.49590000  1
  C  C141  1  0.87739000  0.45127000  0.57223000  1
  C  C142  1  0.79468000  0.63922000  0.43417000  1
  C  C143  1  0.65032000  0.70862000  0.42927000  1
  C  C144  1  0.81405000  0.62583000  0.81841000  1
  C  C145  1  0.72255000  0.56555000  0.74874000  1
  C  C146  1  0.90624000  0.66089000  0.85120000  1
  C  C147  1  0.99628000  0.56002000  0.89507000  1
  C  C148  1  0.66114000  0.92331000  0.00589000  1
  C  C149  1  0.63983000  0.04097000  0.92744000  1
  C  C150  1  0.68350000  0.86950000  0.06988000  1
  C  C151  1  0.82454000  0.80426000  0.08617000  1
  C  C152  1  0.20451000  0.86736000  0.81769000  1
  C  C153  1  0.29604000  0.92876000  0.74853000  1
  C  C154  1  0.11214000  0.83173000  0.84989000  1
  C  C155  1  0.02011000  0.93257000  0.89310000  1
  C  C156  1  0.33546000  0.57763000  0.00413000  1
  C  C157  1  0.37725000  0.45131000  0.92777000  1
  C  C158  1  0.29481000  0.63917000  0.06586000  1
  C  C159  1  0.15044000  0.70857000  0.07075000  1
  C  C160  1  0.68578000  0.37425000  0.31843000  1
  C  C161  1  0.77725000  0.43449000  0.24874000  1
  C  C162  1  0.59362000  0.33915000  0.35125000  1
  C  C163  1  0.50360000  0.43999000  0.39513000  1
  C  C164  1  0.83889000  0.07673000  0.50586000  1
  C  C165  1  0.86024000  0.95897000  0.42743000  1
  C  C166  1  0.81651000  0.13054000  0.56985000  1
  C  C167  1  0.67548000  0.19580000  0.58617000  1
  C  C168  1  0.29556000  0.13256000  0.31758000  1
  C  C169  1  0.20401000  0.07114000  0.24843000  1
  C  C170  1  0.38793000  0.16817000  0.34982000  1
  C  C171  1  0.47993000  0.06737000  0.39307000  1
  C  C172  1  0.16462000  0.42233000  0.50411000  1
  C  C173  1  0.12259000  0.54874000  0.42777000  1
  C  C174  1  0.20531000  0.36079000  0.56583000  1
  C  C175  1  0.34967000  0.29140000  0.57073000  1
  N  N176  1  0.29117000  0.37114000  0.15527000  1
  N  N177  1  0.35032000  0.41031000  0.20033000  1
  N  N178  1  0.17368000  0.41392000  0.24190000  1
  N  N179  1  0.35246000  0.13544000  0.04481000  1
  N  N180  1  0.36614000  0.05980000  0.09551000  1
  N  N181  1  0.34326000  0.96484000  0.00970000  1
  N  N182  1  0.68975000  0.13711000  0.15591000  1
  N  N183  1  0.63063000  0.09716000  0.20061000  1
  N  N184  1  0.80803000  0.09130000  0.24229000  1
  N  N185  1  0.63833000  0.36896000  0.04535000  1
  N  N186  1  0.61152000  0.45011000  0.09472000  1
  N  N187  1  0.65560000  0.53615000  0.01091000  1
  N  N188  1  0.20900000  0.62873000  0.65524000  1
  N  N189  1  0.14985000  0.58959000  0.70033000  1
  N  N190  1  0.32647000  0.58610000  0.74190000  1
  N  N191  1  0.14750000  0.86459000  0.54486000  1
  N  N192  1  0.13379000  0.94029000  0.59556000  1
  N  N193  1  0.15664000  0.03520000  0.50971000  1
  N  N194  1  0.81018000  0.86295000  0.65604000  1
  N  N195  1  0.86932000  0.90291000  0.70072000  1
  N  N196  1  0.69189000  0.90883000  0.74241000  1
  N  N197  1  0.86156000  0.63112000  0.54539000  1
  N  N198  1  0.88854000  0.54990000  0.59471000  1
  N  N199  1  0.84443000  0.46386000  0.51092000  1
  N  N200  1  0.70882000  0.62887000  0.84473000  1
  N  N201  1  0.64967000  0.58970000  0.79967000  1
  N  N202  1  0.82631000  0.58609000  0.75810000  1
  N  N203  1  0.64753000  0.86457000  0.95519000  1
  N  N204  1  0.63385000  0.94021000  0.90449000  1
  N  N205  1  0.65673000  0.03517000  0.99030000  1
  N  N206  1  0.31024000  0.86290000  0.84409000  1
  N  N207  1  0.36936000  0.90285000  0.79939000  1
  N  N208  1  0.19196000  0.90872000  0.75771000  1
  N  N209  1  0.36166000  0.63105000  0.95465000  1
  N  N210  1  0.38847000  0.54990000  0.90528000  1
  N  N211  1  0.34439000  0.46386000  0.98909000  1
  N  N212  1  0.79099000  0.37128000  0.34476000  1
  N  N213  1  0.85014000  0.41042000  0.29967000  1
  N  N214  1  0.67351000  0.41392000  0.25810000  1
  N  N215  1  0.85249000  0.13542000  0.45514000  1
  N  N216  1  0.86620000  0.05972000  0.40445000  1
  N  N217  1  0.84335000  0.96481000  0.49029000  1
  N  N218  1  0.18981000  0.13706000  0.34396000  1
  N  N219  1  0.13067000  0.09710000  0.29928000  1
  N  N220  1  0.30810000  0.09118000  0.25759000  1
  N  N221  1  0.13843000  0.36889000  0.45461000  1
  N  N222  1  0.11145000  0.45011000  0.40529000  1
  N  N223  1  0.15556000  0.53615000  0.48908000  1
