# generated using pymatgen
data_H15C24N7
_symmetry_space_group_name_H-M   'P 1'
_cell_length_a   32.42530000
_cell_length_b   33.67000000
_cell_length_c   33.67000000
_cell_angle_alpha   90.00000000
_cell_angle_beta   90.00000000
_cell_angle_gamma   90.00000000
_symmetry_Int_Tables_number   1
_chemical_formula_structural   H15C24N7
_chemical_formula_sum   'H240 C384 N112'
_cell_volume   36759.55418317
_cell_formula_units_Z   16
loop_
 _symmetry_equiv_pos_site_id
 _symmetry_equiv_pos_as_xyz
  1  'x, y, z'
loop_
 _atom_site_type_symbol
 _atom_site_label
 _atom_site_symmetry_multiplicity
 _atom_site_fract_x
 _atom_site_fract_y
 _atom_site_fract_z
 _atom_site_occupancy
  H  10  1  0.20703200  0.34645700  0.27154900  1
  H  11  1  0.03029700  0.34922500  0.28602200  1
  H  12  1  0.12680200  0.24850600  0.38748200  1
  H  22  1  0.20704900  0.64672500  0.72161100  1
  H  23  1  0.03030400  0.64396900  0.70717100  1
  H  24  1  0.12679900  0.74469100  0.60571200  1
  H  34  1  0.70703100  0.72168500  0.34643400  1
  H  35  1  0.53030800  0.70715900  0.34924600  1
  H  36  1  0.62681000  0.60568300  0.24855200  1
  H  46  1  0.70702500  0.27153300  0.64676400  1
  H  47  1  0.53029600  0.28604700  0.64395400  1
  H  48  1  0.62679500  0.38754100  0.74463400  1
  H  58  1  0.33919800  0.65312800  0.27315600  1
  H  59  1  0.51625400  0.64800800  0.28847200  1
  H  60  1  0.42057300  0.75625000  0.38283700  1
  H  70  1  0.33918600  0.34009300  0.72003700  1
  H  71  1  0.51624500  0.34519200  0.70473200  1
  H  72  1  0.42055700  0.23689700  0.61042600  1
  H  82  1  0.83917500  0.27319600  0.34011000  1
  H  83  1  0.01624200  0.28847100  0.34519200  1
  H  84  1  0.92055900  0.38276000  0.23687400  1
  H  94  1  0.83919700  0.72006900  0.65314300  1
  H  95  1  0.01625000  0.70475000  0.64802900  1
  H  96  1  0.92056500  0.61039000  0.75628000  1
  H  116  1  0.19765900  0.17645400  0.48574800  1
  H  117  1  0.26450500  0.25741600  0.38513300  1
  H  118  1  0.30565900  0.21958700  0.43098100  1
  H  119  1  0.15632800  0.21399100  0.44026500  1
  H  120  1  0.36038200  0.18043100  0.49657000  1
  H  121  1  0.24794800  0.21268900  0.55055600  1
  H  122  1  0.28494200  0.24836500  0.60116800  1
  H  123  1  0.39758200  0.21602100  0.54683200  1
  H  124  1  0.24763300  0.12348900  0.54259100  1
  H  125  1  0.30979800  0.05516300  0.43040200  1
  H  126  1  0.31052900  0.12664200  0.43299100  1
  H  127  1  0.24737300  0.05211200  0.54053500  1
  H  150  1  0.19765600  0.81677600  0.50747000  1
  H  151  1  0.26450500  0.73581000  0.60807900  1
  H  152  1  0.30565800  0.77363300  0.56222500  1
  H  153  1  0.15632700  0.77924700  0.55295900  1
  H  154  1  0.36037900  0.81277800  0.49664800  1
  H  155  1  0.24795000  0.78051500  0.44265600  1
  H  156  1  0.28494700  0.74482100  0.39205900  1
  H  157  1  0.39758200  0.77717100  0.44639800  1
  H  158  1  0.24764500  0.86972500  0.45060400  1
  H  159  1  0.30979800  0.93805900  0.56279600  1
  H  160  1  0.31052600  0.86658000  0.56021200  1
  H  161  1  0.24739000  0.94110300  0.45265000  1
  H  184  1  0.69767100  0.50746400  0.17644500  1
  H  185  1  0.76452000  0.60807300  0.25741100  1
  H  186  1  0.80567300  0.56222200  0.21958700  1
  H  187  1  0.65634200  0.55295000  0.21397500  1
  H  188  1  0.86039300  0.49662400  0.18040700  1
  H  189  1  0.74795600  0.44265900  0.21268500  1
  H  190  1  0.78494900  0.39203200  0.24834200  1
  H  191  1  0.89759200  0.44634800  0.21597900  1
  H  192  1  0.74764200  0.45061800  0.12348200  1
  H  193  1  0.80980300  0.56281000  0.05515300  1
  H  194  1  0.81053700  0.56021800  0.12663100  1
  H  195  1  0.74737900  0.45267400  0.05210400  1
  H  218  1  0.69766500  0.48574200  0.81676100  1
  H  219  1  0.76450800  0.38511200  0.73581300  1
  H  220  1  0.80566100  0.43096900  0.77363000  1
  H  221  1  0.65633300  0.44025000  0.77923800  1
  H  222  1  0.86038700  0.49657000  0.81278700  1
  H  223  1  0.74795600  0.55054700  0.78050900  1
  H  224  1  0.78494900  0.60114100  0.74481000  1
  H  225  1  0.89758900  0.54681700  0.77717700  1
  H  226  1  0.74765100  0.54260300  0.86971000  1
  H  227  1  0.80980600  0.43041600  0.93805300  1
  H  228  1  0.81054000  0.43300000  0.86657400  1
  H  229  1  0.74738900  0.54055600  0.94108800  1
  H  252  1  0.85394700  0.81623800  0.50418800  1
  H  253  1  0.78976600  0.73372200  0.60475600  1
  H  254  1  0.74760500  0.77085900  0.55981400  1
  H  255  1  0.89667900  0.77962400  0.54976000  1
  H  256  1  0.68934800  0.81319100  0.49909200  1
  H  257  1  0.79695500  0.77613700  0.43969800  1
  H  258  1  0.75602700  0.73994500  0.39301500  1
  H  259  1  0.64778700  0.77742600  0.45189000  1
  H  260  1  0.79718300  0.86972200  0.44621700  1
  H  261  1  0.74420900  0.93595600  0.56373400  1
  H  262  1  0.74453300  0.86456000  0.56050600  1
  H  263  1  0.79626700  0.94110600  0.44893100  1
  H  286  1  0.85394400  0.17696000  0.48901800  1
  H  287  1  0.78975400  0.25951000  0.38848300  1
  H  288  1  0.74759800  0.22235300  0.43340700  1
  H  289  1  0.89667600  0.21359500  0.44345800  1
  H  290  1  0.68934400  0.18000300  0.49412000  1
  H  291  1  0.79694900  0.21706100  0.55351400  1
  H  292  1  0.75602100  0.25325800  0.60019100  1
  H  293  1  0.64778400  0.21577200  0.54131700  1
  H  294  1  0.79717100  0.12347300  0.54699200  1
  H  295  1  0.74422100  0.05724800  0.42946000  1
  H  296  1  0.74454500  0.12864600  0.43269400  1
  H  297  1  0.79625500  0.05208700  0.54427200  1
  H  320  1  0.35394000  0.48901200  0.81625300  1
  H  321  1  0.28976000  0.38846800  0.73370500  1
  H  322  1  0.24760000  0.43339200  0.77085900  1
  H  323  1  0.39667500  0.44345500  0.77962100  1
  H  324  1  0.18933800  0.49411700  0.81320000  1
  H  325  1  0.29694900  0.55350500  0.77614600  1
  H  326  1  0.25602800  0.60017000  0.73993000  1
  H  327  1  0.14778200  0.54130200  0.77741100  1
  H  328  1  0.29716300  0.54698600  0.86973100  1
  H  329  1  0.24420300  0.42946000  0.93595900  1
  H  330  1  0.24453000  0.43269100  0.86456000  1
  H  331  1  0.29624400  0.54426900  0.94111500  1
  H  354  1  0.35393400  0.50418300  0.17696700  1
  H  355  1  0.28976400  0.60475300  0.25948500  1
  H  356  1  0.24760000  0.55982600  0.22234100  1
  H  357  1  0.39667200  0.54974500  0.21358900  1
  H  358  1  0.18933400  0.49909200  0.18001600  1
  H  359  1  0.29694400  0.43969500  0.21705600  1
  H  360  1  0.25602200  0.39302100  0.25326500  1
  H  361  1  0.14777700  0.45190100  0.21579900  1
  H  362  1  0.29715600  0.44621700  0.12348300  1
  H  363  1  0.24418700  0.56373400  0.05725000  1
  H  364  1  0.24451000  0.56050600  0.12864800  1
  H  365  1  0.29624100  0.44893100  0.05209700  1
  H  378  1  0.42291300  0.76225700  0.71704900  1
  H  379  1  0.24617800  0.76502500  0.73152200  1
  H  380  1  0.34268300  0.66430600  0.83298200  1
  H  390  1  0.42293000  0.06252540  0.16711100  1
  H  391  1  0.24618500  0.05976940  0.15267100  1
  H  392  1  0.34268000  0.16049100  0.05121240  1
  H  402  1  0.92291200  0.13748500  0.79193400  1
  H  403  1  0.74618900  0.12295900  0.79474600  1
  H  404  1  0.84269100  0.02148340  0.69405200  1
  H  414  1  0.92290600  0.68733300  0.09226440  1
  H  415  1  0.74617700  0.70184700  0.08945440  1
  H  416  1  0.84267600  0.80334100  0.19013400  1
  H  426  1  0.55507900  0.06892840  0.71865600  1
  H  427  1  0.73213500  0.06380840  0.73397200  1
  H  428  1  0.63645400  0.17205000  0.82833700  1
  H  438  1  0.55506700  0.75589300  0.16553700  1
  H  439  1  0.73212600  0.76099200  0.15023200  1
  H  440  1  0.63643800  0.65269700  0.05592640  1
  H  450  1  0.05505580  0.68899600  0.78561000  1
  H  451  1  0.23212300  0.70427100  0.79069200  1
  H  452  1  0.13644000  0.79856000  0.68237400  1
  H  462  1  0.05507780  0.13586900  0.09864340  1
  H  463  1  0.23213100  0.12055000  0.09352940  1
  H  464  1  0.13644600  0.02619040  0.20178000  1
  H  484  1  0.41354000  0.59225400  0.93124800  1
  H  485  1  0.48038600  0.67321600  0.83063300  1
  H  486  1  0.52154000  0.63538700  0.87648100  1
  H  487  1  0.37220900  0.62979100  0.88576500  1
  H  488  1  0.57626300  0.59623100  0.94207000  1
  H  489  1  0.46382900  0.62848900  0.99605600  1
  H  490  1  0.50082300  0.66416500  0.04666840  1
  H  491  1  0.61346300  0.63182100  0.99233200  1
  H  492  1  0.46351400  0.53928900  0.98809100  1
  H  493  1  0.52567900  0.47096300  0.87590200  1
  H  494  1  0.52641000  0.54244200  0.87849100  1
  H  495  1  0.46325400  0.46791200  0.98603500  1
  H  518  1  0.41353700  0.23257600  0.95297000  1
  H  519  1  0.48038600  0.15161000  0.05357940  1
  H  520  1  0.52153900  0.18943300  0.00772545  1
  H  521  1  0.37220800  0.19504700  0.99845900  1
  H  522  1  0.57626000  0.22857800  0.94214800  1
  H  523  1  0.46383100  0.19631500  0.88815600  1
  H  524  1  0.50082800  0.16062100  0.83755900  1
  H  525  1  0.61346300  0.19297100  0.89189800  1
  H  526  1  0.46352600  0.28552500  0.89610400  1
  H  527  1  0.52567900  0.35385900  0.00829645  1
  H  528  1  0.52640700  0.28238000  0.00571245  1
  H  529  1  0.46327100  0.35690300  0.89815000  1
  H  552  1  0.91355200  0.92326400  0.62194500  1
  H  553  1  0.98040100  0.02387340  0.70291100  1
  H  554  1  0.02155380  0.97802200  0.66508700  1
  H  555  1  0.87222300  0.96875000  0.65947500  1
  H  556  1  0.07627380  0.91242400  0.62590700  1
  H  557  1  0.96383700  0.85845900  0.65818500  1
  H  558  1  0.00082981  0.80783200  0.69384200  1
  H  559  1  0.11347300  0.86214800  0.66147900  1
  H  560  1  0.96352300  0.86641800  0.56898200  1
  H  561  1  0.02568380  0.97861000  0.50065300  1
  H  562  1  0.02641780  0.97601800  0.57213100  1
  H  563  1  0.96326000  0.86847400  0.49760400  1
  H  586  1  0.91354600  0.90154200  0.26226100  1
  H  587  1  0.98038900  0.80091200  0.18131300  1
  H  588  1  0.02154180  0.84676900  0.21913000  1
  H  589  1  0.87221400  0.85605000  0.22473800  1
  H  590  1  0.07626780  0.91237000  0.25828700  1
  H  591  1  0.96383700  0.96634700  0.22600900  1
  H  592  1  0.00082981  0.01694140  0.19031000  1
  H  593  1  0.11347000  0.96261700  0.22267700  1
  H  594  1  0.96353200  0.95840300  0.31521000  1
  H  595  1  0.02568680  0.84621600  0.38355300  1
  H  596  1  0.02642080  0.84880000  0.31207400  1
  H  597  1  0.96327000  0.95635600  0.38658800  1
  H  620  1  0.06982780  0.23203800  0.94968800  1
  H  621  1  0.00564681  0.14952200  0.05025640  1
  H  622  1  0.96348600  0.18665900  0.00531445  1
  H  623  1  0.11256000  0.19542400  0.99526000  1
  H  624  1  0.90522900  0.22899100  0.94459200  1
  H  625  1  0.01283580  0.19193700  0.88519800  1
  H  626  1  0.97190800  0.15574500  0.83851500  1
  H  627  1  0.86366800  0.19322600  0.89739000  1
  H  628  1  0.01306380  0.28552200  0.89171700  1
  H  629  1  0.96009000  0.35175600  0.00923445  1
  H  630  1  0.96041400  0.28036000  0.00600645  1
  H  631  1  0.01214780  0.35690600  0.89443100  1
  H  654  1  0.06982480  0.59276000  0.93451800  1
  H  655  1  0.00563481  0.67531000  0.83398300  1
  H  656  1  0.96347900  0.63815300  0.87890700  1
  H  657  1  0.11255700  0.62939500  0.88895800  1
  H  658  1  0.90522500  0.59580300  0.93962000  1
  H  659  1  0.01282980  0.63286100  0.99901400  1
  H  660  1  0.97190200  0.66905800  0.04569140  1
  H  661  1  0.86366500  0.63157200  0.98681700  1
  H  662  1  0.01305180  0.53927300  0.99249200  1
  H  663  1  0.96010200  0.47304800  0.87496000  1
  H  664  1  0.96042600  0.54444600  0.87819400  1
  H  665  1  0.01213580  0.46788700  0.98977200  1
  H  688  1  0.56982100  0.90481200  0.26175300  1
  H  689  1  0.50564100  0.80426800  0.17920500  1
  H  690  1  0.46348100  0.84919200  0.21635900  1
  H  691  1  0.61255600  0.85925500  0.22512100  1
  H  692  1  0.40521900  0.90991700  0.25870000  1
  H  693  1  0.51283000  0.96930500  0.22164600  1
  H  694  1  0.47190900  0.01597040  0.18543000  1
  H  695  1  0.36366300  0.95710200  0.22291100  1
  H  696  1  0.51304400  0.96278600  0.31523100  1
  H  697  1  0.46008400  0.84526000  0.38145900  1
  H  698  1  0.46041100  0.84849100  0.31006000  1
  H  699  1  0.51212500  0.96006900  0.38661500  1
  H  722  1  0.56981500  0.91998300  0.62246700  1
  H  723  1  0.50564500  0.02055340  0.70498500  1
  H  724  1  0.46348100  0.97562600  0.66784100  1
  H  725  1  0.61255300  0.96554500  0.65908900  1
  H  726  1  0.40521500  0.91489200  0.62551600  1
  H  727  1  0.51282500  0.85549500  0.66255600  1
  H  728  1  0.47190300  0.80882100  0.69876500  1
  H  729  1  0.36365800  0.86770100  0.66129900  1
  H  730  1  0.51303700  0.86201700  0.56898300  1
  H  731  1  0.46006800  0.97953400  0.50275000  1
  H  732  1  0.46039100  0.97630600  0.57414800  1
  H  733  1  0.51212200  0.86473100  0.49759700  1
  C  1  1  0.08026000  0.32376600  0.31208800  1
  C  3  1  0.14966400  0.33896100  0.29513200  1
  C  5  1  0.13532900  0.29131800  0.34511800  1
  C  7  1  0.14791400  0.26466100  0.37347000  1
  C  8  1  0.03830600  0.32907700  0.30619300  1
  C  9  1  0.17925400  0.35878000  0.27346100  1
  C  13  1  0.08026700  0.66943700  0.68111500  1
  C  15  1  0.14967300  0.65423900  0.69806200  1
  C  17  1  0.13533300  0.70188700  0.64808200  1
  C  19  1  0.14791400  0.72854900  0.61973400  1
  C  20  1  0.03831300  0.66412300  0.68700700  1
  C  21  1  0.17926500  0.63441100  0.71972500  1
  C  25  1  0.58027200  0.68110600  0.32377800  1
  C  27  1  0.64967500  0.69807300  0.33896100  1
  C  29  1  0.63534300  0.64807000  0.29133600  1
  C  31  1  0.64792600  0.61971600  0.26468300  1
  C  32  1  0.53831700  0.68699500  0.32909200  1
  C  33  1  0.67926000  0.71976300  0.35876800  1
  C  37  1  0.58026000  0.31210300  0.66941900  1
  C  39  1  0.64966600  0.29513400  0.65424200  1
  C  41  1  0.63533100  0.34514200  0.70186000  1
  C  43  1  0.64791100  0.37349600  0.72851600  1
  C  44  1  0.53830800  0.30621100  0.66410600  1
  C  45  1  0.67925000  0.27344900  0.63443200  1
  C  49  1  0.46635200  0.67472900  0.31351400  1
  C  51  1  0.39674600  0.66055600  0.29636900  1
  C  53  1  0.41177400  0.70985300  0.34449700  1
  C  55  1  0.39978000  0.73727800  0.37229600  1
  C  56  1  0.50827300  0.66805600  0.30875000  1
  C  57  1  0.36686500  0.64056500  0.27520000  1
  C  61  1  0.46634300  0.31846500  0.67969800  1
  C  63  1  0.39673700  0.33263800  0.69684700  1
  C  65  1  0.41176500  0.28331600  0.64874500  1
  C  67  1  0.39976800  0.25587600  0.62096000  1
  C  68  1  0.50826400  0.32514500  0.68445600  1
  C  69  1  0.36685600  0.35264400  0.71800200  1
  C  73  1  0.96634100  0.31350200  0.31845900  1
  C  75  1  0.89673200  0.29637100  0.33264400  1
  C  77  1  0.91176300  0.34445300  0.28330300  1
  C  79  1  0.89977000  0.37222800  0.25585400  1
  C  80  1  0.00826100  0.30874100  0.32513600  1
  C  81  1  0.86684800  0.27522600  0.35265600  1
  C  85  1  0.96634700  0.67971000  0.67475300  1
  C  87  1  0.89674100  0.69685900  0.66058300  1
  C  89  1  0.91177000  0.64873900  0.70988500  1
  C  91  1  0.89977600  0.62093900  0.73731000  1
  C  92  1  0.00826800  0.68447100  0.66807600  1
  C  93  1  0.86686000  0.71802300  0.64058300  1
  C  98  1  0.30103100  0.19327200  0.51941600  1
  C  99  1  0.25515900  0.19466000  0.46212400  1
  C  100  1  0.27941200  0.13116600  0.48813300  1
  C  101  1  0.21178900  0.19322200  0.46437800  1
  C  102  1  0.18767900  0.21522800  0.43761300  1
  C  103  1  0.20662400  0.23896100  0.40808500  1
  C  104  1  0.25006500  0.24030000  0.40608000  1
  C  105  1  0.27420200  0.21827200  0.43282800  1
  C  106  1  0.27947900  0.21306300  0.54994400  1
  C  107  1  0.30116900  0.23382600  0.57950500  1
  C  108  1  0.34465400  0.23469300  0.57930000  1
  C  109  1  0.36613400  0.21491200  0.54849200  1
  C  110  1  0.34445900  0.19424800  0.51886300  1
  C  111  1  0.26106100  0.10920800  0.51910700  1
  C  112  1  0.26101500  0.06752000  0.51788300  1
  C  113  1  0.27910600  0.04723600  0.48548300  1
  C  114  1  0.29677100  0.06930000  0.45422100  1
  C  115  1  0.29729200  0.11100900  0.45570600  1
  C  132  1  0.30103000  0.79993300  0.47379900  1
  C  133  1  0.25515800  0.79856700  0.53108800  1
  C  134  1  0.27941500  0.86205100  0.50506500  1
  C  135  1  0.21178700  0.80000400  0.52883400  1
  C  136  1  0.18767800  0.77800800  0.55561100  1
  C  137  1  0.20662400  0.75427800  0.58513900  1
  C  138  1  0.25006400  0.75293000  0.58713800  1
  C  139  1  0.27420100  0.77495500  0.56038400  1
  C  140  1  0.27948100  0.78013500  0.44327400  1
  C  141  1  0.30117300  0.75936300  0.41372200  1
  C  142  1  0.34465700  0.75848600  0.41393600  1
  C  143  1  0.36613400  0.77826100  0.44475000  1
  C  144  1  0.34445900  0.79895300  0.47435800  1
  C  145  1  0.26107000  0.88400800  0.47408700  1
  C  146  1  0.26101800  0.92569500  0.47531100  1
  C  147  1  0.27910400  0.94598000  0.50771100  1
  C  148  1  0.29677200  0.92391900  0.53897600  1
  C  149  1  0.29729800  0.88221100  0.53749100  1
  C  166  1  0.80104100  0.47379300  0.19326300  1
  C  167  1  0.75517300  0.53108500  0.19465200  1
  C  168  1  0.77941900  0.50507600  0.13115700  1
  C  169  1  0.71180200  0.52883400  0.19320800  1
  C  170  1  0.68769100  0.55559000  0.21522800  1
  C  171  1  0.70663700  0.58512700  0.23894800  1
  C  172  1  0.75007800  0.58712900  0.24029300  1
  C  173  1  0.77421600  0.56037800  0.21826500  1
  C  174  1  0.77948700  0.44326500  0.21305400  1
  C  175  1  0.80117700  0.41369500  0.23380600  1
  C  176  1  0.84466500  0.41388500  0.23465100  1
  C  177  1  0.86614200  0.44471400  0.21490600  1
  C  178  1  0.84447000  0.47434300  0.19424100  1
  C  179  1  0.76106600  0.47410500  0.10920000  1
  C  180  1  0.76100800  0.47533200  0.06751200  1
  C  181  1  0.77910200  0.50773200  0.04722700  1
  C  182  1  0.79675400  0.53900000  0.06929000  1
  C  183  1  0.79729700  0.53750600  0.11099900  1
  C  200  1  0.80103800  0.51940100  0.79992100  1
  C  201  1  0.75516300  0.46211200  0.79855800  1
  C  202  1  0.77942200  0.48813900  0.86204200  1
  C  203  1  0.71179300  0.46437000  0.79999800  1
  C  204  1  0.68768200  0.43760700  0.77798700  1
  C  205  1  0.70662700  0.40805800  0.75427800  1
  C  206  1  0.75006600  0.40605900  0.75293000  1
  C  207  1  0.77420400  0.43281300  0.77494900  1
  C  208  1  0.77948700  0.54992100  0.78011700  1
  C  209  1  0.80117700  0.57947800  0.75934800  1
  C  210  1  0.84466100  0.57926100  0.75846900  1
  C  211  1  0.86614200  0.54847100  0.77827300  1
  C  212  1  0.84446700  0.51884200  0.79893200  1
  C  213  1  0.76107500  0.51911900  0.88399600  1
  C  214  1  0.76103200  0.51790400  0.92568300  1
  C  215  1  0.77910200  0.48549500  0.94597100  1
  C  216  1  0.79677300  0.45423000  0.92391300  1
  C  217  1  0.79730000  0.45571200  0.88220500  1
  C  234  1  0.74685200  0.79812700  0.47342500  1
  C  235  1  0.79695200  0.79706700  0.52810900  1
  C  236  1  0.77073500  0.86076200  0.50301800  1
  C  237  1  0.84035000  0.79910100  0.52557800  1
  C  238  1  0.86528700  0.77759800  0.55227000  1
  C  239  1  0.84752000  0.75379700  0.58227600  1
  C  240  1  0.80391500  0.75140900  0.58421200  1
  C  241  1  0.77899700  0.77294400  0.55764600  1
  C  242  1  0.76552600  0.77677300  0.44222200  1
  C  243  1  0.74129500  0.75574200  0.41467800  1
  C  244  1  0.69765900  0.75585800  0.41732800  1
  C  245  1  0.67919500  0.77714700  0.44880100  1
  C  246  1  0.70343800  0.79814800  0.47646000  1
  C  247  1  0.78564300  0.88353000  0.47088600  1
  C  248  1  0.78496400  0.92530300  0.47248100  1
  C  249  1  0.76964600  0.94517800  0.50644900  1
  C  250  1  0.75521600  0.92231800  0.53871200  1
  C  251  1  0.75536100  0.88054800  0.53687900  1
  C  268  1  0.74684600  0.19506600  0.51978700  1
  C  269  1  0.79694600  0.19613900  0.46510600  1
  C  270  1  0.77073500  0.13243600  0.49018500  1
  C  271  1  0.84034700  0.19410600  0.46763700  1
  C  272  1  0.86528100  0.21562100  0.44095100  1
  C  273  1  0.84751400  0.23945100  0.41096900  1
  C  274  1  0.80390900  0.24182400  0.40902100  1
  C  275  1  0.77899100  0.22026800  0.43557200  1
  C  276  1  0.76552000  0.21642000  0.55099000  1
  C  277  1  0.74128800  0.23744100  0.57854300  1
  C  278  1  0.69765000  0.23733600  0.57588100  1
  C  279  1  0.67918900  0.21605000  0.54440800  1
  C  280  1  0.70343500  0.19504400  0.51675200  1
  C  281  1  0.78564000  0.10966800  0.52232000  1
  C  282  1  0.78497300  0.06789600  0.52071700  1
  C  283  1  0.76966100  0.04802100  0.48674300  1
  C  284  1  0.75522500  0.07088500  0.45448500  1
  C  285  1  0.75536100  0.11265400  0.45632400  1
  C  302  1  0.24684300  0.51977500  0.79812700  1
  C  303  1  0.29694400  0.46509400  0.79707600  1
  C  304  1  0.27071900  0.49018500  0.86076800  1
  C  305  1  0.34034500  0.46762500  0.79911300  1
  C  306  1  0.36528300  0.44094200  0.77759800  1
  C  307  1  0.34751600  0.41095400  0.75377000  1
  C  308  1  0.30391200  0.40900000  0.75140300  1
  C  309  1  0.27899000  0.43555800  0.77294700  1
  C  310  1  0.26551900  0.55097200  0.77677300  1
  C  311  1  0.24129200  0.57851900  0.75573600  1
  C  312  1  0.19765500  0.57584300  0.75581600  1
  C  313  1  0.17919000  0.54438700  0.77712600  1
  C  314  1  0.20343100  0.51673400  0.79814200  1
  C  315  1  0.28562200  0.52231700  0.88353600  1
  C  316  1  0.28493800  0.52072500  0.92530900  1
  C  317  1  0.26963100  0.48675200  0.94518400  1
  C  318  1  0.25521300  0.45448200  0.92232100  1
  C  319  1  0.25534800  0.45632100  0.88055400  1
  C  336  1  0.24683900  0.47343400  0.19508600  1
  C  337  1  0.29694100  0.52811500  0.19613300  1
  C  338  1  0.27071500  0.50302100  0.13244300  1
  C  339  1  0.34033900  0.52557500  0.19409900  1
  C  340  1  0.36528000  0.55226700  0.21560400  1
  C  341  1  0.34751900  0.58226700  0.23941700  1
  C  342  1  0.30391400  0.58421800  0.24179100  1
  C  343  1  0.27899000  0.55765700  0.22025400  1
  C  344  1  0.26551500  0.44223700  0.21644400  1
  C  345  1  0.24128700  0.41468400  0.23746900  1
  C  346  1  0.19765000  0.41735100  0.23737700  1
  C  347  1  0.17918500  0.44881600  0.21608000  1
  C  348  1  0.20342700  0.47647500  0.19507700  1
  C  349  1  0.28561900  0.47088600  0.10967600  1
  C  350  1  0.28493700  0.47247800  0.06790400  1
  C  351  1  0.26964300  0.50645800  0.04802700  1
  C  352  1  0.25519900  0.53871500  0.07088900  1
  C  353  1  0.25534300  0.53688200  0.11265700  1
  C  369  1  0.29614100  0.73956600  0.75758800  1
  C  371  1  0.36554500  0.75476100  0.74063200  1
  C  373  1  0.35121000  0.70711800  0.79061800  1
  C  375  1  0.36379500  0.68046100  0.81897000  1
  C  376  1  0.25418700  0.74487700  0.75169300  1
  C  377  1  0.39513500  0.77458000  0.71896100  1
  C  381  1  0.29614800  0.08523740  0.12661500  1
  C  383  1  0.36555400  0.07003940  0.14356200  1
  C  385  1  0.35121400  0.11768700  0.09358240  1
  C  387  1  0.36379500  0.14434900  0.06523440  1
  C  388  1  0.25419400  0.07992340  0.13250700  1
  C  389  1  0.39514600  0.05021140  0.16522500  1
  C  393  1  0.79615300  0.09690640  0.76927800  1
  C  395  1  0.86555600  0.11387300  0.78446100  1
  C  397  1  0.85122400  0.06387040  0.73683600  1
  C  399  1  0.86380700  0.03551640  0.71018300  1
  C  400  1  0.75419800  0.10279500  0.77459200  1
  C  401  1  0.89514100  0.13556300  0.80426800  1
  C  405  1  0.79614100  0.72790300  0.11491900  1
  C  407  1  0.86554700  0.71093400  0.09974240  1
  C  409  1  0.85121200  0.76094200  0.14736000  1
  C  411  1  0.86379200  0.78929600  0.17401600  1
  C  412  1  0.75418900  0.72201100  0.10960600  1
  C  413  1  0.89513100  0.68924900  0.07993240  1
  C  417  1  0.68223300  0.09052940  0.75901400  1
  C  419  1  0.61262700  0.07635640  0.74186900  1
  C  421  1  0.62765500  0.12565300  0.78999700  1
  C  423  1  0.61566100  0.15307800  0.81779600  1
  C  424  1  0.72415400  0.08385640  0.75425000  1
  C  425  1  0.58274600  0.05636540  0.72070000  1
  C  429  1  0.68222400  0.73426500  0.12519800  1
  C  431  1  0.61261800  0.74843800  0.14234700  1
  C  433  1  0.62764600  0.69911600  0.09424540  1
  C  435  1  0.61564900  0.67167600  0.06646040  1
  C  436  1  0.72414500  0.74094500  0.12995600  1
  C  437  1  0.58273700  0.76844400  0.16350200  1
  C  441  1  0.18222200  0.72930200  0.76395900  1
  C  443  1  0.11261300  0.71217100  0.77814400  1
  C  445  1  0.12764400  0.76025300  0.72880300  1
  C  447  1  0.11565100  0.78802800  0.70135400  1
  C  448  1  0.22414200  0.72454100  0.77063600  1
  C  449  1  0.08272880  0.69102600  0.79815600  1
  C  453  1  0.18222800  0.09551040  0.12025300  1
  C  455  1  0.11262200  0.11265900  0.10608300  1
  C  457  1  0.12765100  0.06453940  0.15538500  1
  C  459  1  0.11565700  0.03673940  0.18281000  1
  C  460  1  0.22414900  0.10027100  0.11357600  1
  C  461  1  0.08274080  0.13382300  0.08608340  1
  C  466  1  0.51691200  0.60907200  0.96491600  1
  C  467  1  0.47104000  0.61046000  0.90762400  1
  C  468  1  0.49529300  0.54696600  0.93363300  1
  C  469  1  0.42767000  0.60902200  0.90987800  1
  C  470  1  0.40356000  0.63102800  0.88311300  1
  C  471  1  0.42250500  0.65476100  0.85358500  1
  C  472  1  0.46594600  0.65610000  0.85158000  1
  C  473  1  0.49008300  0.63407200  0.87832800  1
  C  474  1  0.49536000  0.62886300  0.99544400  1
  C  475  1  0.51705000  0.64962600  0.02500540  1
  C  476  1  0.56053500  0.65049300  0.02480040  1
  C  477  1  0.58201500  0.63071200  0.99399200  1
  C  478  1  0.56034000  0.61004800  0.96436300  1
  C  479  1  0.47694200  0.52500800  0.96460700  1
  C  480  1  0.47689600  0.48332000  0.96338300  1
  C  481  1  0.49498700  0.46303600  0.93098300  1
  C  482  1  0.51265200  0.48510000  0.89972100  1
  C  483  1  0.51317300  0.52680900  0.90120600  1
  C  500  1  0.51691100  0.21573300  0.91929900  1
  C  501  1  0.47103900  0.21436700  0.97658800  1
  C  502  1  0.49529600  0.27785100  0.95056500  1
  C  503  1  0.42766800  0.21580400  0.97433400  1
  C  504  1  0.40355900  0.19380800  0.00111145  1
  C  505  1  0.42250500  0.17007800  0.03063940  1
  C  506  1  0.46594500  0.16873000  0.03263840  1
  C  507  1  0.49008200  0.19075500  0.00588445  1
  C  508  1  0.49536200  0.19593500  0.88877400  1
  C  509  1  0.51705400  0.17516300  0.85922200  1
  C  510  1  0.56053800  0.17428600  0.85943600  1
  C  511  1  0.58201500  0.19406100  0.89025000  1
  C  512  1  0.56034000  0.21475300  0.91985800  1
  C  513  1  0.47695100  0.29980800  0.91958700  1
  C  514  1  0.47689900  0.34149500  0.92081100  1
  C  515  1  0.49498500  0.36178000  0.95321100  1
  C  516  1  0.51265300  0.33971900  0.98447600  1
  C  517  1  0.51317900  0.29801100  0.98299100  1
  C  534  1  0.01692180  0.88959300  0.63876300  1
  C  535  1  0.97105400  0.94688500  0.64015200  1
  C  536  1  0.99530000  0.92087600  0.57665700  1
  C  537  1  0.92768300  0.94463400  0.63870800  1
  C  538  1  0.90357200  0.97139000  0.66072800  1
  C  539  1  0.92251800  0.00092742  0.68444800  1
  C  540  1  0.96595900  0.00292942  0.68579300  1
  C  541  1  0.99009700  0.97617800  0.66376500  1
  C  542  1  0.99536800  0.85906500  0.65855400  1
  C  543  1  0.01705780  0.82949500  0.67930600  1
  C  544  1  0.06054580  0.82968500  0.68015100  1
  C  545  1  0.08202280  0.86051400  0.66040600  1
  C  546  1  0.06035080  0.89014300  0.63974100  1
  C  547  1  0.97694700  0.88990500  0.55470000  1
  C  548  1  0.97688900  0.89113200  0.51301200  1
  C  549  1  0.99498300  0.92353200  0.49272700  1
  C  550  1  0.01263480  0.95480000  0.51479000  1
  C  551  1  0.01317780  0.95330600  0.55649900  1
  C  568  1  0.01691880  0.93520100  0.24542100  1
  C  569  1  0.97104400  0.87791200  0.24405800  1
  C  570  1  0.99530300  0.90393900  0.30754200  1
  C  571  1  0.92767400  0.88017000  0.24549800  1
  C  572  1  0.90356300  0.85340700  0.22348700  1
  C  573  1  0.92250800  0.82385800  0.19977800  1
  C  574  1  0.96594700  0.82185900  0.19843000  1
  C  575  1  0.99008500  0.84861300  0.22044900  1
  C  576  1  0.99536800  0.96572100  0.22561700  1
  C  577  1  0.01705780  0.99527800  0.20484800  1
  C  578  1  0.06054180  0.99506100  0.20396900  1
  C  579  1  0.08202280  0.96427100  0.22377300  1
  C  580  1  0.06034780  0.93464200  0.24443200  1
  C  581  1  0.97695600  0.93491900  0.32949600  1
  C  582  1  0.97691300  0.93370400  0.37118300  1
  C  583  1  0.99498300  0.90129500  0.39147100  1
  C  584  1  0.01265380  0.87003000  0.36941300  1
  C  585  1  0.01318080  0.87151200  0.32770500  1
  C  602  1  0.96273300  0.21392700  0.91892500  1
  C  603  1  0.01283280  0.21286700  0.97360900  1
  C  604  1  0.98661600  0.27656200  0.94851800  1
  C  605  1  0.05623080  0.21490100  0.97107800  1
  C  606  1  0.08116780  0.19339800  0.99777000  1
  C  607  1  0.06340080  0.16959700  0.02777640  1
  C  608  1  0.01979580  0.16720900  0.02971240  1
  C  609  1  0.99487800  0.18874400  0.00314645  1
  C  610  1  0.98140700  0.19257300  0.88772200  1
  C  611  1  0.95717600  0.17154200  0.86017800  1
  C  612  1  0.91354000  0.17165800  0.86282800  1
  C  613  1  0.89507600  0.19294700  0.89430100  1
  C  614  1  0.91931900  0.21394800  0.92196000  1
  C  615  1  0.00152381  0.29933000  0.91638600  1
  C  616  1  0.00084481  0.34110300  0.91798100  1
  C  617  1  0.98552700  0.36097800  0.95194900  1
  C  618  1  0.97109700  0.33811800  0.98421200  1
  C  619  1  0.97124200  0.29634800  0.98237900  1
  C  636  1  0.96272700  0.61086600  0.96528700  1
  C  637  1  0.01282680  0.61193900  0.91060600  1
  C  638  1  0.98661600  0.54823600  0.93568500  1
  C  639  1  0.05622780  0.60990600  0.91313700  1
  C  640  1  0.08116180  0.63142100  0.88645100  1
  C  641  1  0.06339480  0.65525100  0.85646900  1
  C  642  1  0.01978980  0.65762400  0.85452100  1
  C  643  1  0.99487200  0.63606800  0.88107200  1
  C  644  1  0.98140100  0.63222000  0.99649000  1
  C  645  1  0.95716900  0.65324100  0.02404340  1
  C  646  1  0.91353100  0.65313600  0.02138140  1
  C  647  1  0.89507000  0.63185000  0.98990800  1
  C  648  1  0.91931600  0.61084400  0.96225200  1
  C  649  1  0.00152081  0.52546800  0.96782000  1
  C  650  1  0.00085381  0.48369600  0.96621700  1
  C  651  1  0.98554200  0.46382100  0.93224300  1
  C  652  1  0.97110600  0.48668500  0.89998500  1
  C  653  1  0.97124200  0.52845400  0.90182400  1
  C  670  1  0.46272400  0.93557500  0.24362700  1
  C  671  1  0.51282500  0.88089400  0.24257600  1
  C  672  1  0.48660000  0.90598500  0.30626800  1
  C  673  1  0.55622600  0.88342500  0.24461300  1
  C  674  1  0.58116400  0.85674200  0.22309800  1
  C  675  1  0.56339700  0.82675400  0.19927000  1
  C  676  1  0.51979300  0.82480000  0.19690300  1
  C  677  1  0.49487100  0.85135800  0.21844700  1
  C  678  1  0.48140000  0.96677200  0.22227300  1
  C  679  1  0.45717300  0.99431900  0.20123600  1
  C  680  1  0.41353600  0.99164300  0.20131600  1
  C  681  1  0.39507100  0.96018700  0.22262600  1
  C  682  1  0.41931200  0.93253400  0.24364200  1
  C  683  1  0.50150300  0.93811700  0.32903600  1
  C  684  1  0.50081900  0.93652500  0.37080900  1
  C  685  1  0.48551200  0.90255200  0.39068400  1
  C  686  1  0.47109400  0.87028200  0.36782100  1
  C  687  1  0.47122900  0.87212100  0.32605400  1
  C  704  1  0.46272000  0.88923400  0.64058600  1
  C  705  1  0.51282200  0.94391500  0.64163300  1
  C  706  1  0.48659600  0.91882100  0.57794300  1
  C  707  1  0.55622000  0.94137500  0.63959900  1
  C  708  1  0.58116100  0.96806700  0.66110400  1
  C  709  1  0.56340000  0.99806700  0.68491700  1
  C  710  1  0.51979500  0.00001842  0.68729100  1
  C  711  1  0.49487100  0.97345700  0.66575400  1
  C  712  1  0.48139600  0.85803700  0.66194400  1
  C  713  1  0.45716800  0.83048400  0.68296900  1
  C  714  1  0.41353100  0.83315100  0.68287700  1
  C  715  1  0.39506600  0.86461600  0.66158000  1
  C  716  1  0.41930800  0.89227500  0.64057700  1
  C  717  1  0.50150000  0.88668600  0.55517600  1
  C  718  1  0.50081800  0.88827800  0.51340400  1
  C  719  1  0.48552400  0.92225800  0.49352700  1
  C  720  1  0.47108000  0.95451500  0.51638900  1
  C  721  1  0.47122400  0.95268200  0.55815700  1
  N  2  1  0.10836100  0.34445800  0.29012000  1
  N  4  1  0.16250600  0.31224000  0.32268800  1
  N  6  1  0.09450400  0.29742000  0.33937400  1
  N  14  1  0.10836900  0.64874200  0.70307500  1
  N  16  1  0.16251200  0.68096300  0.67050600  1
  N  18  1  0.09450800  0.69578400  0.65382900  1
  N  26  1  0.60837100  0.70308400  0.34445800  1
  N  28  1  0.66251700  0.67051200  0.31224600  1
  N  30  1  0.59451700  0.65381100  0.29744000  1
  N  38  1  0.60836100  0.29012600  0.64873900  1
  N  40  1  0.66250700  0.32270000  0.68095100  1
  N  42  1  0.59450500  0.33940100  0.69575400  1
  N  50  1  0.43796700  0.65385300  0.29206100  1
  N  52  1  0.38427400  0.68861700  0.32275700  1
  N  54  1  0.45245800  0.70251700  0.33949300  1
  N  62  1  0.43795700  0.33935000  0.70114400  1
  N  64  1  0.38426500  0.30456200  0.67047600  1
  N  66  1  0.45244900  0.29065900  0.65373700  1
  N  74  1  0.93795300  0.29206800  0.33935300  1
  N  76  1  0.88426300  0.32273300  0.30455900  1
  N  78  1  0.95244800  0.33945400  0.29064600  1
  N  86  1  0.93796200  0.70116200  0.65387700  1
  N  88  1  0.88426900  0.67047600  0.68864700  1
  N  90  1  0.95245400  0.65373700  0.70254600  1
  N  97  1  0.27942600  0.17301700  0.48926400  1
  N  128  1  0.27936400  0.00819200  0.48256100  1
  N  129  1  0.36288600  0.25622900  0.60716200  1
  N  130  1  0.18626500  0.26118200  0.38219500  1
  N  131  1  0.27942300  0.82020000  0.50394200  1
  N  162  1  0.27937100  0.98502700  0.51063000  1
  N  163  1  0.36288900  0.73694500  0.38608000  1
  N  164  1  0.18626700  0.73204700  0.61102300  1
  N  165  1  0.77943800  0.50394800  0.17300800  1
  N  196  1  0.77935800  0.51065100  0.00818200  1
  N  197  1  0.86288800  0.38603000  0.25619900  1
  N  198  1  0.68627900  0.61101400  0.26117700  1
  N  199  1  0.77943200  0.48925800  0.82019100  1
  N  230  1  0.77937000  0.48258500  0.98501800  1
  N  231  1  0.86289400  0.60713800  0.73695400  1
  N  232  1  0.68627000  0.38218100  0.73204100  1
  N  233  1  0.77156700  0.81869400  0.50145000  1
  N  264  1  0.76938100  0.98439400  0.51014000  1
  N  265  1  0.67277700  0.73562900  0.39295900  1
  N  266  1  0.87299100  0.73379100  0.60627700  1
  N  267  1  0.77156400  0.17450600  0.49175900  1
  N  298  1  0.76937800  0.00880500  0.48305400  1
  N  299  1  0.67276800  0.25757100  0.60024700  1
  N  300  1  0.87298200  0.25944600  0.38695600  1
  N  301  1  0.27155800  0.49175300  0.81870000  1
  N  332  1  0.26937000  0.48305400  0.98440000  1
  N  333  1  0.17277400  0.60023000  0.73560500  1
  N  334  1  0.37298700  0.38694700  0.73377300  1
  N  335  1  0.27155400  0.50145300  0.17451200  1
  N  366  1  0.26935400  0.51014300  0.00881100  1
  N  367  1  0.17276800  0.39296800  0.25759300  1
  N  368  1  0.37299000  0.60626200  0.25942700  1
  N  370  1  0.32424200  0.76025800  0.73562000  1
  N  372  1  0.37838700  0.72804000  0.76818800  1
  N  374  1  0.31038500  0.71322000  0.78487400  1
  N  382  1  0.32425000  0.06454240  0.14857500  1
  N  384  1  0.37839300  0.09676340  0.11600600  1
  N  386  1  0.31038900  0.11158400  0.09932940  1
  N  394  1  0.82425200  0.11888400  0.78995800  1
  N  396  1  0.87839800  0.08631240  0.75774600  1
  N  398  1  0.81039800  0.06961140  0.74294000  1
  N  406  1  0.82424200  0.70592600  0.09423940  1
  N  408  1  0.87838800  0.73850000  0.12645100  1
  N  410  1  0.81038600  0.75520100  0.14125400  1
  N  418  1  0.65384800  0.06965340  0.73756100  1
  N  420  1  0.60015500  0.10441700  0.76825700  1
  N  422  1  0.66833900  0.11831700  0.78499300  1
  N  430  1  0.65383800  0.75515000  0.14664400  1
  N  432  1  0.60014600  0.72036200  0.11597600  1
  N  434  1  0.66833000  0.70645900  0.09923740  1
  N  442  1  0.15383400  0.70786800  0.78485300  1
  N  444  1  0.10014400  0.73853300  0.75005900  1
  N  446  1  0.16832900  0.75525400  0.73614600  1
  N  454  1  0.15384300  0.11696200  0.09937740  1
  N  456  1  0.10015000  0.08627640  0.13414700  1
  N  458  1  0.16833500  0.06953740  0.14804600  1
  N  465  1  0.49530700  0.58881700  0.93476400  1
  N  496  1  0.49524500  0.42399200  0.92806100  1
  N  497  1  0.57876700  0.67202900  0.05266240  1
  N  498  1  0.40214600  0.67698200  0.82769500  1
  N  499  1  0.49530400  0.23600000  0.94944200  1
  N  530  1  0.49525200  0.40082700  0.95613000  1
  N  531  1  0.57877000  0.15274500  0.83158000  1
  N  532  1  0.40214800  0.14784700  0.05652340  1
  N  533  1  0.99531900  0.91974800  0.61850800  1
  N  564  1  0.99523900  0.92645100  0.45368200  1
  N  565  1  0.07876880  0.80183000  0.70169900  1
  N  566  1  0.90216000  0.02681440  0.70667700  1
  N  567  1  0.99531300  0.90505800  0.26569100  1
  N  598  1  0.99525100  0.89838500  0.43051800  1
  N  599  1  0.07877480  0.02293840  0.18245400  1
  N  600  1  0.90215100  0.79798100  0.17754100  1
  N  601  1  0.98744800  0.23449400  0.94695000  1
  N  632  1  0.98526200  0.40019400  0.95564000  1
  N  633  1  0.88865800  0.15142900  0.83845900  1
  N  634  1  0.08887180  0.14959100  0.05177740  1
  N  635  1  0.98744500  0.59030600  0.93725900  1
  N  666  1  0.98525900  0.42460500  0.92855400  1
  N  667  1  0.88864900  0.67337100  0.04574740  1
  N  668  1  0.08886280  0.67524600  0.83245600  1
  N  669  1  0.48743900  0.90755300  0.26420000  1
  N  700  1  0.48525100  0.89885400  0.42990000  1
  N  701  1  0.38865500  0.01603040  0.18110500  1
  N  702  1  0.58886800  0.80274700  0.17927300  1
  N  703  1  0.48743500  0.91725300  0.62001200  1
  N  734  1  0.48523500  0.92594300  0.45431100  1
  N  735  1  0.38864900  0.80876800  0.70309300  1
  N  736  1  0.58887100  0.02206240  0.70492700  1
