# generated using pymatgen
data_Tb2H18(C5O4)3
_symmetry_space_group_name_H-M   'P 1'
_cell_length_a   8.00560000
_cell_length_b   8.42997000
_cell_length_c   19.26870000
_cell_angle_alpha   88.13073000
_cell_angle_beta   86.26003000
_cell_angle_gamma   61.71830000
_symmetry_Int_Tables_number   1
_chemical_formula_structural   Tb2H18(C5O4)3
_chemical_formula_sum   'Tb4 H36 C30 O24'
_cell_volume   1142.71644408
_cell_formula_units_Z   2
loop_
 _symmetry_equiv_pos_site_id
 _symmetry_equiv_pos_as_xyz
  1  'x, y, z'
loop_
 _atom_site_type_symbol
 _atom_site_label
 _atom_site_symmetry_multiplicity
 _atom_site_fract_x
 _atom_site_fract_y
 _atom_site_fract_z
 _atom_site_occupancy
  Tb  Tb1  1  0.78634000  0.94191000  0.48379000  1.0
  Tb  Tb2  1  0.26913000  0.94176000  0.01655000  1.0
  Tb  Tb3  1  0.20837000  0.05991000  0.51635000  1.0
  Tb  Tb4  1  0.73168000  0.05714000  0.98363000  1.0
  H  H1  1  0.24496000  0.52002000  0.32961000  1.0
  H  H2  1  0.04070000  0.54213000  0.29359000  1.0
  H  H3  1  0.99390000  0.82445000  0.23000000  1.0
  H  H4  1  0.65931000  0.55205000  0.47006000  1.0
  H  H5  1  0.86258000  0.45664000  0.41341000  1.0
  H  H6  1  0.65746000  0.45180000  0.31771000  1.0
  H  H7  1  0.45664000  0.54988000  0.37619000  1.0
  H  H8  1  0.48487000  0.77354000  0.29319000  1.0
  H  H9  1  0.70167000  0.73121000  0.32957000  1.0
  H  H10  1  0.23191000  0.51959000  0.17165000  1.0
  H  H11  1  0.41490000  0.54237000  0.20696000  1.0
  H  H12  1  0.18153000  0.82347000  0.27075000  1.0
  H  H13  1  0.78729000  0.55243000  0.02944000  1.0
  H  H14  1  0.67864000  0.45584000  0.08544000  1.0
  H  H15  1  0.88908000  0.44723000  0.18156000  1.0
  H  H16  1  0.99188000  0.54763000  0.12378000  1.0
  H  H17  1  0.73972000  0.76897000  0.20694000  1.0
  H  H18  1  0.56625000  0.72657000  0.17004000  1.0
  H  H19  1  0.75349000  0.48115000  0.67079000  1.0
  H  H20  1  0.95846000  0.45858000  0.70681000  1.0
  H  H21  1  0.00446000  0.17715000  0.77062000  1.0
  H  H22  1  0.33764000  0.45074000  0.52946000  1.0
  H  H23  1  0.13505000  0.54387000  0.58642000  1.0
  H  H24  1  0.34094000  0.54940000  0.68187000  1.0
  H  H25  1  0.54133000  0.45098000  0.62319000  1.0
  H  H26  1  0.51251000  0.22779000  0.70642000  1.0
  H  H27  1  0.29571000  0.27061000  0.67008000  1.0
  H  H28  1  0.76614000  0.48103000  0.82929000  1.0
  H  H29  1  0.58328000  0.45923000  0.79349000  1.0
  H  H30  1  0.81720000  0.17755000  0.72982000  1.0
  H  H31  1  0.21218000  0.44672000  0.97066000  1.0
  H  H32  1  0.32069000  0.54305000  0.91446000  1.0
  H  H33  1  0.11109000  0.55063000  0.81830000  1.0
  H  H34  1  0.00765000  0.45118000  0.87619000  1.0
  H  H35  1  0.25942000  0.22889000  0.79335000  1.0
  H  H36  1  0.43362000  0.27125000  0.82993000  1.0
  C  C1  1  0.98843000  0.73513000  0.37149000  1.0
  C  C2  1  0.10850000  0.62109000  0.31021000  1.0
  C  C3  1  0.74596000  0.28322000  0.44609000  1.0
  C  C4  1  0.72271000  0.46441000  0.42399000  1.0
  C  C5  1  0.59513000  0.54302000  0.36249000  1.0
  C  C6  1  0.56534000  0.73157000  0.34034000  1.0
  C  C7  1  0.45079000  0.86687000  0.39622000  1.0
  C  C8  1  0.27375000  0.73467000  0.12890000  1.0
  C  C9  1  0.26797000  0.62082000  0.19050000  1.0
  C  C10  1  0.96882000  0.28248000  0.05342000  1.0
  C  C11  1  0.81100000  0.46338000  0.07518000  1.0
  C  C12  1  0.86046000  0.53998000  0.13714000  1.0
  C  C13  1  0.70180000  0.72777000  0.15952000  1.0
  C  C14  1  0.68058000  0.86437000  0.10384000  1.0
  C  C15  1  0.00999000  0.26595000  0.62884000  1.0
  C  C16  1  0.89008000  0.38012000  0.69017000  1.0
  C  C17  1  0.24985000  0.71930000  0.55470000  1.0
  C  C18  1  0.27438000  0.53725000  0.57583000  1.0
  C  C19  1  0.40276000  0.45819000  0.63708000  1.0
  C  C20  1  0.43217000  0.26984000  0.65927000  1.0
  C  C21  1  0.54669000  0.13394000  0.60359000  1.0
  C  C22  1  0.72461000  0.26555000  0.87135000  1.0
  C  C23  1  0.73009000  0.38025000  0.80997000  1.0
  C  C24  1  0.03107000  0.71640000  0.94649000  1.0
  C  C25  1  0.18852000  0.53529000  0.92476000  1.0
  C  C26  1  0.13934000  0.45830000  0.86284000  1.0
  C  C27  1  0.29794000  0.27029000  0.84057000  1.0
  C  C28  1  0.31922000  0.13385000  0.89628000  1.0
  C  C29  1  0.13255000  0.73350000  0.25035000  1.0
  C  C30  1  0.86594000  0.26781000  0.75011000  1.0
  O  O1  1  0.89121000  0.90567000  0.36467000  1.0
  O  O2  1  0.98242000  0.65887000  0.43009000  1.0
  O  O3  1  0.60974000  0.24645000  0.44436000  1.0
  O  O4  1  0.90607000  0.16123000  0.46868000  1.0
  O  O5  1  0.53302000  0.91341000  0.44102000  1.0
  O  O6  1  0.27212000  0.92891000  0.40224000  1.0
  O  O7  1  0.20002000  0.90537000  0.13535000  1.0
  O  O8  1  0.35658000  0.65836000  0.07052000  1.0
  O  O9  1  0.14148000  0.24624000  0.05553000  1.0
  O  O10  1  0.93172000  0.15953000  0.03117000  1.0
  O  O11  1  0.55064000  0.91292000  0.05937000  1.0
  O  O12  1  0.79819000  0.92551000  0.09769000  1.0
  O  O13  1  0.10783000  0.09542000  0.63554000  1.0
  O  O14  1  0.01536000  0.34213000  0.57013000  1.0
  O  O15  1  0.38435000  0.75769000  0.55834000  1.0
  O  O16  1  0.09077000  0.84055000  0.53111000  1.0
  O  O17  1  0.46502000  0.08650000  0.55891000  1.0
  O  O18  1  0.72551000  0.07170000  0.59770000  1.0
  O  O19  1  0.79969000  0.09485000  0.86470000  1.0
  O  O20  1  0.64161000  0.34115000  0.92984000  1.0
  O  O21  1  0.85819000  0.75328000  0.94440000  1.0
  O  O22  1  0.06877000  0.83895000  0.96877000  1.0
  O  O23  1  0.44935000  0.08561000  0.94065000  1.0
  O  O24  1  0.20176000  0.07247000  0.90244000  1.0
