# generated using pymatgen
data_H8C15(NO)3
_symmetry_space_group_name_H-M   'P 1'
_cell_length_a   22.16325000
_cell_length_b   35.98490000
_cell_length_c   35.98490000
_cell_angle_alpha   90.00000000
_cell_angle_beta   90.00000000
_cell_angle_gamma   90.00000000
_symmetry_Int_Tables_number   1
_chemical_formula_structural   H8C15(NO)3
_chemical_formula_sum   'H128 C240 N48 O48'
_cell_volume   28699.48116804
_cell_formula_units_Z   16
loop_
 _symmetry_equiv_pos_site_id
 _symmetry_equiv_pos_as_xyz
  1  'x, y, z'
loop_
 _atom_site_type_symbol
 _atom_site_label
 _atom_site_symmetry_multiplicity
 _atom_site_fract_x
 _atom_site_fract_y
 _atom_site_fract_z
 _atom_site_occupancy
  C  1  1  0.20840500  0.06688600  0.30551700  1
  C  2  1  0.26511300  0.08535500  0.30568600  1
  C  3  1  0.30250300  0.08760600  0.33733900  1
  C  4  1  0.28113900  0.06918800  0.37016100  1
  C  5  1  0.22369500  0.05001600  0.37178100  1
  C  6  1  0.18790500  0.04889100  0.33894500  1
  C  9  1  0.17372500  0.06683100  0.27144200  1
  C  10  1  0.16091100  0.09897700  0.24891200  1
  C  11  1  0.12873100  0.09446600  0.21458000  1
  C  12  1  0.10819100  0.05780300  0.20453200  1
  C  13  1  0.11913300  0.02521900  0.22683700  1
  C  14  1  0.15364900  0.03157200  0.25894900  1
  C  27  1  0.20762500  0.95154600  0.71196800  1
  C  28  1  0.26451100  0.93315200  0.71258500  1
  C  29  1  0.30279900  0.93032600  0.68136100  1
  C  30  1  0.28348900  0.94935300  0.64859100  1
  C  31  1  0.22792900  0.96951200  0.64632900  1
  C  32  1  0.18896300  0.96981500  0.67804200  1
  C  35  1  0.17299300  0.95176800  0.74638200  1
  C  36  1  0.16079500  0.91975800  0.76938100  1
  C  37  1  0.12882900  0.92429800  0.80382900  1
  C  38  1  0.10844900  0.96102200  0.81387200  1
  C  39  1  0.11954900  0.99366900  0.79159800  1
  C  40  1  0.15336500  0.98706900  0.75917100  1
  C  53  1  0.82133100  0.30552000  0.95165200  1
  C  54  1  0.76461900  0.30570000  0.93318000  1
  C  55  1  0.72716100  0.33733600  0.93099600  1
  C  56  1  0.74855300  0.37016100  0.94939800  1
  C  57  1  0.80605300  0.37175900  0.96850300  1
  C  58  1  0.84183300  0.33892800  0.96968100  1
  C  61  1  0.85598700  0.27143500  0.95171600  1
  C  62  1  0.86885100  0.24892500  0.91956300  1
  C  63  1  0.90087700  0.21454000  0.92410400  1
  C  64  1  0.92156900  0.20455400  0.96075500  1
  C  65  1  0.91079900  0.22692500  0.99332700  1
  C  66  1  0.87604700  0.25895400  0.98698900  1
  C  79  1  0.82207100  0.71196800  0.06699100  1
  C  80  1  0.76521100  0.71258800  0.08540700  1
  C  81  1  0.72693500  0.68135800  0.08823600  1
  C  82  1  0.74621100  0.64860200  0.06917800  1
  C  83  1  0.80184700  0.64630700  0.04911100  1
  C  84  1  0.84074500  0.67805100  0.04871500  1
  C  87  1  0.85673100  0.74635700  0.06682700  1
  C  88  1  0.86891500  0.76937200  0.09883500  1
  C  89  1  0.90079500  0.80387900  0.09438800  1
  C  90  1  0.92141900  0.81393600  0.05775600  1
  C  91  1  0.91044700  0.79155400  0.02521700  1
  C  92  1  0.87639500  0.75916300  0.03158000  1
  C  105  1  0.20979500  0.56742100  0.21276800  1
  C  106  1  0.26706500  0.58574000  0.21159400  1
  C  107  1  0.30380300  0.58667600  0.17927100  1
  C  108  1  0.28119300  0.56859100  0.14707900  1
  C  109  1  0.22327700  0.55013900  0.14633500  1
  C  110  1  0.18834910  0.54930500  0.17955700  1
  C  113  1  0.17498910  0.56701500  0.24710800  1
  C  114  1  0.16137710  0.59903700  0.26963000  1
  C  115  1  0.12883310  0.59450200  0.30388300  1
  C  116  1  0.10828510  0.55783700  0.31392300  1
  C  117  1  0.11930310  0.52530900  0.29155600  1
  C  118  1  0.15414510  0.53178100  0.25950300  1
  C  131  1  0.20919100  0.45113400  0.80699700  1
  C  132  1  0.26657500  0.43277000  0.80723600  1
  C  133  1  0.30409100  0.43120800  0.83921000  1
  C  134  1  0.28338500  0.44987500  0.87128500  1
  C  135  1  0.22748300  0.46942700  0.87270200  1
  C  136  1  0.18935110  0.46944400  0.84063000  1
  C  139  1  0.17463310  0.45211700  0.77255400  1
  C  140  1  0.16173910  0.41986500  0.74968900  1
  C  141  1  0.12956310  0.42356600  0.71528300  1
  C  142  1  0.10934510  0.45945900  0.70486800  1
  C  143  1  0.12048910  0.49106100  0.72683200  1
  C  144  1  0.15417710  0.48762400  0.76007700  1
  C  157  1  0.81995100  0.80576500  0.56746600  1
  C  158  1  0.76265900  0.80694700  0.58576200  1
  C  159  1  0.72592700  0.83927400  0.58667600  1
  C  160  1  0.74852300  0.87146500  0.56858600  1
  C  161  1  0.80645100  0.87217100  0.55014700  1
  C  162  1  0.84137900  0.83895400  0.54929100  1
  C  165  1  0.85475700  0.77143200  0.56706000  1
  C  166  1  0.86844100  0.74887800  0.59904500  1
  C  167  1  0.90084300  0.71458800  0.59438000  1
  C  168  1  0.92157100  0.70469300  0.55770300  1
  C  169  1  0.91051100  0.72714900  0.52522800  1
  C  170  1  0.87554900  0.75913800  0.53177800  1
  C  183  1  0.82064700  0.21174400  0.45102000  1
  C  184  1  0.76316900  0.21134800  0.43275600  1
  C  185  1  0.72564300  0.17936000  0.43123400  1
  C  186  1  0.74637500  0.14727800  0.44987200  1
  C  187  1  0.80234500  0.14587300  0.46934400  1
  C  188  1  0.84034100  0.17805500  0.46946300  1
  C  191  1  0.85543300  0.24637600  0.45153100  1
  C  192  1  0.86842900  0.26937900  0.41964800  1
  C  193  1  0.90068900  0.30380000  0.42412500  1
  C  194  1  0.92132300  0.31384800  0.46076000  1
  C  195  1  0.91028100  0.29140000  0.49324000  1
  C  196  1  0.87589500  0.25907300  0.48675400  1
  C  209  1  0.20359700  0.01733300  0.46991100  1
  C  210  1  0.25223900  0.01260800  0.49509100  1
  C  211  1  0.24482300  0.00486800  0.53303700  1
  C  212  1  0.18683300  0.00130900  0.54999700  1
  C  213  1  0.13757300  0.00643600  0.52488700  1
  C  214  1  0.14532500  0.01451200  0.48632000  1
  C  219  1  0.33929900  0.00734700  0.51787000  1
  C  221  1  0.22006500  0.02233100  0.43202500  1
  C  223  1  0.17515500  0.99154300  0.58783500  1
  C  225  1  0.82613100  0.46991600  0.00121700  1
  C  226  1  0.77748700  0.49509400  0.00595800  1
  C  227  1  0.78489700  0.53304000  0.01369100  1
  C  228  1  0.84288900  0.55000300  0.01723600  1
  C  229  1  0.89215100  0.52489200  0.01212700  1
  C  230  1  0.88440300  0.48632600  0.00404900  1
  C  235  1  0.69041500  0.51787000  0.01119700  1
  C  237  1  0.80964500  0.43204500  0.99613700  1
  C  239  1  0.85457900  0.58784400  0.02696400  1
  C  241  1  0.20360910  0.51728600  0.04861600  1
  C  242  1  0.25225700  0.51259300  0.02345200  1
  C  243  1  0.24482700  0.50487500  0.98551000  1
  C  244  1  0.18680710  0.50134300  0.96857300  1
  C  245  1  0.13756710  0.50644000  0.99367500  1
  C  246  1  0.14533310  0.51450200  0.03222900  1
  C  251  1  0.33931100  0.50734900  0.00068300  1
  C  253  1  0.22008700  0.52238600  0.08643400  1
  C  255  1  0.17492310  0.49162000  0.93079300  1
  C  257  1  0.82611900  0.96993400  0.51728600  1
  C  258  1  0.77747100  0.99509800  0.51257600  1
  C  259  1  0.78489300  0.03304000  0.50486400  1
  C  260  1  0.84291300  0.04998200  0.50134600  1
  C  261  1  0.89215300  0.02487800  0.50642300  1
  C  262  1  0.88439500  0.98632400  0.51448800  1
  C  267  1  0.69039900  0.01786300  0.50735200  1
  C  269  1  0.80962300  0.93213000  0.52246900  1
  C  271  1  0.85481100  0.08776700  0.49165900  1
  C  273  1  0.45771700  0.12944800  0.35932600  1
  C  274  1  0.49443500  0.11777700  0.38964700  1
  C  275  1  0.54870900  0.13508300  0.40059300  1
  C  276  1  0.57350300  0.16656300  0.38204600  1
  C  277  1  0.53711300  0.17857800  0.35139700  1
  C  278  1  0.48173300  0.16099500  0.34039000  1
  C  283  1  0.52753900  0.08904000  0.43636900  1
  C  285  1  0.40475100  0.10730600  0.35197500  1
  C  287  1  0.62817900  0.18599900  0.39190000  1
  C  289  1  0.45767100  0.88915600  0.65913700  1
  C  290  1  0.49445700  0.90081900  0.62886900  1
  C  291  1  0.54871900  0.88347000  0.61798100  1
  C  292  1  0.57349900  0.85199000  0.63655300  1
  C  293  1  0.53695500  0.84004600  0.66719300  1
  C  294  1  0.48156300  0.85765100  0.67814500  1
  C  299  1  0.52757500  0.92950600  0.58215800  1
  C  301  1  0.40452500  0.91102600  0.66624600  1
  C  303  1  0.62825500  0.83248800  0.62665700  1
  C  305  1  0.57202500  0.35934200  0.88908600  1
  C  306  1  0.53530300  0.38966100  0.90076400  1
  C  307  1  0.48101100  0.40059000  0.88346700  1
  C  308  1  0.45620700  0.38202400  0.85199900  1
  C  309  1  0.49261500  0.35138900  0.83997400  1
  C  310  1  0.54801300  0.34039800  0.85754800  1
  C  315  1  0.50218500  0.43636900  0.92951200  1
  C  317  1  0.62498300  0.35198100  0.91122600  1
  C  319  1  0.40151300  0.39185600  0.83257100  1
  C  321  1  0.57204300  0.65914300  0.12938900  1
  C  322  1  0.53525700  0.62887200  0.11772500  1
  C  323  1  0.48100100  0.61798100  0.13507700  1
  C  324  1  0.45622500  0.63654700  0.16656000  1
  C  325  1  0.49276300  0.66719300  0.17850200  1
  C  326  1  0.54815300  0.67814800  0.16089300  1
  C  331  1  0.50214500  0.58215500  0.08904200  1
  C  333  1  0.62519500  0.66624300  0.10752000  1
  C  335  1  0.40147700  0.62664300  0.18606700  1
  C  337  1  0.04950100  0.16051400  0.15378500  1
  C  338  1  0.01038300  0.19168600  0.15451100  1
  C  339  1  0.98063100  0.20651700  0.12247400  1
  C  340  1  0.98521900  0.19030400  0.08550200  1
  C  341  1  0.02242100  0.15765100  0.08684200  1
  C  342  1  0.05280700  0.14339500  0.11844000  1
  C  347  1  0.96290700  0.23807500  0.17299300  1
  C  349  1  0.07268500  0.14448900  0.18703900  1
  C  351  1  0.96177500  0.19823300  0.04783400  1
  C  353  1  0.04954500  0.85804600  0.86476500  1
  C  354  1  0.01041900  0.82687700  0.86404300  1
  C  355  1  0.98062700  0.81206300  0.89605600  1
  C  356  1  0.98502100  0.82836700  0.93298300  1
  C  357  1  0.02250700  0.86090000  0.93170700  1
  C  358  1  0.05286100  0.87517500  0.90010500  1
  C  363  1  0.96291700  0.78048000  0.84558200  1
  C  365  1  0.07271700  0.87408600  0.83149300  1
  C  367  1  0.96217700  0.81993300  0.97064800  1
  C  369  1  0.98034100  0.15379800  0.85793200  1
  C  370  1  0.01946100  0.15439100  0.82676000  1
  C  371  1  0.04938700  0.12228000  0.81206500  1
  C  372  1  0.04504300  0.08532900  0.82847800  1
  C  373  1  0.00722900  0.08679200  0.86081400  1
  C  374  1  0.97698500  0.11844700  0.87501700  1
  C  379  1  0.06680700  0.17302600  0.78044700  1
  C  381  1  0.95711500  0.18702900  0.87405200  1
  C  383  1  0.06757700  0.04751700  0.82044900  1
  C  385  1  0.98012100  0.86477100  0.16054400  1
  C  386  1  0.01930100  0.86405700  0.19168500  1
  C  387  1  0.04910700  0.89607300  0.20648400  1
  C  388  1  0.04469900  0.93299400  0.19016200  1
  C  389  1  0.00721100  0.93169300  0.15763300  1
  C  390  1  0.97683100  0.90009400  0.14338100  1
  C  395  1  0.06681100  0.84558800  0.23806800  1
  C  397  1  0.95698300  0.83146500  0.14455700  1
  C  399  1  0.06747700  0.97067100  0.19856800  1
  C  401  1  0.04951710  0.66045500  0.36483600  1
  C  402  1  0.01043310  0.69163200  0.36409400  1
  C  403  1  0.98069500  0.70647700  0.39608000  1
  C  404  1  0.98510700  0.69024200  0.43299300  1
  C  405  1  0.02248910  0.65764800  0.43182000  1
  C  406  1  0.05283310  0.64335300  0.40020400  1
  C  411  1  0.96291300  0.73803200  0.34566200  1
  C  413  1  0.07267710  0.64448700  0.33152500  1
  C  415  1  0.96158700  0.69867100  0.47045500  1
  C  417  1  0.04956510  0.35808600  0.65379600  1
  C  418  1  0.01044310  0.32690100  0.65451300  1
  C  419  1  0.98062700  0.31207200  0.62250800  1
  C  420  1  0.98499900  0.32834600  0.58556800  1
  C  421  1  0.02248110  0.36089000  0.58683500  1
  C  422  1  0.05286910  0.37517400  0.61842900  1
  C  427  1  0.96292700  0.28048400  0.67296500  1
  C  429  1  0.07273110  0.37412600  0.68708500  1
  C  431  1  0.96211100  0.31986500  0.54788800  1
  C  433  1  0.98007300  0.65380500  0.66037400  1
  C  434  1  0.01897510  0.65507200  0.69159300  1
  C  435  1  0.04876310  0.62375000  0.70675700  1
  C  436  1  0.04430910  0.58747400  0.69080100  1
  C  437  1  0.00725310  0.58721300  0.65784000  1
  C  438  1  0.97677900  0.61843100  0.64326700  1
  C  443  1  0.06681110  0.67321500  0.73812600  1
  C  445  1  0.95704300  0.68699300  0.64440600  1
  C  447  1  0.07102910  0.55293700  0.70323400  1
  C  449  1  0.98011700  0.36477000  0.35800800  1
  C  450  1  0.01929510  0.36405300  0.32686500  1
  C  451  1  0.04911110  0.39606900  0.31206400  1
  C  452  1  0.04471510  0.43299800  0.32836800  1
  C  453  1  0.00722110  0.43169800  0.36090700  1
  C  454  1  0.97683700  0.40009800  0.37516600  1
  C  459  1  0.06681110  0.34558600  0.28047900  1
  C  461  1  0.95698500  0.33146100  0.37399800  1
  C  463  1  0.06755510  0.47067800  0.31991700  1
  H  7  1  0.27989300  0.09811600  0.28184300  1
  H  16  1  0.16473500  0.00860300  0.27447600  1
  H  19  1  0.10214500  0.04190300  0.32720700  1
  H  20  1  0.18026100  0.13783300  0.28522000  1
  H  21  1  0.30150500  0.07115400  0.42421700  1
  H  22  1  0.07075500  0.07195200  0.15537100  1
  H  33  1  0.27875500  0.92069100  0.73668700  1
  H  42  1  0.16411300  0.00994200  0.74342300  1
  H  45  1  0.10356300  0.97821800  0.68975600  1
  H  46  1  0.18025900  0.88069100  0.73327700  1
  H  47  1  0.30777100  0.95551400  0.59526600  1
  H  48  1  0.07087700  0.94651300  0.86306400  1
  H  59  1  0.74984700  0.28186300  0.92040200  1
  H  68  1  0.86484900  0.27442600  0.00994100  1
  H  71  1  0.92759300  0.32718200  0.97665700  1
  H  72  1  0.84948100  0.28522200  0.88070000  1
  H  73  1  0.72818900  0.42422800  0.94728900  1
  H  74  1  0.95899500  0.15538200  0.94658800  1
  H  85  1  0.75096700  0.73668900  0.09786900  1
  H  94  1  0.86557100  0.74354500  0.00864500  1
  H  97  1  0.92614900  0.68977800  0.04031400  1
  H  98  1  0.84945900  0.73329100  0.13788600  1
  H  99  1  0.72191300  0.59527700  0.06299400  1
  H  100  1  0.95921300  0.86303100  0.07193800  1
  H  111  1  0.28334100  0.59826700  0.23514700  1
  H  120  1  0.16522510  0.50883500  0.24399000  1
  H  123  1  0.10264510  0.54232200  0.19153600  1
  H  124  1  0.18083310  0.63782600  0.23331900  1
  H  125  1  0.30184900  0.57311000  0.09380500  1
  H  126  1  0.07078510  0.57193100  0.36312200  1
  H  137  1  0.28231100  0.42060400  0.78336400  1
  H  146  1  0.16328110  0.51121700  0.77510000  1
  H  149  1  0.10390910  0.47768100  0.82879200  1
  H  150  1  0.18096910  0.38071000  0.78536800  1
  H  151  1  0.30668500  0.45404000  0.92462600  1
  H  152  1  0.07107910  0.44595600  0.65542700  1
  H  163  1  0.74637100  0.78339500  0.59828400  1
  H  172  1  0.86419500  0.77459400  0.50887400  1
  H  175  1  0.92709700  0.82696600  0.54229400  1
  H  176  1  0.84894100  0.78518500  0.63785100  1
  H  177  1  0.72778900  0.92472900  0.57321000  1
  H  178  1  0.95896500  0.65546600  0.57183700  1
  H  189  1  0.74742100  0.23517300  0.42052600  1
  H  198  1  0.86508100  0.24346200  0.50966900  1
  H  201  1  0.92568500  0.19003200  0.47781100  1
  H  202  1  0.84885500  0.23328000  0.38067600  1
  H  203  1  0.72304300  0.09392800  0.45406500  1
  H  204  1  0.95916900  0.36298500  0.44662600  1
  H  215  1  0.10771500  0.01753600  0.47000000  1
  H  216  1  0.09417500  0.00410700  0.53470500  1
  H  220  1  0.38526500  0.00683600  0.52067900  1
  H  222  1  0.26015300  0.01131200  0.42537000  1
  H  224  1  0.13276900  0.98554600  0.59516900  1
  H  231  1  0.92201900  0.47001400  0.00099700  1
  H  232  1  0.93554700  0.53471600  0.01444200  1
  H  236  1  0.64444700  0.52067700  0.01169600  1
  H  238  1  0.76945100  0.42541200  0.00702800  1
  H  240  1  0.89695500  0.59521900  0.03294000  1
  H  247  1  0.10772510  0.51753900  0.04854600  1
  H  248  1  0.09416710  0.50412200  0.98386200  1
  H  252  1  0.38527900  0.50684000  0.99787100  1
  H  254  1  0.26045500  0.51173400  0.09305700  1
  H  256  1  0.13259110  0.48544000  0.92349500  1
  H  263  1  0.92200700  0.97001200  0.51755300  1
  H  264  1  0.93555300  0.03469700  0.50411700  1
  H  268  1  0.64443100  0.02067300  0.50685400  1
  H  270  1  0.76915100  0.92553200  0.51194800  1
  H  272  1  0.89712900  0.09510200  0.48549500  1
  H  279  1  0.45881300  0.17151700  0.31801400  1
  H  280  1  0.55110900  0.20114400  0.33623500  1
  H  284  1  0.53142900  0.07027000  0.45759700  1
  H  286  1  0.40933700  0.08144200  0.36151800  1
  H  288  1  0.63561100  0.21053600  0.37981200  1
  H  295  1  0.45849700  0.84714100  0.70047400  1
  H  296  1  0.55082500  0.81747900  0.68238900  1
  H  300  1  0.53148700  0.94827000  0.56092400  1
  H  302  1  0.40853700  0.93670400  0.65609700  1
  H  304  1  0.63545300  0.80796400  0.63887900  1
  H  311  1  0.57093300  0.31801900  0.84703000  1
  H  312  1  0.47862300  0.33621900  0.81741500  1
  H  316  1  0.49828700  0.45759500  0.94828600  1
  H  318  1  0.62038900  0.36153200  0.93708700  1
  H  320  1  0.39401900  0.37970900  0.80807200  1
  H  327  1  0.57121900  0.70047400  0.17140800  1
  H  328  1  0.47888900  0.68238600  0.20107200  1
  H  332  1  0.49823700  0.56092100  0.07028300  1
  H  334  1  0.62119300  0.65608600  0.08184600  1
  H  336  1  0.39430300  0.63884000  0.21060300  1
  H  343  1  0.07824100  0.11995500  0.11484000  1
  H  344  1  0.02911900  0.14236400  0.06313600  1
  H  348  1  0.94575700  0.25843300  0.18983400  1
  H  350  1  0.04286900  0.14264000  0.20781800  1
  H  352  1  0.97803700  0.18057400  0.02895400  1
  H  359  1  0.07833300  0.89859600  0.90369300  1
  H  360  1  0.02943700  0.87610300  0.95549800  1
  H  364  1  0.94573900  0.76013000  0.82874500  1
  H  366  1  0.04305700  0.87597500  0.81064300  1
  H  368  1  0.97686700  0.83847600  0.98943700  1
  H  375  1  0.95148300  0.11488800  0.89840400  1
  H  376  1  0.99968900  0.06298700  0.87591400  1
  H  380  1  0.08397700  0.18993000  0.76013200  1
  H  382  1  0.98670300  0.20791600  0.87597300  1
  H  384  1  0.05566900  0.02917900  0.84006000  1
  H  391  1  0.95133900  0.90365600  0.11997000  1
  H  392  1  0.00028500  0.95547000  0.14240800  1
  H  396  1  0.08398100  0.82874700  0.25842200  1
  H  398  1  0.98649100  0.81058700  0.14270500  1
  H  400  1  0.05285900  0.98945400  0.17998400  1
  H  407  1  0.07828910  0.61991300  0.40378000  1
  H  408  1  0.02922110  0.64245000  0.45562100  1
  H  412  1  0.94573700  0.75840100  0.32884900  1
  H  414  1  0.04286110  0.64267500  0.31073900  1
  H  416  1  0.97716700  0.68054400  0.48941900  1
  H  423  1  0.07839710  0.39855300  0.61479700  1
  H  424  1  0.02941110  0.37607100  0.56303600  1
  H  428  1  0.94574500  0.26013000  0.68980000  1
  H  430  1  0.04317310  0.37586000  0.70799700  1
  H  432  1  0.97689700  0.33835800  0.52910200  1
  H  439  1  0.95157100  0.61458300  0.61979600  1
  H  440  1  0.00123300  0.56297800  0.64310000  1
  H  444  1  0.08397910  0.69001100  0.75847300  1
  H  446  1  0.98667300  0.70787200  0.64254700  1
  H  448  1  0.05248110  0.53661900  0.68454000  1
  H  455  1  0.95134100  0.40366100  0.39857800  1
  H  456  1  0.00029500  0.45548500  0.37611600  1
  H  460  1  0.08397910  0.32874900  0.26012300  1
  H  462  1  0.98648500  0.31057700  0.37582700  1
  H  464  1  0.05292310  0.48945500  0.33850000  1
  N  23  1  0.10165500  0.98782800  0.22254100  1
  N  24  1  0.11732100  0.12131000  0.18863200  1
  N  25  1  0.19659500  0.04126700  0.40508900  1
  N  26  1  0.35156900  0.11187700  0.33710500  1
  N  49  1  0.10036900  0.03081000  0.79551400  1
  N  50  1  0.11732100  0.89732600  0.82979200  1
  N  51  1  0.21612900  0.98338700  0.61194800  1
  N  52  1  0.35196500  0.90636300  0.68185200  1
  N  75  1  0.92771500  0.22238700  0.03078500  1
  N  76  1  0.91244100  0.18862300  0.89722900  1
  N  77  1  0.83318300  0.40505600  0.97731200  1
  N  78  1  0.67816100  0.33709100  0.90668000  1
  N  101  1  0.92803900  0.79594500  0.98785000  1
  N  102  1  0.91241300  0.82983700  0.12128700  1
  N  103  1  0.81361100  0.61194000  0.03518800  1
  N  104  1  0.67775100  0.68185500  0.11218300  1
  N  127  1  0.10168310  0.48789600  0.29591800  1
  N  128  1  0.11731310  0.62131000  0.32986900  1
  N  129  1  0.19602910  0.54109100  0.11329600  1
  N  130  1  0.35847900  0.60454500  0.17534800  1
  N  153  1  0.09470310  0.52214700  0.71420500  1
  N  154  1  0.11751710  0.39719400  0.68903600  1
  N  155  1  0.21594500  0.48347800  0.90681100  1
  N  156  1  0.35874500  0.41382900  0.84350100  1
  N  179  1  0.92757100  0.72268100  0.48773800  1
  N  180  1  0.91246100  0.68862700  0.62121300  1
  N  181  1  0.83374500  0.90519900  0.54104900  1
  N  182  1  0.67125100  0.84319200  0.60454500  1
  N  205  1  0.92799100  0.29586000  0.53063100  1
  N  206  1  0.91240700  0.32979400  0.39726100  1
  N  207  1  0.81381500  0.11175200  0.48344700  1
  N  208  1  0.67097500  0.17505500  0.41384800  1
  N  217  1  0.30100900  0.00208100  0.54628400  1
  N  233  1  0.72870500  0.54628400  0.01646600  1
  N  249  1  0.30101900  0.50211000  0.97226300  1
  N  265  1  0.72869300  0.04628300  0.50211000  1
  N  281  1  0.56799300  0.11615900  0.43023900  1
  N  297  1  0.56798900  0.90237000  0.58832200  1
  N  313  1  0.46172700  0.43023600  0.90239500  1
  N  329  1  0.46173100  0.58831900  0.11618000  1
  N  345  1  0.95137900  0.23623200  0.13614800  1
  N  361  1  0.95144300  0.78231400  0.88242800  1
  N  377  1  0.07830900  0.13613700  0.78227200  1
  N  393  1  0.07829300  0.88243600  0.23622800  1
  N  409  1  0.95143100  0.73617800  0.38249600  1
  N  425  1  0.95144900  0.28231800  0.63611900  1
  N  441  1  0.07831710  0.63649700  0.73644800  1
  N  457  1  0.07828910  0.38243500  0.28231800  1
  O  8  1  0.31993700  0.07331000  0.39974300  1
  O  15  1  0.07753300  0.05112600  0.17204400  1
  O  17  1  0.13406100  0.02960900  0.34170200  1
  O  18  1  0.18068700  0.13419800  0.25811600  1
  O  34  1  0.32104100  0.94486800  0.61852300  1
  O  41  1  0.07757700  0.96736900  0.84638800  1
  O  43  1  0.13546300  0.98922000  0.67433000  1
  O  44  1  0.18061100  0.88447100  0.76036000  1
  O  60  1  0.70975900  0.39974300  0.94523500  1
  O  67  1  0.95216900  0.17203600  0.96742200  1
  O  69  1  0.89568900  0.34168200  0.98895300  1
  O  70  1  0.84905700  0.25812100  0.88434300  1
  O  86  1  0.70868500  0.61852300  0.07368600  1
  O  93  1  0.95211900  0.84645500  0.05107400  1
  O  95  1  0.89426300  0.67433300  0.02932800  1
  O  96  1  0.84912500  0.76036900  0.13410300  1
  O  112  1  0.32159700  0.57070000  0.11795800  1
  O  119  1  0.07758110  0.55112500  0.34642300  1
  O  121  1  0.13455310  0.52986900  0.17717700  1
  O  122  1  0.18090910  0.63426900  0.26043100  1
  O  138  1  0.32289300  0.44702100  0.90068600  1
  O  145  1  0.07804110  0.46650400  0.67230400  1
  O  147  1  0.13588510  0.48899400  0.84393100  1
  O  148  1  0.18091910  0.38451100  0.75832600  1
  O  164  1  0.70807700  0.90057500  0.57068400  1
  O  171  1  0.95216500  0.67213400  0.55099800  1
  O  173  1  0.89519300  0.84134400  0.52986400  1
  O  174  1  0.84887300  0.75806800  0.63428800  1
  O  190  1  0.70685900  0.11786700  0.44701800  1
  O  197  1  0.95207100  0.34638100  0.46747100  1
  O  199  1  0.89384500  0.17468500  0.48896900  1
  O  200  1  0.84889100  0.26037000  0.38437200  1
  O  218  1  0.31177500  0.01496900  0.48512600  1
  O  234  1  0.71794700  0.48513100  0.00357600  1
  O  250  1  0.31179300  0.51496900  0.03342100  1
  O  266  1  0.71793100  0.98513200  0.51496900  1
  O  282  1  0.48048900  0.08843800  0.41219800  1
  O  298  1  0.48053700  0.93015100  0.60630400  1
  O  314  1  0.54924100  0.41220300  0.93010900  1
  O  330  1  0.54918100  0.60630400  0.08839800  1
  O  346  1  0.99879500  0.21060700  0.18659500  1
  O  362  1  0.99879500  0.80795000  0.83197400  1
  O  378  1  0.03094700  0.18658100  0.80792200  1
  O  394  1  0.03091500  0.83198200  0.21061300  1
  O  410  1  0.99879700  0.71057600  0.33204500  1
  O  426  1  0.99880700  0.30795700  0.68657100  1
  O  442  1  0.03086910  0.68684100  0.71060600  1
  O  458  1  0.03091310  0.33198400  0.30793500  1
