# generated using pymatgen
data_BaH12(C5O)4
_symmetry_space_group_name_H-M   'P 1'
_cell_length_a   10.83112000
_cell_length_b   19.88196000
_cell_length_c   25.99526000
_cell_angle_alpha   101.35062000
_cell_angle_beta   101.80204000
_cell_angle_gamma   94.60980000
_symmetry_Int_Tables_number   1
_chemical_formula_structural   BaH12(C5O)4
_chemical_formula_sum   'Ba10 H120 C200 O40'
_cell_volume   5329.80338518
_cell_formula_units_Z   10
loop_
 _symmetry_equiv_pos_site_id
 _symmetry_equiv_pos_as_xyz
  1  'x, y, z'
loop_
 _atom_site_type_symbol
 _atom_site_label
 _atom_site_symmetry_multiplicity
 _atom_site_fract_x
 _atom_site_fract_y
 _atom_site_fract_z
 _atom_site_occupancy
  Ba  Ba1  1  0.82297000  0.18146000  0.29046000  1.0
  Ba  Ba2  1  0.53029000  0.30038000  0.18980000  1.0
  Ba  Ba3  1  0.46517000  0.20976000  0.34178000  1.0
  Ba  Ba4  1  0.92030000  0.36374000  0.23008000  1.0
  Ba  Ba5  1  0.15244000  0.19850000  0.21457000  1.0
  Ba  Ba6  1  0.17698000  0.81855000  0.70955000  1.0
  Ba  Ba7  1  0.46970000  0.69962000  0.81019000  1.0
  Ba  Ba8  1  0.53482000  0.79024000  0.65822000  1.0
  Ba  Ba9  1  0.07970000  0.63627000  0.76992000  1.0
  Ba  Ba10  1  0.84752000  0.80148000  0.78548000  1.0
  H  H1  1  0.88968000  0.21075000  0.72260000  1.0
  H  H2  1  0.95308000  0.12392000  0.45358000  1.0
  H  H3  1  0.91193000  0.71648000  0.53393000  1.0
  H  H4  1  0.09316000  0.79652000  0.14568000  1.0
  H  H5  1  0.67065000  0.49857000  0.82748000  1.0
  H  H6  1  0.67184000  0.89222000  0.87065000  1.0
  H  H7  1  0.85782000  0.11532000  0.10605000  1.0
  H  H8  1  0.71685000  0.01314000  0.10795000  1.0
  H  H9  1  0.91546000  0.28524000  0.65737000  1.0
  H  H10  1  0.66278000  0.65657000  0.91337000  1.0
  H  H11  1  0.75178000  0.82203000  0.44721000  1.0
  H  H12  1  0.93870000  0.86555000  0.18229000  1.0
  H  H13  1  0.43912000  0.95248000  0.81727000  1.0
  H  H14  1  0.72437000  0.19370000  0.48038000  1.0
  H  H15  1  0.84579000  0.67527000  0.36121000  1.0
  H  H16  1  0.80024000  0.93298000  0.31309000  1.0
  H  H17  1  0.86339000  0.52086000  0.62516000  1.0
  H  H18  1  0.73744000  0.81236000  0.01488000  1.0
  H  H19  1  0.75962000  0.89340000  0.10383000  1.0
  H  H20  1  0.75609000  0.91171000  0.19030000  1.0
  H  H21  1  0.55096000  0.36438000  0.00559000  1.0
  H  H22  1  0.66935000  0.85059000  0.93154000  1.0
  H  H23  1  0.41385000  0.82887000  0.31017000  1.0
  H  H24  1  0.84810000  0.57282000  0.86065000  1.0
  H  H25  1  0.62343000  0.51248000  0.09478000  1.0
  H  H26  1  0.56205000  0.04575000  0.83683000  1.0
  H  H27  1  0.70639000  0.61023000  0.60751000  1.0
  H  H28  1  0.73278000  0.68922000  0.99467000  1.0
  H  H29  1  0.89645000  0.75821000  0.45056000  1.0
  H  H30  1  0.86293000  0.59358000  0.25553000  1.0
  H  H31  1  0.84158000  0.02106000  0.41410000  1.0
  H  H32  1  0.09291000  0.67251000  0.15183000  1.0
  H  H33  1  0.81187000  0.35300000  0.45116000  1.0
  H  H34  1  0.65346000  0.37431000  0.78766000  1.0
  H  H35  1  0.96253000  0.90820000  0.62916000  1.0
  H  H36  1  0.79025000  0.89511000  0.38319000  1.0
  H  H37  1  0.93908000  0.61887000  0.19375000  1.0
  H  H38  1  0.85534000  0.08408000  0.69207000  1.0
  H  H39  1  0.64291000  0.63591000  0.13623000  1.0
  H  H40  1  0.58411000  0.15040000  0.08165000  1.0
  H  H41  1  0.73286000  0.98158000  0.65052000  1.0
  H  H42  1  0.57329000  0.56333000  0.21775000  1.0
  H  H43  1  0.70697000  0.72478000  0.08751000  1.0
  H  H44  1  0.58860000  0.20155000  0.01469000  1.0
  H  H45  1  0.56700000  0.88076000  0.26600000  1.0
  H  H46  1  0.51492000  0.16503000  0.84213000  1.0
  H  H47  1  0.81665000  0.55000000  0.35600000  1.0
  H  H48  1  0.83376000  0.39577000  0.62130000  1.0
  H  H49  1  0.77756000  0.87399000  0.54348000  1.0
  H  H50  1  0.52063000  0.24209000  0.93142000  1.0
  H  H51  1  0.97946000  0.66727000  0.60731000  1.0
  H  H52  1  0.43186000  0.71055000  0.32784000  1.0
  H  H53  1  0.63834000  0.38099000  0.39471000  1.0
  H  H54  1  0.59124000  0.64224000  0.29555000  1.0
  H  H55  1  0.86592000  0.44738000  0.36093000  1.0
  H  H56  1  0.80981000  0.31176000  0.53350000  1.0
  H  H57  1  0.78632000  0.43186000  0.09409000  1.0
  H  H58  1  0.90524000  0.23221000  0.56261000  1.0
  H  H59  1  0.66753000  0.32708000  0.94294000  1.0
  H  H60  1  0.65805000  0.28794000  0.84571000  1.0
  H  H61  1  0.11032000  0.78925000  0.27740000  1.0
  H  H62  1  0.04692000  0.87609000  0.54642000  1.0
  H  H63  1  0.08807000  0.28352000  0.46607000  1.0
  H  H64  1  0.90684000  0.20348000  0.85432000  1.0
  H  H65  1  0.32935000  0.50143000  0.17252000  1.0
  H  H66  1  0.32816000  0.10778000  0.12935000  1.0
  H  H67  1  0.14218000  0.88468000  0.89395000  1.0
  H  H68  1  0.28315000  0.98686000  0.89204000  1.0
  H  H69  1  0.08454000  0.71476000  0.34263000  1.0
  H  H70  1  0.33722000  0.34343000  0.08662000  1.0
  H  H71  1  0.24821000  0.17797000  0.55278000  1.0
  H  H72  1  0.06130000  0.13446000  0.81771000  1.0
  H  H73  1  0.56087000  0.04752000  0.18273000  1.0
  H  H74  1  0.27562000  0.80630000  0.51962000  1.0
  H  H75  1  0.15420000  0.32473000  0.63878000  1.0
  H  H76  1  0.19976000  0.06703000  0.68691000  1.0
  H  H77  1  0.13661000  0.47914000  0.37484000  1.0
  H  H78  1  0.26256000  0.18764000  0.98512000  1.0
  H  H79  1  0.24037000  0.10661000  0.89617000  1.0
  H  H80  1  0.24391000  0.08829000  0.80969000  1.0
  H  H81  1  0.44904000  0.63562000  0.99440000  1.0
  H  H82  1  0.33065000  0.14941000  0.06846000  1.0
  H  H83  1  0.58615000  0.17113000  0.68982000  1.0
  H  H84  1  0.15190000  0.42718000  0.13935000  1.0
  H  H85  1  0.37656000  0.48752000  0.90522000  1.0
  H  H86  1  0.43795000  0.95425000  0.16317000  1.0
  H  H87  1  0.29362000  0.38978000  0.39250000  1.0
  H  H88  1  0.26721000  0.31078000  0.00533000  1.0
  H  H89  1  0.10355000  0.24179000  0.54944000  1.0
  H  H90  1  0.13707000  0.40642000  0.74447000  1.0
  H  H91  1  0.15842000  0.97894000  0.58591000  1.0
  H  H92  1  0.90708000  0.32749000  0.84817000  1.0
  H  H93  1  0.18813000  0.64700000  0.54884000  1.0
  H  H94  1  0.34654000  0.62569000  0.21234000  1.0
  H  H95  1  0.03755000  0.09180000  0.37092000  1.0
  H  H96  1  0.20975000  0.10489000  0.61680000  1.0
  H  H97  1  0.06091000  0.38113000  0.80625000  1.0
  H  H98  1  0.14465000  0.91592000  0.30793000  1.0
  H  H99  1  0.35709000  0.36409000  0.86377000  1.0
  H  H100  1  0.41589000  0.84960000  0.91835000  1.0
  H  H101  1  0.26717000  0.01841000  0.34949000  1.0
  H  H102  1  0.42671000  0.43667000  0.78225000  1.0
  H  H103  1  0.29303000  0.27522000  0.91248000  1.0
  H  H104  1  0.41140000  0.79845000  0.98531000  1.0
  H  H105  1  0.43300000  0.11924000  0.73400000  1.0
  H  H106  1  0.48508000  0.83497000  0.15787000  1.0
  H  H107  1  0.18335000  0.45000000  0.64399000  1.0
  H  H108  1  0.16624000  0.60423000  0.37869000  1.0
  H  H109  1  0.22244000  0.12600000  0.45652000  1.0
  H  H110  1  0.47937000  0.75791000  0.06858000  1.0
  H  H111  1  0.02055000  0.33274000  0.39269000  1.0
  H  H112  1  0.56814000  0.28945000  0.67216000  1.0
  H  H113  1  0.36166000  0.61901000  0.60529000  1.0
  H  H114  1  0.40876000  0.35776000  0.70445000  1.0
  H  H115  1  0.13407000  0.55263000  0.63906000  1.0
  H  H116  1  0.19019000  0.68824000  0.46650000  1.0
  H  H117  1  0.21368000  0.56814000  0.90591000  1.0
  H  H118  1  0.09476000  0.76778000  0.43738000  1.0
  H  H119  1  0.33247000  0.67292000  0.05706000  1.0
  H  H120  1  0.34194000  0.71206000  0.15429000  1.0
  C  C1  1  0.51919000  0.86574000  0.77732000  1.0
  C  C2  1  0.78546000  0.18717000  0.16494000  1.0
  C  C3  1  0.85268000  0.88452000  0.68689000  1.0
  C  C4  1  0.88169000  0.18712000  0.68040000  1.0
  C  C5  1  0.88015000  0.13600000  0.47620000  1.0
  C  C6  1  0.81277000  0.21226000  0.41446000  1.0
  C  C7  1  0.82102000  0.68998000  0.67451000  1.0
  C  C8  1  0.66168000  0.45635000  0.99591000  1.0
  C  C9  1  0.88953000  0.67957000  0.49538000  1.0
  C  C10  1  0.02476000  0.77315000  0.16446000  1.0
  C  C11  1  0.67333000  0.46158000  0.85321000  1.0
  C  C12  1  0.60533000  0.93062000  0.87029000  1.0
  C  C13  1  0.61941000  0.98078000  0.92073000  1.0
  C  C14  1  0.80008000  0.67092000  0.84150000  1.0
  C  C15  1  0.66852000  0.52755000  0.01985000  1.0
  C  C16  1  0.83129000  0.01052000  0.59075000  1.0
  C  C17  1  0.77302000  0.13825000  0.11296000  1.0
  C  C18  1  0.65892000  0.34470000  0.10206000  1.0
  C  C19  1  0.69108000  0.57883000  0.98926000  1.0
  C  C20  1  0.84349000  0.02200000  0.49862000  1.0
  C  C21  1  0.71096000  0.97922000  0.06905000  1.0
  C  C22  1  0.89634000  0.22928000  0.64337000  1.0
  C  C23  1  0.71372000  0.61202000  0.90458000  1.0
  C  C24  1  0.86458000  0.09502000  0.51616000  1.0
  C  C25  1  0.78044000  0.87731000  0.46204000  1.0
  C  C26  1  0.60718000  0.09691000  0.97451000  1.0
  C  C27  1  0.79388000  0.02215000  0.27541000  1.0
  C  C28  1  0.66809000  0.79127000  0.25388000  1.0
  C  C29  1  0.68215000  0.33867000  0.31781000  1.0
  C  C30  1  0.69664000  0.48449000  0.23665000  1.0
  C  C31  1  0.93815000  0.81150000  0.18460000  1.0
  C  C32  1  0.51742000  0.92172000  0.82357000  1.0
  C  C33  1  0.59486000  0.05058000  0.92287000  1.0
  C  C34  1  0.68275000  0.48652000  0.90952000  1.0
  C  C35  1  0.80462000  0.18295000  0.46203000  1.0
  C  C36  1  0.85442000  0.65575000  0.39792000  1.0
  C  C37  1  0.84910000  0.71125000  0.21442000  1.0
  C  C38  1  0.78665000  0.94635000  0.27383000  1.0
  C  C39  1  0.84888000  0.48443000  0.58679000  1.0
  C  C40  1  0.72132000  0.86597000  0.01647000  1.0
  C  C41  1  0.73443000  0.91195000  0.06686000  1.0
  C  C42  1  0.76525000  0.89624000  0.22885000  1.0
  C  C43  1  0.63388000  0.40269000  0.02492000  1.0
  C  C44  1  0.68376000  0.88811000  0.96943000  1.0
  C  C45  1  0.76089000  0.68040000  0.23949000  1.0
  C  C46  1  0.48658000  0.79964000  0.29681000  1.0
  C  C47  1  0.78848000  0.61331000  0.86889000  1.0
  C  C48  1  0.64914000  0.55068000  0.07291000  1.0
  C  C49  1  0.87169000  0.60731000  0.49410000  1.0
  C  C50  1  0.82558000  0.97919000  0.53617000  1.0
  C  C51  1  0.56400000  0.07827000  0.87579000  1.0
  C  C52  1  0.80042000  0.63993000  0.62258000  1.0
  C  C53  1  0.67142000  0.43585000  0.94164000  1.0
  C  C54  1  0.70805000  0.65012000  0.01600000  1.0
  C  C55  1  0.85193000  0.08353000  0.60810000  1.0
  C  C56  1  0.66075000  0.95797000  0.96951000  1.0
  C  C57  1  0.88156000  0.70298000  0.44859000  1.0
  C  C58  1  0.76798000  0.60836000  0.24377000  1.0
  C  C59  1  0.64909000  0.07409000  0.02284000  1.0
  C  C60  1  0.84712000  0.78220000  0.20945000  1.0
  C  C61  1  0.83118000  0.98957000  0.44321000  1.0
  C  C62  1  0.02512000  0.70292000  0.16827000  1.0
  C  C63  1  0.81852000  0.39021000  0.48855000  1.0
  C  C64  1  0.86747000  0.12643000  0.57044000  1.0
  C  C65  1  0.75850000  0.82222000  0.23018000  1.0
  C  C66  1  0.66308000  0.39201000  0.83080000  1.0
  C  C67  1  0.87820000  0.91976000  0.64430000  1.0
  C  C68  1  0.86993000  0.58289000  0.54158000  1.0
  C  C69  1  0.80114000  0.91914000  0.42552000  1.0
  C  C70  1  0.93955000  0.67313000  0.19232000  1.0
  C  C71  1  0.84849000  0.51100000  0.53947000  1.0
  C  C72  1  0.67588000  0.00503000  0.02111000  1.0
  C  C73  1  0.67072000  0.72021000  0.25957000  1.0
  C  C74  1  0.86129000  0.11631000  0.66315000  1.0
  C  C75  1  0.65995000  0.61982000  0.09613000  1.0
  C  C76  1  0.66459000  0.12314000  0.07451000  1.0
  C  C77  1  0.80911000  0.96916000  0.62978000  1.0
  C  C78  1  0.84804000  0.55902000  0.44285000  1.0
  C  C79  1  0.67185000  0.55631000  0.23258000  1.0
  C  C80  1  0.69344000  0.67018000  0.06794000  1.0
  C  C81  1  0.58047000  0.16637000  0.97602000  1.0
  C  C82  1  0.69675000  0.55817000  0.93421000  1.0
  C  C83  1  0.82826000  0.48697000  0.44049000  1.0
  C  C84  1  0.57145000  0.82840000  0.27201000  1.0
  C  C85  1  0.83018000  0.46226000  0.48839000  1.0
  C  C86  1  0.53860000  0.14553000  0.87880000  1.0
  C  C87  1  0.83857000  0.58565000  0.39515000  1.0
  C  C88  1  0.83253000  0.41463000  0.58467000  1.0
  C  C89  1  0.79378000  0.90631000  0.51575000  1.0
  C  C90  1  0.54407000  0.18960000  0.92940000  1.0
  C  C91  1  0.88955000  0.63296000  0.59320000  1.0
  C  C92  1  0.49557000  0.73197000  0.30607000  1.0
  C  C93  1  0.70786000  0.38692000  0.37052000  1.0
  C  C94  1  0.58450000  0.69370000  0.28791000  1.0
  C  C95  1  0.80453000  0.43888000  0.38812000  1.0
  C  C96  1  0.81804000  0.36698000  0.53491000  1.0
  C  C97  1  0.69996000  0.39712000  0.07337000  1.0
  C  C98  1  0.89027000  0.19966000  0.59027000  1.0
  C  C99  1  0.66738000  0.36448000  0.91754000  1.0
  C  C100  1  0.66325000  0.34271000  0.86357000  1.0
  C  C101  1  0.48080000  0.13426000  0.22268000  1.0
  C  C102  1  0.21453000  0.81283000  0.83506000  1.0
  C  C103  1  0.14734000  0.11551000  0.31320000  1.0
  C  C104  1  0.11831000  0.81288000  0.31960000  1.0
  C  C105  1  0.11984000  0.86400000  0.52380000  1.0
  C  C106  1  0.18722000  0.78774000  0.58554000  1.0
  C  C107  1  0.17899000  0.31003000  0.32549000  1.0
  C  C108  1  0.33831000  0.54365000  0.00409000  1.0
  C  C109  1  0.11046000  0.32043000  0.50462000  1.0
  C  C110  1  0.97523000  0.22685000  0.83554000  1.0
  C  C111  1  0.32667000  0.53842000  0.14679000  1.0
  C  C112  1  0.39467000  0.06938000  0.12970000  1.0
  C  C113  1  0.38058000  0.01922000  0.07927000  1.0
  C  C114  1  0.19991000  0.32907000  0.15850000  1.0
  C  C115  1  0.33148000  0.47245000  0.98015000  1.0
  C  C116  1  0.16875000  0.98946000  0.40926000  1.0
  C  C117  1  0.22698000  0.86175000  0.88704000  1.0
  C  C118  1  0.34107000  0.65530000  0.89793000  1.0
  C  C119  1  0.30892000  0.42117000  0.01074000  1.0
  C  C120  1  0.15651000  0.97799000  0.50139000  1.0
  C  C121  1  0.28904000  0.02078000  0.93095000  1.0
  C  C122  1  0.10366000  0.77071000  0.35663000  1.0
  C  C123  1  0.28627000  0.38798000  0.09542000  1.0
  C  C124  1  0.13542000  0.90497000  0.48384000  1.0
  C  C125  1  0.21956000  0.12269000  0.53795000  1.0
  C  C126  1  0.39282000  0.90309000  0.02549000  1.0
  C  C127  1  0.20612000  0.97785000  0.72459000  1.0
  C  C128  1  0.33191000  0.20873000  0.74611000  1.0
  C  C129  1  0.31785000  0.66133000  0.68219000  1.0
  C  C130  1  0.30336000  0.51552000  0.76336000  1.0
  C  C131  1  0.06185000  0.18851000  0.81540000  1.0
  C  C132  1  0.48258000  0.07828000  0.17643000  1.0
  C  C133  1  0.40513000  0.94942000  0.07712000  1.0
  C  C134  1  0.31725000  0.51348000  0.09047000  1.0
  C  C135  1  0.19537000  0.81705000  0.53797000  1.0
  C  C136  1  0.14558000  0.34425000  0.60208000  1.0
  C  C137  1  0.15089000  0.28875000  0.78557000  1.0
  C  C138  1  0.21335000  0.05365000  0.72616000  1.0
  C  C139  1  0.15111000  0.51557000  0.41321000  1.0
  C  C140  1  0.27868000  0.13403000  0.98353000  1.0
  C  C141  1  0.26557000  0.08805000  0.93313000  1.0
  C  C142  1  0.23475000  0.10376000  0.77115000  1.0
  C  C143  1  0.36612000  0.59731000  0.97508000  1.0
  C  C144  1  0.31623000  0.11189000  0.03057000  1.0
  C  C145  1  0.23910000  0.31960000  0.76051000  1.0
  C  C146  1  0.51341000  0.20037000  0.70319000  1.0
  C  C147  1  0.21152000  0.38668000  0.13111000  1.0
  C  C148  1  0.35086000  0.44932000  0.92709000  1.0
  C  C149  1  0.12831000  0.39270000  0.50590000  1.0
  C  C150  1  0.17443000  0.02081000  0.46383000  1.0
  C  C151  1  0.43600000  0.92173000  0.12421000  1.0
  C  C152  1  0.19959000  0.36008000  0.37742000  1.0
  C  C153  1  0.32857000  0.56415000  0.05836000  1.0
  C  C154  1  0.29195000  0.34988000  0.98400000  1.0
  C  C155  1  0.14808000  0.91645000  0.39190000  1.0
  C  C156  1  0.33925000  0.04203000  0.03049000  1.0
  C  C157  1  0.11844000  0.29702000  0.55141000  1.0
  C  C158  1  0.23202000  0.39164000  0.75623000  1.0
  C  C159  1  0.35091000  0.92591000  0.97716000  1.0
  C  C160  1  0.15288000  0.21780000  0.79055000  1.0
  C  C161  1  0.16881000  0.01043000  0.55679000  1.0
  C  C162  1  0.97488000  0.29708000  0.83173000  1.0
  C  C163  1  0.18147000  0.60979000  0.51145000  1.0
  C  C164  1  0.13252000  0.87356000  0.42956000  1.0
  C  C165  1  0.24150000  0.17778000  0.76982000  1.0
  C  C166  1  0.33692000  0.60799000  0.16920000  1.0
  C  C167  1  0.12186000  0.08024000  0.35577000  1.0
  C  C168  1  0.13007000  0.41712000  0.45842000  1.0
  C  C169  1  0.19886000  0.08086000  0.57447000  1.0
  C  C170  1  0.06045000  0.32687000  0.80768000  1.0
  C  C171  1  0.15151000  0.48900000  0.46053000  1.0
  C  C172  1  0.32412000  0.99497000  0.97889000  1.0
  C  C173  1  0.32927000  0.27979000  0.74043000  1.0
  C  C174  1  0.13871000  0.88369000  0.33685000  1.0
  C  C175  1  0.34004000  0.38019000  0.90386000  1.0
  C  C176  1  0.33541000  0.87686000  0.92548000  1.0
  C  C177  1  0.19095000  0.03083000  0.37025000  1.0
  C  C178  1  0.15196000  0.44098000  0.55715000  1.0
  C  C179  1  0.32815000  0.44369000  0.76742000  1.0
  C  C180  1  0.30656000  0.32982000  0.93206000  1.0
  C  C181  1  0.41953000  0.83363000  0.02397000  1.0
  C  C182  1  0.30324000  0.44183000  0.06579000  1.0
  C  C183  1  0.17174000  0.51303000  0.55950000  1.0
  C  C184  1  0.42855000  0.17160000  0.72799000  1.0
  C  C185  1  0.16982000  0.53774000  0.51161000  1.0
  C  C186  1  0.46140000  0.85447000  0.12120000  1.0
  C  C187  1  0.16143000  0.41435000  0.60485000  1.0
  C  C188  1  0.16747000  0.58537000  0.41532000  1.0
  C  C189  1  0.20622000  0.09369000  0.48425000  1.0
  C  C190  1  0.45592000  0.81040000  0.07060000  1.0
  C  C191  1  0.11045000  0.36705000  0.40680000  1.0
  C  C192  1  0.50442000  0.26803000  0.69393000  1.0
  C  C193  1  0.29213000  0.61308000  0.62948000  1.0
  C  C194  1  0.41550000  0.30630000  0.71208000  1.0
  C  C195  1  0.19547000  0.56112000  0.61188000  1.0
  C  C196  1  0.18196000  0.63302000  0.46509000  1.0
  C  C197  1  0.30003000  0.60288000  0.92663000  1.0
  C  C198  1  0.10972000  0.80033000  0.40972000  1.0
  C  C199  1  0.33262000  0.63552000  0.08245000  1.0
  C  C200  1  0.33674000  0.65729000  0.13643000  1.0
  O  O1  1  0.91663000  0.21891000  0.39968000  1.0
  O  O2  1  0.89922000  0.21178000  0.19267000  1.0
  O  O3  1  0.60013000  0.82162000  0.78123000  1.0
  O  O4  1  0.72488000  0.71767000  0.84415000  1.0
  O  O5  1  0.80671000  0.06078000  0.32248000  1.0
  O  O6  1  0.68736000  0.20219000  0.18230000  1.0
  O  O7  1  0.78681000  0.04399000  0.23202000  1.0
  O  O8  1  0.94409000  0.85809000  0.71201000  1.0
  O  O9  1  0.70639000  0.22627000  0.38795000  1.0
  O  O10  1  0.56882000  0.30650000  0.29977000  1.0
  O  O11  1  0.76910000  0.32929000  0.29130000  1.0
  O  O12  1  0.88726000  0.67285000  0.81475000  1.0
  O  O13  1  0.60077000  0.43770000  0.22170000  1.0
  O  O14  1  0.74265000  0.88184000  0.69824000  1.0
  O  O15  1  0.93195000  0.70477000  0.70556000  1.0
  O  O16  1  0.55000000  0.30942000  0.08577000  1.0
  O  O17  1  0.43745000  0.86236000  0.73336000  1.0
  O  O18  1  0.73763000  0.34000000  0.14560000  1.0
  O  O19  1  0.72454000  0.71700000  0.68738000  1.0
  O  O20  1  0.81198000  0.47462000  0.25431000  1.0
  O  O21  1  0.08337000  0.78109000  0.60032000  1.0
  O  O22  1  0.10078000  0.78822000  0.80733000  1.0
  O  O23  1  0.39985000  0.17838000  0.21877000  1.0
  O  O24  1  0.27511000  0.28232000  0.15586000  1.0
  O  O25  1  0.19328000  0.93922000  0.67751000  1.0
  O  O26  1  0.31264000  0.79781000  0.81769000  1.0
  O  O27  1  0.21320000  0.95601000  0.76798000  1.0
  O  O28  1  0.05592000  0.14202000  0.28818000  1.0
  O  O29  1  0.29360000  0.77373000  0.61205000  1.0
  O  O30  1  0.43117000  0.69350000  0.70023000  1.0
  O  O31  1  0.23089000  0.67071000  0.70870000  1.0
  O  O32  1  0.11273000  0.32715000  0.18525000  1.0
  O  O33  1  0.39923000  0.56230000  0.77829000  1.0
  O  O34  1  0.25730000  0.11815000  0.30176000  1.0
  O  O35  1  0.06806000  0.29526000  0.29444000  1.0
  O  O36  1  0.45000000  0.69058000  0.91423000  1.0
  O  O37  1  0.56254000  0.13764000  0.26664000  1.0
  O  O38  1  0.26236000  0.66001000  0.85440000  1.0
  O  O39  1  0.27546000  0.28301000  0.31262000  1.0
  O  O40  1  0.18801000  0.52539000  0.74574000  1.0
