# generated using pymatgen
data_ZnH10C14(NO2)2
_symmetry_space_group_name_H-M   'P 1'
_cell_length_a   10.71850000
_cell_length_b   11.07180000
_cell_length_c   15.14330000
_cell_angle_alpha   91.81700000
_cell_angle_beta   90.00000000
_cell_angle_gamma   90.00000000
_symmetry_Int_Tables_number   1
_chemical_formula_structural   ZnH10C14(NO2)2
_chemical_formula_sum   'Zn4 H40 C56 N8 O16'
_cell_volume   1796.19858899
_cell_formula_units_Z   4
loop_
 _symmetry_equiv_pos_site_id
 _symmetry_equiv_pos_as_xyz
  1  'x, y, z'
loop_
 _atom_site_type_symbol
 _atom_site_label
 _atom_site_symmetry_multiplicity
 _atom_site_fract_x
 _atom_site_fract_y
 _atom_site_fract_z
 _atom_site_occupancy
  Zn  Zn1  1  0.53226000  0.26387000  0.07613000  1.0
  Zn  Zn2  1  0.96774000  0.76387000  0.57613000  1.0
  Zn  Zn3  1  0.03226000  0.23613000  0.42387000  1.0
  Zn  Zn4  1  0.46774000  0.73613000  0.92387000  1.0
  H  H1  1  0.99900000  0.44640000  0.88050000  1.0
  H  H2  1  0.10130000  0.49400000  0.81340000  1.0
  H  H3  1  0.04990000  0.34420000  0.72050000  1.0
  H  H4  1  0.34540000  0.14490000  0.94720000  1.0
  H  H5  1  0.17950000  0.19870000  0.86060000  1.0
  H  H6  1  0.20290000  0.53720000  0.96560000  1.0
  H  H7  1  0.37030000  0.47780000  0.04750000  1.0
  H  H8  1  0.72920000  0.98530000  0.83950000  1.0
  H  H9  1  0.85110000  0.32470000  0.89650000  1.0
  H  H10  1  0.01310000  0.12340000  0.70010000  1.0
  H  H11  1  0.50100000  0.94640000  0.38050000  1.0
  H  H12  1  0.39870000  0.99400000  0.31340000  1.0
  H  H13  1  0.45010000  0.84420000  0.22050000  1.0
  H  H14  1  0.15460000  0.64490000  0.44720000  1.0
  H  H15  1  0.32050000  0.69870000  0.36060000  1.0
  H  H16  1  0.29710000  0.03720000  0.46560000  1.0
  H  H17  1  0.12970000  0.97780000  0.54750000  1.0
  H  H18  1  0.77080000  0.48530000  0.33950000  1.0
  H  H19  1  0.64890000  0.82470000  0.39650000  1.0
  H  H20  1  0.48690000  0.62340000  0.20010000  1.0
  H  H21  1  0.49900000  0.05360000  0.61950000  1.0
  H  H22  1  0.60130000  0.00600000  0.68660000  1.0
  H  H23  1  0.54990000  0.15580000  0.77950000  1.0
  H  H24  1  0.84540000  0.35510000  0.55280000  1.0
  H  H25  1  0.67950000  0.30130000  0.63940000  1.0
  H  H26  1  0.70290000  0.96280000  0.53440000  1.0
  H  H27  1  0.87030000  0.02220000  0.45250000  1.0
  H  H28  1  0.22920000  0.51470000  0.66050000  1.0
  H  H29  1  0.35110000  0.17530000  0.60350000  1.0
  H  H30  1  0.51310000  0.37660000  0.79990000  1.0
  H  H31  1  0.00100000  0.55360000  0.11950000  1.0
  H  H32  1  0.89870000  0.50600000  0.18660000  1.0
  H  H33  1  0.95010000  0.65580000  0.27950000  1.0
  H  H34  1  0.65460000  0.85510000  0.05280000  1.0
  H  H35  1  0.82050000  0.80130000  0.13940000  1.0
  H  H36  1  0.79710000  0.46280000  0.03440000  1.0
  H  H37  1  0.62970000  0.52220000  0.95250000  1.0
  H  H38  1  0.27080000  0.01470000  0.16050000  1.0
  H  H39  1  0.14890000  0.67530000  0.10350000  1.0
  H  H40  1  0.98690000  0.87660000  0.29990000  1.0
  C  C1  1  0.07050000  0.42120000  0.84290000  1.0
  C  C2  1  0.31660000  0.22610000  0.95070000  1.0
  C  C3  1  0.21770000  0.25760000  0.89870000  1.0
  C  C4  1  0.17320000  0.37540000  0.90190000  1.0
  C  C5  1  0.23180000  0.45610000  0.96000000  1.0
  C  C6  1  0.33060000  0.42000000  0.00930000  1.0
  C  C7  1  0.67450000  0.17120000  0.94600000  1.0
  C  C8  1  0.77530000  0.15820000  0.87680000  1.0
  C  C9  1  0.78390000  0.05030000  0.82760000  1.0
  C  C10  1  0.87250000  0.03790000  0.76136000  1.0
  C  C11  1  0.85650000  0.25210000  0.86149000  1.0
  C  C12  1  0.94680000  0.24120000  0.79490000  1.0
  C  C13  1  0.62290000  0.42170000  0.20680000  1.0
  C  C14  1  0.95250000  0.13250000  0.74560000  1.0
  C  C15  1  0.42950000  0.92120000  0.34290000  1.0
  C  C16  1  0.18340000  0.72610000  0.45070000  1.0
  C  C17  1  0.28230000  0.75760000  0.39870000  1.0
  C  C18  1  0.32680000  0.87540000  0.40190000  1.0
  C  C19  1  0.26820000  0.95610000  0.46000000  1.0
  C  C20  1  0.16940000  0.92000000  0.50930000  1.0
  C  C21  1  0.82550000  0.67120000  0.44600000  1.0
  C  C22  1  0.72470000  0.65820000  0.37680000  1.0
  C  C23  1  0.71610000  0.55030000  0.32760000  1.0
  C  C24  1  0.62750000  0.53790000  0.26136000  1.0
  C  C25  1  0.64350000  0.75210000  0.36149000  1.0
  C  C26  1  0.55320000  0.74120000  0.29490000  1.0
  C  C27  1  0.87710000  0.92170000  0.70680000  1.0
  C  C28  1  0.54750000  0.63250000  0.24560000  1.0
  C  C29  1  0.57050000  0.07880000  0.65710000  1.0
  C  C30  1  0.81660000  0.27390000  0.54930000  1.0
  C  C31  1  0.71770000  0.24240000  0.60130000  1.0
  C  C32  1  0.67320000  0.12460000  0.59810000  1.0
  C  C33  1  0.73180000  0.04390000  0.54000000  1.0
  C  C34  1  0.83060000  0.08000000  0.49070000  1.0
  C  C35  1  0.17450000  0.32880000  0.55400000  1.0
  C  C36  1  0.27530000  0.34180000  0.62320000  1.0
  C  C37  1  0.28390000  0.44970000  0.67240000  1.0
  C  C38  1  0.37250000  0.46210000  0.73864000  1.0
  C  C39  1  0.35650000  0.24790000  0.63851000  1.0
  C  C40  1  0.44680000  0.25880000  0.70510000  1.0
  C  C41  1  0.12290000  0.07830000  0.29320000  1.0
  C  C42  1  0.45250000  0.36750000  0.75440000  1.0
  C  C43  1  0.92950000  0.57880000  0.15710000  1.0
  C  C44  1  0.68340000  0.77390000  0.04930000  1.0
  C  C45  1  0.78230000  0.74240000  0.10130000  1.0
  C  C46  1  0.82680000  0.62460000  0.09810000  1.0
  C  C47  1  0.76820000  0.54390000  0.04000000  1.0
  C  C48  1  0.66940000  0.58000000  0.99070000  1.0
  C  C49  1  0.32550000  0.82880000  0.05400000  1.0
  C  C50  1  0.22470000  0.84180000  0.12320000  1.0
  C  C51  1  0.21610000  0.94970000  0.17240000  1.0
  C  C52  1  0.12750000  0.96210000  0.23864000  1.0
  C  C53  1  0.14350000  0.74790000  0.13851000  1.0
  C  C54  1  0.05320000  0.75880000  0.20510000  1.0
  C  C55  1  0.37710000  0.57830000  0.79320000  1.0
  C  C56  1  0.04750000  0.86750000  0.25440000  1.0
  N  N1  1  0.02590000  0.33570000  0.77553000  1.0
  N  N2  1  0.37480000  0.30490000  0.00634000  1.0
  N  N3  1  0.47410000  0.83570000  0.27553000  1.0
  N  N4  1  0.12520000  0.80490000  0.50634000  1.0
  N  N5  1  0.52590000  0.16430000  0.72447000  1.0
  N  N6  1  0.87480000  0.19510000  0.49366000  1.0
  N  N7  1  0.97410000  0.66430000  0.22447000  1.0
  N  N8  1  0.62520000  0.69510000  0.99366000  1.0
  O  O1  1  0.67580000  0.26810000  0.99472000  1.0
  O  O2  1  0.59400000  0.09200000  0.95279000  1.0
  O  O3  1  0.53190000  0.41210000  0.15211000  1.0
  O  O4  1  0.70380000  0.34480000  0.21525000  1.0
  O  O5  1  0.82420000  0.76810000  0.49472000  1.0
  O  O6  1  0.90600000  0.59200000  0.45279000  1.0
  O  O7  1  0.96810000  0.91210000  0.65211000  1.0
  O  O8  1  0.79620000  0.84480000  0.71525000  1.0
  O  O9  1  0.17580000  0.23190000  0.50528000  1.0
  O  O10  1  0.09400000  0.40800000  0.54721000  1.0
  O  O11  1  0.03190000  0.08790000  0.34789000  1.0
  O  O12  1  0.20380000  0.15520000  0.28475000  1.0
  O  O13  1  0.32420000  0.73190000  0.00528000  1.0
  O  O14  1  0.40600000  0.90800000  0.04721000  1.0
  O  O15  1  0.46810000  0.58790000  0.84789000  1.0
  O  O16  1  0.29620000  0.65520000  0.78475000  1.0
