# generated using pymatgen
data_ZnH8C14N2O5
_symmetry_space_group_name_H-M   'P 1'
_cell_length_a   13.94369000
_cell_length_b   13.94402000
_cell_length_c   14.01306000
_cell_angle_alpha   110.59662000
_cell_angle_beta   90.00000000
_cell_angle_gamma   90.00000000
_symmetry_Int_Tables_number   1
_chemical_formula_structural   ZnH8C14N2O5
_chemical_formula_sum   'Zn4 H32 C56 N8 O20'
_cell_volume   2550.42054550
_cell_formula_units_Z   4
loop_
 _symmetry_equiv_pos_site_id
 _symmetry_equiv_pos_as_xyz
  1  'x, y, z'
loop_
 _atom_site_type_symbol
 _atom_site_label
 _atom_site_symmetry_multiplicity
 _atom_site_fract_x
 _atom_site_fract_y
 _atom_site_fract_z
 _atom_site_occupancy
  Zn  Zn0  1  0.05451000  0.90802000  0.95953000  1
  Zn  Zn1  1  0.55451000  0.09197000  0.54047000  1
  Zn  Zn2  1  0.94549000  0.09197000  0.04047000  1
  Zn  Zn3  1  0.44549000  0.90802000  0.45953000  1
  H  H4  1  0.89478000  0.59596000  0.15315000  1
  H  H5  1  0.92453000  0.74098000  0.11565000  1
  H  H6  1  0.76363000  0.01398000  0.26831000  1
  H  H7  1  0.69303000  0.73496000  0.31890000  1
  H  H8  1  0.02992000  0.30077000  0.11823000  1
  H  H9  1  0.97561000  0.48170000  0.18497000  1
  H  H10  1  0.68377000  0.37023000  0.15801000  1
  H  H11  1  0.75165000  0.19066000  0.08930000  1
  H  H12  1  0.39478000  0.40403000  0.34685000  1
  H  H13  1  0.42453000  0.25901000  0.38435000  1
  H  H14  1  0.26363000  0.98601000  0.23169000  1
  H  H15  1  0.19303000  0.26503000  0.18110000  1
  H  H16  1  0.52993000  0.69923000  0.38177000  1
  H  H17  1  0.47561000  0.51830000  0.31503000  1
  H  H18  1  0.18377000  0.62977000  0.34200000  1
  H  H19  1  0.25166000  0.80934000  0.41070000  1
  H  H20  1  0.10523000  0.40403000  0.84685000  1
  H  H21  1  0.07547000  0.25901000  0.88435000  1
  H  H22  1  0.23637000  0.98601000  0.73169000  1
  H  H23  1  0.30697000  0.26503000  0.68111000  1
  H  H24  1  0.97008000  0.69923000  0.88177000  1
  H  H25  1  0.02439000  0.51829000  0.81503000  1
  H  H26  1  0.31623000  0.62977000  0.84200000  1
  H  H27  1  0.24835000  0.80933000  0.91070000  1
  H  H28  1  0.60522000  0.59596000  0.65316000  1
  H  H29  1  0.57547000  0.74098000  0.61566000  1
  H  H30  1  0.73637000  0.01398000  0.76831000  1
  H  H31  1  0.80697000  0.73496000  0.81890000  1
  H  H32  1  0.47008000  0.30076000  0.61824000  1
  H  H33  1  0.52439000  0.48170000  0.68497000  1
  H  H34  1  0.81623000  0.37023000  0.65801000  1
  H  H35  1  0.74835000  0.19066000  0.58930000  1
  C  C36  1  0.81218000  0.72515000  0.21690000  1
  C  C37  1  0.86739000  0.77849000  0.16852000  1
  C  C38  1  0.84921000  0.88181000  0.18548000  1
  C  C39  1  0.77725000  0.93340000  0.25390000  1
  C  C40  1  0.72174000  0.87964000  0.30139000  1
  C  C41  1  0.73788000  0.77552000  0.28262000  1
  C  C42  1  0.77946000  0.54647000  0.21241000  1
  C  C43  1  0.95391000  0.31972000  0.12652000  1
  C  C44  1  0.92207000  0.42092000  0.16302000  1
  C  C45  1  0.82325000  0.44078000  0.17384000  1
  C  C46  1  0.76061000  0.35691000  0.14872000  1
  C  C47  1  0.79769000  0.25806000  0.11162000  1
  C  C48  1  0.90565000  0.93336000  0.12586000  1
  C  C49  1  0.64254000  0.93164000  0.37321000  1
  C  C50  1  0.31218000  0.27485000  0.28311000  1
  C  C51  1  0.36739000  0.22151000  0.33148000  1
  C  C52  1  0.34921000  0.11818000  0.31452000  1
  C  C53  1  0.27724000  0.06659000  0.24610000  1
  C  C54  1  0.22174000  0.12036000  0.19861000  1
  C  C55  1  0.23788000  0.22448000  0.21739000  1
  C  C56  1  0.27946000  0.45352000  0.28759000  1
  C  C57  1  0.45391000  0.68027000  0.37348000  1
  C  C58  1  0.42207000  0.57908000  0.33698000  1
  C  C59  1  0.32325000  0.55922000  0.32617000  1
  C  C60  1  0.26061000  0.64309000  0.35128000  1
  C  C61  1  0.29769000  0.74194000  0.38838000  1
  C  C62  1  0.40565000  0.06663000  0.37414000  1
  C  C63  1  0.14254000  0.06835000  0.12679000  1
  C  C64  1  0.18782000  0.27485000  0.78311000  1
  C  C65  1  0.13261000  0.22151000  0.83148000  1
  C  C66  1  0.15079000  0.11818000  0.81452000  1
  C  C67  1  0.22276000  0.06659000  0.74610000  1
  C  C68  1  0.27827000  0.12036000  0.69861000  1
  C  C69  1  0.26212000  0.22448000  0.71739000  1
  C  C70  1  0.22055000  0.45352000  0.78759000  1
  C  C71  1  0.04609000  0.68027000  0.87348000  1
  C  C72  1  0.07793000  0.57907000  0.83698000  1
  C  C73  1  0.17676000  0.55921000  0.82617000  1
  C  C74  1  0.23939000  0.64309000  0.85128000  1
  C  C75  1  0.20231000  0.74194000  0.88839000  1
  C  C76  1  0.09435000  0.06663000  0.87414000  1
  C  C77  1  0.35747000  0.06835000  0.62679000  1
  C  C78  1  0.68782000  0.72515000  0.71690000  1
  C  C79  1  0.63261000  0.77849000  0.66853000  1
  C  C80  1  0.65079000  0.88181000  0.68548000  1
  C  C81  1  0.72276000  0.93340000  0.75390000  1
  C  C82  1  0.77827000  0.87964000  0.80139000  1
  C  C83  1  0.76212000  0.77552000  0.78262000  1
  C  C84  1  0.72054000  0.54647000  0.71241000  1
  C  C85  1  0.54609000  0.31972000  0.62652000  1
  C  C86  1  0.57793000  0.42092000  0.66302000  1
  C  C87  1  0.67675000  0.44078000  0.67384000  1
  C  C88  1  0.73939000  0.35691000  0.64872000  1
  C  C89  1  0.70231000  0.25806000  0.61162000  1
  C  C90  1  0.59435000  0.93336000  0.62587000  1
  C  C91  1  0.85747000  0.93164000  0.87321000  1
  N  N92  1  0.83485000  0.62077000  0.19600000  1
  N  N93  1  0.89280000  0.23972000  0.10050000  1
  N  N94  1  0.33485000  0.37922000  0.30400000  1
  N  N95  1  0.39280000  0.76027000  0.39951000  1
  N  N96  1  0.16515000  0.37922000  0.80400000  1
  N  N97  1  0.10720000  0.76027000  0.89951000  1
  N  N98  1  0.66515000  0.62077000  0.69601000  1
  N  N99  1  0.60720000  0.23972000  0.60050000  1
  O  O100  1  0.69965000  0.56148000  0.25352000  1
  O  O101  1  0.97297000  0.88033000  0.07080000  1
  O  O102  1  0.88108000  0.02377000  0.13314000  1
  O  O103  1  0.65563000  0.02485000  0.42929000  1
  O  O104  1  0.56927000  0.87655000  0.37223000  1
  O  O105  1  0.19965000  0.43851000  0.24648000  1
  O  O106  1  0.47297000  0.11966000  0.42920000  1
  O  O107  1  0.38109000  0.97622000  0.36686000  1
  O  O108  1  0.15564000  0.97515000  0.07071000  1
  O  O109  1  0.06927000  0.12344000  0.12777000  1
  O  O110  1  0.30035000  0.43851000  0.74649000  1
  O  O111  1  0.02703000  0.11966000  0.92920000  1
  O  O112  1  0.11892000  0.97622000  0.86686000  1
  O  O113  1  0.34437000  0.97514000  0.57071000  1
  O  O114  1  0.43073000  0.12344000  0.62777000  1
  O  O115  1  0.80035000  0.56148000  0.75352000  1
  O  O116  1  0.52703000  0.88033000  0.57080000  1
  O  O117  1  0.61891000  0.02377000  0.63314000  1
  O  O118  1  0.84437000  0.02485000  0.92929000  1
  O  O119  1  0.93073000  0.87655000  0.87223000  1
