# generated using pymatgen
data_Gd2Cu3H30C24(NO4)6
_symmetry_space_group_name_H-M   'P 1'
_cell_length_a   13.40189716
_cell_length_b   13.41189000
_cell_length_c   14.57617000
_cell_angle_alpha   90.01438000
_cell_angle_beta   90.00018006
_cell_angle_gamma   60.02498923
_symmetry_Int_Tables_number   1
_chemical_formula_structural   Gd2Cu3H30C24(NO4)6
_chemical_formula_sum   'Gd4 Cu6 H60 C48 N12 O48'
_cell_volume   2269.54922219
_cell_formula_units_Z   2
loop_
 _symmetry_equiv_pos_site_id
 _symmetry_equiv_pos_as_xyz
  1  'x, y, z'
loop_
 _atom_site_type_symbol
 _atom_site_label
 _atom_site_symmetry_multiplicity
 _atom_site_fract_x
 _atom_site_fract_y
 _atom_site_fract_z
 _atom_site_occupancy
  Gd  Gd0  1  0.66683000  0.66643000  0.66821000  1
  Gd  Gd1  1  0.33333333  0.33349667  0.83180000  1
  Gd  Gd2  1  0.33316000  0.33357000  0.33180000  1
  Gd  Gd3  1  0.66673000  0.66643000  0.16821000  1
  Cu  Cu4  1  0.50000000  0.99999000  0.50000000  1
  Cu  Cu5  1  0.99999000  0.50000000  0.50001000  1
  Cu  Cu6  1  0.50000000  0.49999000  0.50000000  1
  Cu  Cu7  1  0.50000000  0.00000000  1.00000000  1
  Cu  Cu8  1  0.50000000  0.49999000  0.00000000  1
  Cu  Cu9  1  0.00000000  0.50000000  0.00000000  1
  H  H10  1  0.74061000  0.97192000  0.55305000  1
  H  H11  1  0.83183000  0.86144000  0.47491000  1
  H  H12  1  0.74074000  0.79644000  0.36878000  1
  H  H13  1  0.68809000  0.91600000  0.29606000  1
  H  H14  1  0.64167000  0.03657000  0.41664000  1
  H  H15  1  0.97165000  0.28779000  0.55298000  1
  H  H16  1  0.86096000  0.30724000  0.47492000  1
  H  H17  1  0.79622000  0.46335000  0.36866000  1
  H  H18  1  0.91600000  0.39604000  0.29602000  1
  H  H19  1  0.03645000  0.32197000  0.41672000  1
  H  H20  1  0.28741000  0.74032000  0.55309000  1
  H  H21  1  0.30668000  0.83141000  0.47483000  1
  H  H22  1  0.46325000  0.74012000  0.36892000  1
  H  H23  1  0.39562000  0.68812000  0.29616000  1
  H  H24  1  0.32181000  0.64111000  0.41670000  1
  H  H25  1  0.71253000  0.02808000  0.94695000  1
  H  H26  1  0.69327000  0.13855000  0.02510000  1
  H  H27  1  0.53719000  0.20354000  0.13123000  1
  H  H28  1  0.60409000  0.08400000  0.20395000  1
  H  H29  1  0.67825000  0.96342000  0.08337000  1
  H  H30  1  0.25945000  0.71220000  0.94703000  1
  H  H31  1  0.16820000  0.69276000  0.02508000  1
  H  H32  1  0.25957000  0.53664000  0.13135000  1
  H  H33  1  0.31205000  0.60394000  0.20398000  1
  H  H34  1  0.35842000  0.67803000  0.08329000  1
  H  H35  1  0.02774000  0.25967000  0.94691000  1
  H  H36  1  0.13809000  0.16858000  0.02518000  1
  H  H37  1  0.20337000  0.25987000  0.13108000  1
  H  H38  1  0.08375000  0.31186000  0.20384000  1
  H  H39  1  0.96292000  0.35888000  0.08330000  1
  H  H40  1  0.25938000  0.02808000  0.44695000  1
  H  H41  1  0.16817000  0.13855000  0.52510000  1
  H  H42  1  0.25926000  0.20354000  0.63122000  1
  H  H43  1  0.31191000  0.08399000  0.70394000  1
  H  H44  1  0.35833000  0.96341000  0.58336000  1
  H  H45  1  0.02834000  0.71220000  0.44703000  1
  H  H46  1  0.13903000  0.69276000  0.52508000  1
  H  H47  1  0.20378000  0.53664000  0.63134000  1
  H  H48  1  0.08400000  0.60395000  0.70398000  1
  H  H49  1  0.96355000  0.67803000  0.58329000  1
  H  H50  1  0.71259000  0.25966000  0.44691000  1
  H  H51  1  0.69331000  0.16859000  0.52517000  1
  H  H52  1  0.53675000  0.25987000  0.63108000  1
  H  H53  1  0.60438000  0.31187000  0.70384000  1
  H  H54  1  0.67819000  0.35888000  0.58330000  1
  H  H55  1  0.28746000  0.97192000  0.05305000  1
  H  H56  1  0.30673000  0.86143000  0.97490000  1
  H  H57  1  0.46281000  0.79645000  0.86878000  1
  H  H58  1  0.39590000  0.91600000  0.79606000  1
  H  H59  1  0.32175000  0.03657000  0.91664000  1
  H  H60  1  0.74055000  0.28779000  0.05298000  1
  H  H61  1  0.83180000  0.30723000  0.97492000  1
  H  H62  1  0.74042000  0.46336000  0.86866000  1
  H  H63  1  0.68795000  0.39605000  0.79602000  1
  H  H64  1  0.64158000  0.32196000  0.91671000  1
  H  H65  1  0.97226000  0.74032000  0.05309000  1
  H  H66  1  0.86190000  0.83141000  0.97483000  1
  H  H67  1  0.79662000  0.74013000  0.86892000  1
  H  H68  1  0.91625000  0.68813000  0.79616000  1
  H  H69  1  0.03708000  0.64111000  0.91670000  1
  C  C70  1  0.73501000  0.81722000  0.56739000  1
  C  C71  1  0.74611000  0.90446000  0.50704000  1
  C  C72  1  0.66772000  0.88384000  0.35847000  1
  C  C73  1  0.56142000  0.87347000  0.33994000  1
  C  C74  1  0.81718000  0.44807000  0.56779000  1
  C  C75  1  0.90408000  0.34980000  0.50711000  1
  C  C76  1  0.88381000  0.44862000  0.35842000  1
  C  C77  1  0.87364000  0.56511000  0.33991000  1
  C  C78  1  0.44765000  0.73486000  0.56757000  1
  C  C79  1  0.34938000  0.74583000  0.50707000  1
  C  C80  1  0.44836000  0.66742000  0.35848000  1
  C  C81  1  0.56479000  0.56107000  0.33968000  1
  C  C82  1  0.55224000  0.18277000  0.93261000  1
  C  C83  1  0.65057000  0.09554000  0.99296000  1
  C  C84  1  0.55156000  0.11616000  0.14154000  1
  C  C85  1  0.43489000  0.12653000  0.16008000  1
  C  C86  1  0.26525000  0.55193000  0.93222000  1
  C  C87  1  0.25389000  0.65019000  0.99289000  1
  C  C88  1  0.33243000  0.55138000  0.14158000  1
  C  C89  1  0.43874000  0.43488000  0.16011000  1
  C  C90  1  0.18252000  0.26512000  0.93243000  1
  C  C91  1  0.09522000  0.25416000  0.99293000  1
  C  C92  1  0.11579000  0.33257000  0.14153000  1
  C  C93  1  0.12588000  0.43891000  0.16034000  1
  C  C94  1  0.26499000  0.18276000  0.43261000  1
  C  C95  1  0.25388000  0.09554000  0.49296000  1
  C  C96  1  0.33227000  0.11616000  0.64154000  1
  C  C97  1  0.43858000  0.12651000  0.66006000  1
  C  C98  1  0.18282000  0.55192000  0.43222000  1
  C  C99  1  0.09592000  0.65018000  0.49289000  1
  C  C100  1  0.11619000  0.55137000  0.64158000  1
  C  C101  1  0.12636000  0.43488000  0.66009000  1
  C  C102  1  0.55235000  0.26512000  0.43244000  1
  C  C103  1  0.65061000  0.25417000  0.49294000  1
  C  C104  1  0.55163000  0.33258000  0.64152000  1
  C  C105  1  0.43521000  0.43892000  0.66032000  1
  C  C106  1  0.44776000  0.81722000  0.06740000  1
  C  C107  1  0.34943000  0.90445000  0.00704000  1
  C  C108  1  0.44844000  0.88383000  0.85847000  1
  C  C109  1  0.56511000  0.87346000  0.83993000  1
  C  C110  1  0.73474000  0.44807000  0.06779000  1
  C  C111  1  0.74611000  0.34980000  0.00711000  1
  C  C112  1  0.66757000  0.44861000  0.85842000  1
  C  C113  1  0.56125000  0.56512000  0.83989000  1
  C  C114  1  0.81748000  0.73487000  0.06757000  1
  C  C115  1  0.90478000  0.74583000  0.00707000  1
  C  C116  1  0.88421000  0.66742000  0.85848000  1
  C  C117  1  0.87412000  0.56108000  0.83966000  1
  N  N118  1  0.65311000  0.95793000  0.43861000  1
  N  N119  1  0.95771000  0.38918000  0.43864000  1
  N  N120  1  0.38893000  0.65279000  0.43867000  1
  N  N121  1  0.61104000  0.04206000  0.06140000  1
  N  N122  1  0.34689000  0.61082000  0.06137000  1
  N  N123  1  0.04173000  0.34719000  0.06134000  1
  N  N124  1  0.34689000  0.04206000  0.56140000  1
  N  N125  1  0.04229000  0.61081000  0.56137000  1
  N  N126  1  0.61107000  0.34720000  0.56134000  1
  N  N127  1  0.38896000  0.95793000  0.93860000  1
  N  N128  1  0.65311000  0.38917000  0.93863000  1
  N  N129  1  0.95827000  0.65280000  0.93867000  1
  O  O130  1  0.64207000  0.81252000  0.56028000  1
  O  O131  1  0.81525000  0.75531000  0.62230000  1
  O  O132  1  0.47470000  0.92389000  0.39352000  1
  O  O133  1  0.56295000  0.81414000  0.27200000  1
  O  O134  1  0.81266000  0.54552000  0.56025000  1
  O  O135  1  0.75552000  0.43012000  0.62337000  1
  O  O136  1  0.92382000  0.60150000  0.39362000  1
  O  O137  1  0.81460000  0.62276000  0.27183000  1
  O  O138  1  0.54533000  0.64209000  0.56030000  1
  O  O139  1  0.42928000  0.81488000  0.62272000  1
  O  O140  1  0.60137000  0.47468000  0.39353000  1
  O  O141  1  0.62218000  0.56219000  0.27124000  1
  O  O142  1  0.45459000  0.18748000  0.93972000  1
  O  O143  1  0.57056000  0.24469000  0.87770000  1
  O  O144  1  0.39859000  0.07610000  0.10649000  1
  O  O145  1  0.37710000  0.18585000  0.22800000  1
  O  O146  1  0.35818000  0.45448000  0.93975000  1
  O  O147  1  0.18565000  0.56987000  0.87663000  1
  O  O148  1  0.52533000  0.39849000  0.10638000  1
  O  O149  1  0.43737000  0.37724000  0.22817000  1
  O  O150  1  0.18743000  0.35790000  0.93970000  1
  O  O151  1  0.24417000  0.18511000  0.87728000  1
  O  O152  1  0.07605000  0.52531000  0.10647000  1
  O  O153  1  0.18437000  0.43780000  0.22876000  1
  O  O154  1  0.35793000  0.18747000  0.43972000  1
  O  O155  1  0.18475000  0.24468000  0.37770000  1
  O  O156  1  0.52529000  0.07611000  0.60649000  1
  O  O157  1  0.43705000  0.18585000  0.72800000  1
  O  O158  1  0.18733000  0.45448000  0.43975000  1
  O  O159  1  0.24448000  0.56987000  0.37664000  1
  O  O160  1  0.07618000  0.39849000  0.60638000  1
  O  O161  1  0.18540000  0.37723000  0.72818000  1
  O  O162  1  0.45466000  0.35790000  0.43970000  1
  O  O163  1  0.57071000  0.18512000  0.37728000  1
  O  O164  1  0.39863000  0.52531000  0.60648000  1
  O  O165  1  0.37782000  0.43780000  0.72877000  1
  O  O166  1  0.54540000  0.81252000  0.06029000  1
  O  O167  1  0.42944000  0.75530000  0.12231000  1
  O  O168  1  0.60140000  0.92390000  0.89352000  1
  O  O169  1  0.62290000  0.81414000  0.77201000  1
  O  O170  1  0.64181000  0.54552000  0.06025000  1
  O  O171  1  0.81435000  0.43012000  0.12337000  1
  O  O172  1  0.47466000  0.60151000  0.89362000  1
  O  O173  1  0.56263000  0.62275000  0.77183000  1
  O  O174  1  0.81257000  0.64209000  0.06031000  1
  O  O175  1  0.75583000  0.81488000  0.12272000  1
  O  O176  1  0.92395000  0.47468000  0.89353000  1
  O  O177  1  0.81563000  0.56219000  0.77125000  1
