# generated using pymatgen
data_H31(C12N)4
_symmetry_space_group_name_H-M   'P 1'
_cell_length_a   9.92300000
_cell_length_b   38.48970000
_cell_length_c   38.49170000
_cell_angle_alpha   89.94060000
_cell_angle_beta   90.00000000
_cell_angle_gamma   90.00000000
_symmetry_Int_Tables_number   1
_chemical_formula_structural   H31(C12N)4
_chemical_formula_sum   'H62 C96 N8'
_cell_volume   14701.25383756
_cell_formula_units_Z   2
loop_
 _symmetry_equiv_pos_site_id
 _symmetry_equiv_pos_as_xyz
  1  'x, y, z'
loop_
 _atom_site_type_symbol
 _atom_site_label
 _atom_site_symmetry_multiplicity
 _atom_site_fract_x
 _atom_site_fract_y
 _atom_site_fract_z
 _atom_site_occupancy
  C  1  1  0.95596200  0.08717200  0.92972400  1
  C  2  1  0.95579700  0.06226400  0.90394900  1
  C  3  1  0.95472400  0.02955600  0.91973000  1
  C  5  1  0.95553000  0.07030500  0.96189900  1
  C  6  1  0.95608500  0.08728600  0.99474900  1
  C  7  1  0.95483500  0.07006300  0.02741100  1
  C  9  1  0.95314100  0.02821800  0.06796700  1
  C  10  1  0.95392700  0.06026600  0.08495100  1
  C  11  1  0.95532900  0.08602800  0.05998100  1
  C  12  1  0.95215900  0.99503000  0.08415800  1
  C  13  1  0.95119600  0.96279600  0.06604200  1
  C  15  1  0.95091300  0.92205600  0.02385700  1
  C  16  1  0.95090800  0.90517300  0.05601900  1
  C  17  1  0.95144900  0.93007100  0.08179900  1
  C  18  1  0.95115600  0.90507600  0.99101000  1
  C  19  1  0.95162100  0.92230600  0.95835900  1
  C  21  1  0.95355400  0.96413800  0.91782800  1
  C  22  1  0.95384600  0.93209500  0.90083400  1
  C  23  1  0.95298500  0.90633600  0.92579300  1
  C  24  1  0.95481300  0.99731900  0.90163800  1
  C  25  1  0.95761500  0.99816900  0.86457400  1
  C  26  1  0.96326000  0.99802800  0.79025600  1
  C  27  1  0.96593200  0.99755300  0.75299800  1
  C  28  1  0.96946200  0.99614700  0.67849600  1
  C  29  1  0.95311000  0.86801600  0.99069100  1
  C  30  1  0.95775600  0.79377400  0.98994300  1
  C  31  1  0.96024500  0.75656200  0.98993900  1
  C  32  1  0.96640300  0.68209900  0.99001500  1
  C  33  1  0.95354300  0.99408000  0.12123700  1
  C  34  1  0.95656900  0.99240600  0.19556900  1
  C  35  1  0.95808500  0.99190300  0.23283500  1
  C  36  1  0.96077500  0.99116300  0.30735300  1
  C  37  1  0.95864300  0.12434800  0.99500800  1
  C  38  1  0.96373300  0.19860400  0.99504700  1
  C  39  1  0.96604200  0.23582200  0.99506900  1
  C  40  1  0.96768800  0.31031700  0.99467500  1
  C  55  1  0.90188200  0.57446500  0.98448100  1
  C  56  1  0.95859400  0.47790700  0.99534300  1
  C  57  1  0.91398500  0.40411100  0.99941000  1
  C  58  1  0.88919900  0.36852500  0.00251200  1
  C  59  1  0.89439100  0.00437500  0.41490800  1
  C  60  1  0.95716200  0.99421200  0.51137300  1
  C  61  1  0.91340600  0.99702800  0.58517900  1
  C  62  1  0.88671000  0.99997200  0.62052300  1
  C  63  1  0.98171100  0.51469400  0.99470700  1
  C  64  1  0.97730300  0.99377000  0.47440000  1
  C  65  1  0.88252700  0.01996700  0.73320800  1
  C  66  1  0.88446400  0.01938700  0.69663400  1
  C  67  1  0.88434300  0.70044500  0.96636400  1
  C  68  1  0.88166600  0.73703900  0.96621600  1
  C  69  1  0.87665200  0.96840400  0.28856800  1
  C  70  1  0.87592800  0.96860900  0.25196700  1
  C  71  1  0.88597500  0.25508100  0.01865400  1
  C  72  1  0.88710400  0.29164700  0.01858700  1
  C  73  1  0.88085500  0.53827700  0.98357300  1
  C  74  1  0.87383200  0.00401900  0.45112400  1
  C  75  1  0.08116800  0.99605300  0.84652500  1
  C  76  1  0.08370300  0.99596500  0.80996100  1
  C  77  1  0.83995500  0.00035900  0.80872500  1
  C  78  1  0.83690700  0.00034600  0.84529500  1
  C  79  1  0.05449200  0.97418400  0.69798800  1
  C  80  1  0.05219300  0.97471500  0.73457200  1
  C  81  1  0.07611900  0.84984500  0.99368000  1
  C  82  1  0.07814400  0.81329100  0.99338900  1
  C  83  1  0.83500200  0.81233400  0.98677400  1
  C  84  1  0.83246100  0.84890000  0.98721200  1
  C  85  1  0.04081600  0.73795900  0.01397600  1
  C  86  1  0.04353300  0.70140300  0.01413300  1
  C  87  1  0.83245200  0.99062500  0.14017800  1
  C  88  1  0.83419600  0.98973700  0.17674500  1
  C  89  1  0.07740900  0.99584100  0.17621100  1
  C  90  1  0.07618000  0.99660200  0.13964700  1
  C  91  1  0.04086800  0.01502800  0.25193500  1
  C  92  1  0.04200800  0.01476300  0.28851200  1
  C  93  1  0.83790900  0.14353700  0.99773600  1
  C  94  1  0.08192300  0.14245400  0.99230400  1
  C  95  1  0.08419100  0.17902200  0.99224700  1
  C  96  1  0.84068500  0.18009800  0.99783100  1
  C  97  1  0.04952300  0.29129900  0.97154600  1
  C  98  1  0.04840500  0.25470200  0.97163600  1
  C  131  1  0.02492000  0.58862500  0.99662300  1
  C  133  1  0.10513400  0.52890000  0.00644800  1
  C  134  1  0.12621500  0.56504000  0.00740000  1
  C  137  1  0.83436600  0.46417100  0.00710700  1
  C  138  1  0.81260000  0.42810700  0.00910900  1
  C  139  1  0.03806600  0.41777700  0.98736900  1
  C  140  1  0.05981300  0.45390900  0.98542700  1
  C  147  1  0.04824600  0.62432600  0.99899700  1
  C  150  1  0.01984500  0.99457000  0.40048400  1
  C  152  1  0.10221800  0.98367200  0.45970800  1
  C  153  1  0.12335400  0.98422700  0.42353900  1
  C  156  1  0.83307700  0.98375200  0.52629400  1
  C  157  1  0.81134100  0.98528600  0.56239900  1
  C  158  1  0.03820200  0.00712900  0.57055500  1
  C  159  1  0.05942200  0.00574200  0.53438200  1
  C  166  1  0.04554900  0.99665600  0.36502000  1
  H  41  1  0.95669900  0.11334700  0.92522800  1
  H  42  1  0.95650800  0.06762100  0.87793400  1
  H  43  1  0.95430100  0.01796100  0.97175600  1
  H  44  1  0.95035100  0.97440900  0.01402200  1
  H  45  1  0.95647700  0.11206900  0.06514700  1
  H  46  1  0.95375600  0.06461200  0.11114400  1
  H  47  1  0.95225000  0.92468100  0.10780500  1
  H  48  1  0.95101500  0.87899200  0.06049900  1
  H  49  1  0.95500600  0.92774500  0.87464400  1
  H  50  1  0.95360400  0.88029600  0.92061400  1
  H  99  1  0.10957700  0.30403700  0.95404500  1
  H  100  1  0.10672000  0.24194300  0.95381600  1
  H  101  1  0.82952200  0.30448400  0.03647100  1
  H  102  1  0.82756900  0.24260800  0.03669200  1
  H  103  1  0.75095600  0.19312700  0.99927800  1
  H  104  1  0.74714000  0.13101200  0.99953900  1
  H  105  1  0.17559000  0.19124900  0.99076800  1
  H  106  1  0.17089400  0.12911800  0.99038800  1
  H  107  1  0.74208600  0.98889600  0.12744900  1
  H  108  1  0.74411700  0.98789200  0.18955200  1
  H  109  1  0.16548700  0.99897700  0.12653000  1
  H  110  1  0.16849100  0.99723600  0.18859900  1
  H  111  1  0.16507400  0.86312000  0.99604400  1
  H  112  1  0.16939800  0.80102600  0.99515100  1
  H  113  1  0.74192600  0.86149000  0.98509300  1
  H  114  1  0.74535200  0.79934000  0.98482200  1
  H  115  1  0.82300800  0.74932800  0.94811600  1
  H  116  1  0.82651700  0.68722000  0.94875200  1
  H  117  1  0.10092900  0.68902900  0.03241000  1
  H  118  1  0.09644600  0.75089400  0.03224200  1
  H  119  1  0.74590500  0.00160800  0.85776900  1
  H  120  1  0.75018400  0.00120100  0.79566800  1
  H  121  1  0.11294400  0.95766900  0.74766400  1
  H  122  1  0.11770000  0.95719500  0.68561300  1
  H  123  1  0.82433200  0.03639700  0.68333000  1
  H  124  1  0.82102600  0.03755600  0.74528400  1
  H  125  1  0.17533800  0.99481800  0.79782200  1
  H  126  1  0.17014200  0.99444600  0.85990600  1
  H  127  1  0.09916200  0.03300600  0.23935200  1
  H  128  1  0.10102200  0.03239100  0.30130200  1
  H  129  1  0.81558800  0.95111800  0.23938300  1
  H  130  1  0.81589600  0.95119100  0.30147400  1
  H  135  1  0.18009500  0.51304900  0.01554200  1
  H  136  1  0.21660100  0.57396900  0.01664800  1
  H  141  1  0.75910200  0.48035200  0.01538600  1
  H  142  1  0.72141700  0.41955900  0.01821800  1
  H  143  1  0.11464400  0.40154400  0.98004700  1
  H  144  1  0.82535700  0.59037600  0.97641700  1
  H  145  1  0.15077400  0.46255500  0.97635100  1
  H  146  1  0.79049900  0.52927700  0.97445700  1
  H  148  1  0.13594000  0.63234300  0.00860400  1
  H  149  1  0.80063200  0.36095600  0.01196600  1
  H  154  1  0.17965400  0.97553800  0.47527600  1
  H  155  1  0.21583600  0.97698900  0.41418600  1
  H  160  1  0.75663800  0.97465800  0.51095200  1
  H  161  1  0.71942200  0.97774300  0.57190200  1
  H  162  1  0.11384100  0.01647500  0.58603900  1
  H  163  1  0.81773000  0.01281700  0.39921800  1
  H  164  1  0.14967000  0.01444300  0.52490900  1
  H  165  1  0.78285800  0.01242700  0.46038500  1
  H  167  1  0.13869000  0.00238300  0.35732700  1
  H  168  1  0.79283800  0.00531800  0.62788600  1
  N  4  1  0.95435000  0.03588800  0.95439600  1
  N  8  1  0.95350500  0.03548500  0.03359600  1
  N  14  1  0.95060700  0.95647500  0.03137400  1
  N  20  1  0.95199800  0.95688200  0.95219500  1
  N  51  1  0.97721800  0.99469600  0.64391300  1
  N  52  1  0.97414800  0.34494400  0.99335900  1
  N  53  1  0.95470200  0.99037700  0.34198000  1
  N  54  1  0.96233300  0.64744900  0.98923800  1
