# generated using pymatgen
data_AgH30C36(NO)4
_symmetry_space_group_name_H-M   'P 1'
_cell_length_a   13.02690000
_cell_length_b   13.53850000
_cell_length_c   15.92796337
_cell_angle_alpha   111.46524599
_cell_angle_beta   110.39820069
_cell_angle_gamma   98.20130000
_symmetry_Int_Tables_number   1
_chemical_formula_structural   AgH30C36(NO)4
_chemical_formula_sum   'Ag2 H60 C72 N8 O8'
_cell_volume   2329.83456319
_cell_formula_units_Z   2
loop_
 _symmetry_equiv_pos_site_id
 _symmetry_equiv_pos_as_xyz
  1  'x, y, z'
loop_
 _atom_site_type_symbol
 _atom_site_label
 _atom_site_symmetry_multiplicity
 _atom_site_fract_x
 _atom_site_fract_y
 _atom_site_fract_z
 _atom_site_occupancy
  Ag  Ag0  1  0.22095000  0.47049000  0.94119000  1
  Ag  Ag1  1  0.77905000  0.52950000  0.05881000  1
  H  H2  1  0.18325000  0.63881000  0.11848000  1
  H  H3  1  0.23589000  0.83964000  0.22999000  1
  H  H4  1  0.39954000  0.90694000  0.05396000  1
  H  H5  1  0.34404000  0.70205000  0.95189000  1
  H  H6  1  0.27179000  0.05812000  0.43710000  1
  H  H7  1  0.15228000  0.11220000  0.42968000  1
  H  H8  1  0.25836000  0.13715000  0.54934000  1
  H  H9  1  0.51043000  0.91119000  0.30875000  1
  H  H10  1  0.51447000  0.91742000  0.42428000  1
  H  H11  1  0.59659000  0.03595000  0.42393000  1
  H  H12  1  0.40544000  0.34688000  0.91489000  1
  H  H13  1  0.50691000  0.28736000  0.80828000  1
  H  H14  1  0.29059000  0.39872000  0.60949000  1
  H  H15  1  0.19808000  0.45411000  0.72525000  1
  H  H16  1  0.43593000  0.48030000  0.11962000  1
  H  H17  1  0.49481000  0.39041000  0.23096000  1
  H  H18  1  0.15521000  0.14737000  0.05472000  1
  H  H19  1  0.10847000  0.25045000  0.95258000  1
  H  H20  1  0.66528000  0.37866000  0.43716000  1
  H  H21  1  0.77790000  0.31798000  0.42987000  1
  H  H22  1  0.79119000  0.41210000  0.54954000  1
  H  H23  1  0.30022000  0.39707000  0.30826000  1
  H  H24  1  0.41158000  0.50617000  0.42378000  1
  H  H25  1  0.32849000  0.38781000  0.42362000  1
  H  H26  1  0.00903000  0.56934000  0.91524000  1
  H  H27  1  0.80074000  0.52071000  0.80823000  1
  H  H28  1  0.82036000  0.21137000  0.61074000  1
  H  H29  1  0.02884000  0.27319000  0.72670000  1
  H  H30  1  0.29030000  0.04002000  0.07987000  1
  H  H31  1  0.63571000  0.38524000  0.77127000  1
  H  H32  1  0.81675000  0.36119000  0.88152000  1
  H  H33  1  0.76412000  0.16037000  0.77002000  1
  H  H34  1  0.60047000  0.09307000  0.94605000  1
  H  H35  1  0.65597000  0.29796000  0.04812000  1
  H  H36  1  0.72821000  0.94187000  0.56290000  1
  H  H37  1  0.84773000  0.88779000  0.57032000  1
  H  H38  1  0.74165000  0.86286000  0.45067000  1
  H  H39  1  0.48957000  0.08881000  0.69125000  1
  H  H40  1  0.48554000  0.08258000  0.57573000  1
  H  H41  1  0.40342000  0.96406000  0.57608000  1
  H  H42  1  0.59456000  0.65312000  0.08511000  1
  H  H43  1  0.49310000  0.71265000  0.19173000  1
  H  H44  1  0.70941000  0.60128000  0.39051000  1
  H  H45  1  0.80192000  0.54589000  0.27475000  1
  H  H46  1  0.56407000  0.51970000  0.88038000  1
  H  H47  1  0.50519000  0.60958000  0.76904000  1
  H  H48  1  0.84480000  0.85264000  0.94529000  1
  H  H49  1  0.89154000  0.74956000  0.04743000  1
  H  H50  1  0.33473000  0.62135000  0.56285000  1
  H  H51  1  0.22211000  0.68203000  0.57014000  1
  H  H52  1  0.20881000  0.58790000  0.45046000  1
  H  H53  1  0.69978000  0.60292000  0.69174000  1
  H  H54  1  0.58843000  0.49383000  0.57623000  1
  H  H55  1  0.67152000  0.61220000  0.57639000  1
  H  H56  1  0.99097000  0.43066000  0.08476000  1
  H  H57  1  0.19927000  0.47929000  0.19177000  1
  H  H58  1  0.17964000  0.78863000  0.38926000  1
  H  H59  1  0.97117000  0.72682000  0.27331000  1
  H  H60  1  0.70970000  0.95998000  0.92013000  1
  H  H61  1  0.36429000  0.61476000  0.22873000  1
  C  C62  1  0.23223000  0.70065000  0.10704000  1
  C  C63  1  0.26129000  0.81353000  0.16910000  1
  C  C64  1  0.32188000  0.89283000  0.15150000  1
  C  C65  1  0.35107000  0.85026000  0.07061000  1
  C  C66  1  0.32058000  0.73593000  0.01346000  1
  C  C67  1  0.35242000  0.01384000  0.21124000  1
  C  C68  1  0.40284000  0.06757000  0.31734000  1
  C  C69  1  0.42326000  0.26135000  0.53363000  1
  C  C70  1  0.24393000  0.12776000  0.47415000  1
  C  C71  1  0.51654000  0.96555000  0.38227000  1
  C  C72  1  0.38298000  0.35769000  0.84692000  1
  C  C73  1  0.43947000  0.32468000  0.78703000  1
  C  C74  1  0.40979000  0.34047000  0.69950000  1
  C  C75  1  0.31858000  0.38591000  0.67642000  1
  C  C76  1  0.26710000  0.41703000  0.74092000  1
  C  C77  1  0.47496000  0.31495000  0.63988000  1
  C  C78  1  0.37559000  0.40681000  0.10797000  1
  C  C79  1  0.40861000  0.35572000  0.16991000  1
  C  C80  1  0.33050000  0.25860000  0.15205000  1
  C  C81  1  0.22030000  0.22058000  0.07123000  1
  C  C82  1  0.19357000  0.27793000  0.01413000  1
  C  C83  1  0.35976000  0.19689000  0.21147000  1
  C  C84  1  0.41565000  0.24886000  0.31754000  1
  C  C85  1  0.61119000  0.27149000  0.53372000  1
  C  C86  1  0.73059000  0.34640000  0.47430000  1
  C  C87  1  0.36730000  0.41613000  0.38196000  1
  C  C88  1  0.96401000  0.49037000  0.84744000  1
  C  C89  1  0.84746000  0.46267000  0.78728000  1
  C  C90  1  0.79021000  0.35922000  0.69997000  1
  C  C91  1  0.85893000  0.29128000  0.67735000  1
  C  C92  1  0.97498000  0.32544000  0.74202000  1
  C  C93  1  0.66541000  0.32441000  0.64001000  1
  C  C94  1  0.33105000  0.08048000  0.16139000  1
  C  C95  1  0.43538000  0.18435000  0.36988000  1
  C  C96  1  0.49095000  0.24000000  0.48113000  1
  C  C97  1  0.59508000  0.34456000  0.68982000  1
  C  C98  1  0.76777000  0.29935000  0.89296000  1
  C  C99  1  0.73871000  0.18647000  0.83090000  1
  C  C100  1  0.67813000  0.10716000  0.84850000  1
  C  C101  1  0.64893000  0.14973000  0.92939000  1
  C  C102  1  0.67942000  0.26407000  0.98654000  1
  C  C103  1  0.64758000  0.98616000  0.78876000  1
  C  C104  1  0.59716000  0.93243000  0.68266000  1
  C  C105  1  0.57674000  0.73865000  0.46637000  1
  C  C106  1  0.75607000  0.87223000  0.52585000  1
  C  C107  1  0.48347000  0.03445000  0.61774000  1
  C  C108  1  0.61703000  0.64231000  0.15308000  1
  C  C109  1  0.56054000  0.67533000  0.21298000  1
  C  C110  1  0.59021000  0.65953000  0.30050000  1
  C  C111  1  0.68142000  0.61409000  0.32358000  1
  C  C112  1  0.73290000  0.58297000  0.25908000  1
  C  C113  1  0.52505000  0.68506000  0.36013000  1
  C  C114  1  0.62443000  0.59319000  0.89204000  1
  C  C115  1  0.59140000  0.64428000  0.83010000  1
  C  C116  1  0.66951000  0.74141000  0.84796000  1
  C  C117  1  0.77971000  0.77941000  0.92877000  1
  C  C118  1  0.80644000  0.72207000  0.98588000  1
  C  C119  1  0.64026000  0.80312000  0.78854000  1
  C  C120  1  0.58436000  0.75115000  0.68247000  1
  C  C121  1  0.38882000  0.72851000  0.46629000  1
  C  C122  1  0.26941000  0.65360000  0.52570000  1
  C  C123  1  0.63270000  0.58387000  0.61804000  1
  C  C124  1  0.03599000  0.50963000  0.15256000  1
  C  C125  1  0.15254000  0.53732000  0.21272000  1
  C  C126  1  0.20980000  0.64079000  0.30004000  1
  C  C127  1  0.14108000  0.70873000  0.32266000  1
  C  C128  1  0.02503000  0.67456000  0.25798000  1
  C  C129  1  0.33459000  0.67559000  0.35999000  1
  C  C130  1  0.66896000  0.91953000  0.83862000  1
  C  C131  1  0.56462000  0.81564000  0.63012000  1
  C  C132  1  0.50905000  0.76000000  0.51887000  1
  C  C133  1  0.40492000  0.65544000  0.31018000  1
  N  N134  1  0.26138000  0.65990000  0.03007000  1
  N  N135  1  0.29850000  0.40511000  0.82656000  1
  N  N136  1  0.26945000  0.37065000  0.03088000  1
  N  N137  1  0.02868000  0.42315000  0.82739000  1
  N  N138  1  0.73863000  0.34010000  0.96993000  1
  N  N139  1  0.70151000  0.59490000  0.17345000  1
  N  N140  1  0.73056000  0.62936000  0.96913000  1
  N  N141  1  0.97132000  0.57685000  0.17261000  1
  O  O142  1  0.41773000  0.00601000  0.37115000  1
  O  O143  1  0.30454000  0.22979000  0.47948000  1
  O  O144  1  0.45496000  0.36416000  0.37155000  1
  O  O145  1  0.67596000  0.24942000  0.47970000  1
  O  O146  1  0.58227000  0.99399000  0.62885000  1
  O  O147  1  0.69547000  0.77022000  0.52053000  1
  O  O148  1  0.54505000  0.63584000  0.62845000  1
  O  O149  1  0.32404000  0.75058000  0.52030000  1
