# generated using pymatgen
data_H7C7NO
_symmetry_space_group_name_H-M   'P 1'
_cell_length_a   31.71620000
_cell_length_b   33.68465000
_cell_length_c   33.68460000
_cell_angle_alpha   119.99985269
_cell_angle_beta   90.00000000
_cell_angle_gamma   90.00000000
_symmetry_Int_Tables_number   1
_chemical_formula_structural   H7C7NO
_chemical_formula_sum   'H336 C336 N48 O48'
_cell_volume   31165.62623078
_cell_formula_units_Z   48
loop_
 _symmetry_equiv_pos_site_id
 _symmetry_equiv_pos_as_xyz
  1  'x, y, z'
loop_
 _atom_site_type_symbol
 _atom_site_label
 _atom_site_symmetry_multiplicity
 _atom_site_fract_x
 _atom_site_fract_y
 _atom_site_fract_z
 _atom_site_occupancy
  H  5  1  0.88543900  0.50960400  0.65739600  1
  H  6  1  0.87004400  0.53737300  0.62716100  1
  H  9  1  0.86419700  0.62523300  0.66824400  1
  H  10  1  0.87429800  0.65834700  0.72728600  1
  H  11  1  0.92578500  0.58659300  0.61272400  1
  H  12  1  0.97758300  0.58956100  0.63322500  1
  H  15  1  0.95113800  0.66638400  0.75772700  1
  H  16  1  0.99277400  0.63902700  0.71897900  1
  H  18  1  0.89715700  0.61672300  0.77287500  1
  H  19  1  0.90204100  0.55688500  0.74364700  1
  H  21  1  0.99875600  0.54994100  0.67617100  1
  H  22  1  0.96192800  0.51769800  0.68752000  1
  H  35  1  0.88493100  0.15329200  0.49457700  1
  H  36  1  0.86974900  0.09522600  0.46693500  1
  H  39  1  0.86400100  0.04821000  0.37907700  1
  H  40  1  0.87394300  0.07403600  0.34584100  1
  H  41  1  0.92572400  0.03174700  0.41788800  1
  H  42  1  0.97743300  0.04948900  0.41491800  1
  H  45  1  0.95067400  0.09672300  0.33780100  1
  H  46  1  0.99239700  0.08562100  0.36528000  1
  H  48  1  0.89647900  0.16133100  0.38725600  1
  H  49  1  0.90129700  0.19211500  0.44710200  1
  H  51  1  0.99828000  0.13213700  0.45437300  1
  H  52  1  0.96129800  0.17559400  0.48648100  1
  H  65  1  0.88466200  0.34721600  0.85101500  1
  H  66  1  0.86950100  0.37754100  0.90909300  1
  H  69  1  0.86405300  0.33657800  0.95603400  1
  H  70  1  0.87420200  0.27755000  0.93014000  1
  H  71  1  0.92554100  0.39210300  0.97253100  1
  H  72  1  0.97730900  0.37163100  0.95475300  1
  H  75  1  0.95100800  0.24713100  0.90740700  1
  H  76  1  0.99258500  0.28588700  0.91855400  1
  H  78  1  0.89671700  0.23185200  0.84284000  1
  H  79  1  0.90134500  0.26098200  0.81211100  1
  H  81  1  0.99815100  0.32860000  0.87213600  1
  H  82  1  0.96113500  0.31711500  0.82867200  1
  H  95  1  0.63626400  0.12757300  0.65353700  1
  H  96  1  0.64507400  0.06814700  0.62153200  1
  H  99  1  0.64361100  0.01843800  0.66003100  1
  H  100  1  0.63512300  0.04414100  0.71948300  1
  H  101  1  0.58279300  0.01266400  0.60782200  1
  H  102  1  0.53255700  0.03506800  0.63043500  1
  H  105  1  0.56064100  0.07622700  0.75372500  1
  H  106  1  0.51942200  0.07067000  0.71628800  1
  H  108  1  0.62243900  0.13029000  0.76790000  1
  H  109  1  0.62227200  0.16557200  0.74303100  1
  H  111  1  0.52094200  0.12168300  0.67753600  1
  H  112  1  0.56318800  0.15990200  0.68912000  1
  H  125  1  0.63626100  0.35098700  0.47287700  1
  H  126  1  0.64523500  0.38310600  0.44560900  1
  H  129  1  0.64399900  0.34479400  0.35740600  1
  H  130  1  0.63552000  0.28535200  0.32352400  1
  H  131  1  0.58311800  0.39696700  0.40374000  1
  H  132  1  0.53283800  0.37433700  0.40332800  1
  H  135  1  0.56096900  0.25108300  0.32106400  1
  H  136  1  0.51971500  0.28849800  0.35288600  1
  H  138  1  0.62260600  0.23678000  0.36104100  1
  H  139  1  0.62228700  0.26152700  0.42118200  1
  H  141  1  0.52100200  0.32706500  0.44262600  1
  H  142  1  0.56313500  0.31539000  0.46932300  1
  H  155  1  0.63627400  0.53158600  0.87720500  1
  H  156  1  0.64510500  0.55901400  0.93662300  1
  H  159  1  0.64354200  0.64721700  0.98634400  1
  H  160  1  0.63499100  0.68095600  0.96064200  1
  H  161  1  0.58277800  0.60072800  0.99212700  1
  H  162  1  0.53253200  0.60085900  0.96970600  1
  H  165  1  0.56048600  0.68302900  0.92855100  1
  H  166  1  0.51931200  0.65109900  0.93410300  1
  H  168  1  0.62230900  0.64320600  0.87448400  1
  H  169  1  0.62219000  0.58305000  0.83921200  1
  H  171  1  0.52092000  0.56133900  0.88309900  1
  H  172  1  0.56317600  0.53475800  0.84487800  1
  H  185  1  0.11727400  0.49898500  0.34280800  1
  H  186  1  0.13362500  0.47420100  0.37556600  1
  H  189  1  0.14231800  0.38676300  0.33803600  1
  H  190  1  0.13296300  0.35114700  0.27912000  1
  H  191  1  0.07989200  0.42528100  0.39236700  1
  H  192  1  0.02804800  0.41934500  0.37100600  1
  H  195  1  0.05621700  0.33898800  0.24748400  1
  H  196  1  0.01393200  0.36609500  0.28536500  1
  H  198  1  0.10833500  0.38830700  0.22996700  1
  H  199  1  0.10168900  0.44785000  0.25669800  1
  H  201  1  0.00522100  0.45467900  0.32448300  1
  H  202  1  0.04084000  0.48667400  0.31140000  1
  H  215  1  0.11648900  0.84919500  0.50555600  1
  H  216  1  0.13346100  0.90651500  0.53009800  1
  H  219  1  0.14276200  0.95646300  0.61749300  1
  H  220  1  0.13311400  0.93341800  0.65327900  1
  H  221  1  0.08057600  0.97292700  0.57922600  1
  H  222  1  0.02853000  0.95833800  0.58559200  1
  H  225  1  0.05614100  0.91503700  0.66599000  1
  H  226  1  0.01399800  0.92628200  0.63907800  1
  H  228  1  0.10752500  0.84746400  0.61644800  1
  H  229  1  0.10051300  0.81462200  0.55696000  1
  H  231  1  0.00472200  0.87675500  0.55060900  1
  H  232  1  0.03982700  0.83117400  0.51845900  1
  H  245  1  0.11692400  0.66168900  0.15531700  1
  H  246  1  0.13371300  0.62897400  0.09792400  1
  H  249  1  0.14272100  0.66650300  0.04804300  1
  H  250  1  0.13308900  0.72535300  0.07120800  1
  H  251  1  0.08052000  0.61178000  0.03171700  1
  H  252  1  0.02852100  0.63279300  0.04659800  1
  H  255  1  0.05614100  0.75648300  0.08990400  1
  H  256  1  0.01401100  0.71834800  0.07879600  1
  H  258  1  0.10777700  0.77440800  0.15727500  1
  H  259  1  0.10094800  0.74768600  0.19006600  1
  H  261  1  0.00500600  0.67929900  0.12827100  1
  H  262  1  0.04029100  0.69264800  0.17368500  1
  H  275  1  0.37173700  0.87445200  0.34570600  1
  H  276  1  0.36126300  0.93302800  0.38210300  1
  H  279  1  0.35789900  0.98882500  0.35077100  1
  H  280  1  0.36490100  0.96836400  0.29182700  1
  H  281  1  0.42106200  0.99203700  0.39947600  1
  H  282  1  0.47130800  0.97280900  0.37470500  1
  H  285  1  0.43926400  0.94122900  0.25458000  1
  H  286  1  0.48199900  0.94484800  0.28958600  1
  H  288  1  0.37985300  0.88351700  0.23688300  1
  H  289  1  0.38315700  0.84418600  0.25686600  1
  H  291  1  0.48524100  0.88751300  0.32091900  1
  H  292  1  0.44457700  0.84701200  0.30687500  1
  H  305  1  0.37187300  0.65905800  0.52767200  1
  H  306  1  0.36140500  0.62257300  0.54975100  1
  H  309  1  0.35799300  0.65377100  0.63686300  1
  H  310  1  0.36495800  0.71270400  0.67541600  1
  H  311  1  0.42116300  0.60513900  0.59135000  1
  H  312  1  0.47141500  0.62992000  0.59696500  1
  H  315  1  0.43932400  0.74999100  0.68564300  1
  H  316  1  0.48207500  0.71502900  0.65424300  1
  H  318  1  0.37992200  0.76776000  0.64566800  1
  H  319  1  0.38326400  0.74788400  0.58637700  1
  H  321  1  0.48536400  0.68384200  0.56560600  1
  H  322  1  0.44470900  0.69793500  0.53917400  1
  H  335  1  0.37146600  0.47688300  0.13039200  1
  H  336  1  0.36089700  0.45475200  0.07184200  1
  H  339  1  0.35769100  0.36763300  0.01595200  1
  H  340  1  0.36493300  0.32910600  0.03631800  1
  H  341  1  0.42062100  0.41337800  0.01272800  1
  H  342  1  0.47097300  0.40795500  0.03183600  1
  H  345  1  0.43943700  0.31915400  0.06327500  1
  H  346  1  0.48202100  0.35070700  0.05964600  1
  H  348  1  0.38005800  0.35891700  0.12110300  1
  H  349  1  0.38325200  0.41822300  0.16051000  1
  H  351  1  0.48509200  0.43935200  0.11708300  1
  H  352  1  0.44446300  0.46563900  0.15767200  1
  H  366  1  0.70194500  0.64964800  0.84873800  1
  H  368  1  0.81513900  0.54291700  0.76803500  1
  H  369  1  0.76785800  0.52837700  0.81450000  1
  H  371  1  0.71911100  0.69777400  0.81904300  1
  H  372  1  0.74113100  0.66732300  0.76356900  1
  H  373  1  0.77397100  0.70002500  0.81191400  1
  H  375  1  0.68778600  0.54927700  0.84117700  1
  H  377  1  0.82984800  0.64232900  0.77206600  1
  H  383  1  0.70116800  0.20467800  0.35542300  1
  H  385  1  0.81548300  0.23019600  0.46079400  1
  H  386  1  0.76852500  0.29155200  0.47565800  1
  H  388  1  0.71772800  0.12667000  0.30730200  1
  H  389  1  0.73988800  0.10165700  0.33770000  1
  H  390  1  0.77253700  0.11682000  0.30448700  1
  H  392  1  0.68768600  0.29706700  0.45524600  1
  H  394  1  0.82922200  0.13460500  0.36167400  1
  H  400  1  0.70122000  0.15652500  0.79995900  1
  H  402  1  0.81554500  0.23611900  0.77409800  1
  H  403  1  0.76850000  0.18960900  0.71284500  1
  H  405  1  0.71790300  0.18647900  0.87795300  1
  H  406  1  0.74004000  0.24189200  0.90282600  1
  H  407  1  0.77271600  0.19356000  0.88776900  1
  H  409  1  0.68769800  0.16381400  0.70745000  1
  H  411  1  0.82953200  0.23262300  0.86949300  1
  H  417  1  0.30413700  0.36055300  0.15595600  1
  H  419  1  0.18938200  0.46568700  0.23474300  1
  H  420  1  0.23683100  0.48059700  0.18866900  1
  H  422  1  0.28753400  0.31272400  0.18617500  1
  H  423  1  0.26491800  0.34315600  0.24135400  1
  H  424  1  0.23268800  0.30957500  0.19270000  1
  H  426  1  0.31955200  0.45884800  0.16452100  1
  H  428  1  0.17640400  0.36644300  0.23240100  1
  H  434  1  0.30353200  0.80045900  0.64404200  1
  H  436  1  0.18934100  0.77365700  0.53815400  1
  H  437  1  0.23714600  0.71297700  0.52334000  1
  H  439  1  0.28641800  0.87833400  0.69196000  1
  H  440  1  0.26369700  0.90310400  0.66160500  1
  H  441  1  0.23150900  0.88754800  0.69483900  1
  H  443  1  0.31971300  0.71104900  0.54559300  1
  H  445  1  0.17589100  0.87084700  0.63774700  1
  H  451  1  0.30356000  0.84923300  0.20406300  1
  H  453  1  0.18946700  0.76983600  0.23058000  1
  H  454  1  0.23709600  0.81586100  0.29138600  1
  H  456  1  0.28662600  0.81919300  0.12613100  1
  H  457  1  0.26408800  0.76397500  0.10132000  1
  H  458  1  0.23174500  0.81262700  0.11673100  1
  H  460  1  0.31946100  0.84048200  0.29395500  1
  H  462  1  0.17601000  0.77241900  0.13368600  1
  H  468  1  0.02691300  0.71449200  0.95806100  1
  H  470  1  0.99883400  0.56377000  0.82967700  1
  H  471  1  0.03207400  0.57099400  0.89588300  1
  H  473  1  0.00539700  0.75277000  0.91963400  1
  H  474  1  0.96015500  0.72467300  0.88739100  1
  H  475  1  0.00871400  0.72093400  0.85935700  1
  H  477  1  0.04038200  0.61972500  0.97569600  1
  H  479  1  0.95249400  0.65143900  0.81999500  1
  H  485  1  0.02637700  0.24885400  0.28944400  1
  H  487  1  0.99749700  0.27162400  0.44019500  1
  H  488  1  0.03070000  0.33060900  0.43294800  1
  H  490  1  0.00508500  0.17207300  0.25125900  1
  H  491  1  0.95976100  0.16778800  0.27916400  1
  H  492  1  0.00838300  0.14383400  0.28329200  1
  H  494  1  0.03937000  0.36146600  0.38409600  1
  H  496  1  0.95177000  0.17389000  0.35252200  1
  H  502  1  0.02684400  0.04684000  0.75543700  1
  H  504  1  0.99907500  0.17515100  0.73290600  1
  H  505  1  0.03270500  0.10909200  0.67421400  1
  H  507  1  0.00474400  0.08513900  0.83192700  1
  H  508  1  0.95951200  0.11723600  0.83568500  1
  H  509  1  0.00790400  0.14542700  0.86043700  1
  H  511  1  0.04109800  0.02933000  0.64314300  1
  H  513  1  0.95209700  0.18471400  0.82999300  1
  H  519  1  0.50459000  0.26302400  0.95358900  1
  H  521  1  0.50418400  0.25556100  0.80612800  1
  H  522  1  0.46065100  0.31061300  0.86701400  1
  H  524  1  0.55221000  0.20130900  0.92930100  1
  H  525  1  0.58975200  0.20266900  0.89134900  1
  H  526  1  0.54895900  0.16092700  0.87021900  1
  H  528  1  0.45847200  0.35463600  0.95369900  1
  H  530  1  0.58416500  0.19658800  0.81472700  1
  H  536  1  0.50461900  0.05100100  0.30796400  1
  H  538  1  0.50424000  0.19855500  0.44783400  1
  H  539  1  0.46075500  0.13769300  0.44211500  1
  H  541  1  0.55221000  0.07521400  0.27044400  1
  H  542  1  0.58975800  0.11318600  0.30973100  1
  H  543  1  0.54897800  0.13427800  0.28906500  1
  H  545  1  0.45874000  0.05098500  0.39954100  1
  H  547  1  0.58420300  0.18984700  0.38025700  1
  H  553  1  0.50454300  0.69634300  0.74203300  1
  H  555  1  0.50408900  0.55613000  0.74908100  1
  H  556  1  0.46065100  0.56211000  0.69405800  1
  H  558  1  0.55205800  0.73368700  0.80385600  1
  H  559  1  0.58961900  0.69432200  0.80235100  1
  H  560  1  0.54883300  0.71481100  0.84410100  1
  H  562  1  0.45865500  0.60490000  0.65018600  1
  H  564  1  0.58404500  0.62370900  0.80822100  1
  H  570  1  0.98181300  0.28625500  0.04207200  1
  H  572  1  0.00794800  0.43722000  0.17097800  1
  H  573  1  0.97604600  0.42974600  0.10415200  1
  H  575  1  0.00287200  0.24820200  0.08097400  1
  H  576  1  0.04727500  0.27692600  0.11461000  1
  H  577  1  0.99799100  0.27998700  0.14113500  1
  H  579  1  0.96848100  0.38139000  0.02463200  1
  H  581  1  0.05378300  0.35059600  0.18233200  1
  H  587  1  0.98129400  0.76222900  0.71884300  1
  H  589  1  0.00697000  0.74068200  0.56800000  1
  H  590  1  0.97537500  0.68111600  0.57533400  1
  H  592  1  0.00209300  0.83927700  0.75703800  1
  H  593  1  0.04639200  0.84441600  0.72831900  1
  H  594  1  0.99700100  0.86776900  0.72538300  1
  H  596  1  0.96825800  0.64971700  0.62354300  1
  H  598  1  0.05286200  0.83849400  0.65467400  1
  H  604  1  0.98122500  0.96188200  0.24221900  1
  H  606  1  0.00730800  0.83303000  0.26437900  1
  H  607  1  0.97560800  0.89996800  0.32378600  1
  H  609  1  0.00202100  0.92282800  0.16517000  1
  H  610  1  0.04641400  0.88914400  0.16017200  1
  H  611  1  0.99707000  0.86267600  0.13688200  1
  H  613  1  0.96831400  0.97950500  0.35489900  1
  H  615  1  0.05307000  0.82161000  0.16638900  1
  H  621  1  0.49439400  0.74926500  0.04355500  1
  H  623  1  0.50121700  0.76303500  0.19364300  1
  H  624  1  0.54302500  0.70646200  0.13223000  1
  H  626  1  0.44676200  0.81101400  0.06770000  1
  H  627  1  0.41097600  0.81141400  0.10800000  1
  H  628  1  0.45174300  0.85307000  0.12609800  1
  H  630  1  0.54274100  0.65965500  0.04661200  1
  H  632  1  0.41940400  0.81981900  0.18527500  1
  H  638  1  0.49448500  0.96121900  0.70496600  1
  H  640  1  0.50128300  0.81115200  0.56861800  1
  H  641  1  0.54308200  0.87256900  0.57346300  1
  H  643  1  0.44683700  0.93707100  0.74255200  1
  H  644  1  0.41106400  0.89675600  0.70264500  1
  H  645  1  0.45183200  0.87867600  0.72621900  1
  H  647  1  0.54283600  0.95815700  0.61228000  1
  H  649  1  0.41949500  0.81947200  0.63372900  1
  H  655  1  0.49500200  0.30000600  0.25519700  1
  H  657  1  0.50169000  0.43624400  0.24127300  1
  H  658  1  0.54362100  0.43145100  0.29780000  1
  H  660  1  0.44727900  0.26237100  0.19355300  1
  H  661  1  0.41145500  0.30226400  0.19320500  1
  H  662  1  0.45213800  0.27866500  0.15145100  1
  H  664  1  0.54334300  0.39264500  0.34469600  1
  H  666  1  0.41978200  0.37106200  0.18472600  1
  H  672  1  0.98045000  0.48349200  0.42219500  1
  H  674  1  0.02109300  0.52616400  0.57644400  1
  H  675  1  0.07014600  0.53400300  0.52823600  1
  H  677  1  0.91401900  0.45737700  0.42731900  1
  H  678  1  0.89231100  0.49315900  0.48202000  1
  H  679  1  0.91097400  0.43756000  0.46675500  1
  H  681  1  0.08843400  0.50154500  0.44650000  1
  H  683  1  0.91346000  0.51231100  0.55737900  1
  H  689  1  0.98031400  0.94506300  0.52161100  1
  H  691  1  0.02076100  0.05620700  0.47828000  1
  H  692  1  0.06982200  0.00018200  0.47049000  1
  H  694  1  0.91393800  0.97643900  0.54788200  1
  H  695  1  0.89209100  0.99510000  0.51195300  1
  H  696  1  0.91087900  0.03563400  0.56741900  1
  H  698  1  0.08817200  0.95100600  0.50298200  1
  H  700  1  0.91327800  0.05075600  0.49209100  1
  H  706  1  0.98027600  0.58209200  0.06037300  1
  H  708  1  0.02081800  0.42820300  0.94765800  1
  H  709  1  0.07000500  0.47612200  0.00371500  1
  H  711  1  0.91367900  0.57716800  0.02951300  1
  H  712  1  0.89204500  0.52239900  0.01039200  1
  H  713  1  0.91039300  0.53801500  0.97020700  1
  H  715  1  0.08847800  0.55757600  0.05389900  1
  H  717  1  0.91307500  0.44735600  0.95353800  1
  H  723  1  0.51827700  0.94774300  0.41816400  1
  H  725  1  0.49115900  0.05033500  0.57884300  1
  H  726  1  0.43580200  0.00456700  0.53100100  1
  H  728  1  0.58827600  0.97023800  0.42180500  1
  H  729  1  0.61177900  0.98048500  0.47347200  1
  H  730  1  0.59793400  0.02711300  0.46543800  1
  H  732  1  0.41210100  0.96598700  0.45003100  1
  H  734  1  0.59629700  0.03141600  0.55304700  1
  H  740  1  0.51849200  0.58645000  0.52833100  1
  H  742  1  0.49117800  0.42580700  0.47028600  1
  H  743  1  0.43587500  0.47373500  0.47238600  1
  H  745  1  0.58851300  0.58269200  0.54707000  1
  H  746  1  0.61192000  0.53095500  0.50566200  1
  H  747  1  0.59811400  0.53909000  0.56037100  1
  H  749  1  0.41230000  0.55463500  0.51471100  1
  H  751  1  0.59661900  0.45140000  0.47748500  1
  H  757  1  0.51821400  0.47681200  0.05755200  1
  H  759  1  0.49114300  0.53372900  0.95397800  1
  H  760  1  0.43570100  0.53173500  0.99969500  1
  H  762  1  0.58833600  0.45823200  0.03544800  1
  H  763  1  0.61173400  0.49950300  0.02490900  1
  H  764  1  0.59816400  0.44460500  0.97848800  1
  H  766  1  0.41186800  0.49018400  0.03896500  1
  H  768  1  0.59655900  0.52719400  0.97311900  1
  C  1  1  0.93751800  0.54309400  0.64336800  1
  C  2  1  0.94429000  0.58788400  0.64073900  1
  C  3  1  0.89022700  0.54053300  0.65497100  1
  C  4  1  0.87682900  0.58419900  0.70116700  1
  C  7  1  0.88410300  0.62753900  0.69589200  1
  C  8  1  0.93163900  0.63274700  0.68584600  1
  C  13  1  0.95953800  0.63552300  0.72559400  1
  C  14  1  0.95399800  0.59206600  0.73085500  1
  C  17  1  0.90635300  0.58728600  0.74016600  1
  C  20  1  0.96553100  0.54822200  0.68411800  1
  C  23  1  0.94963700  0.50125200  0.59869700  1
  C  24  1  0.98136600  0.59648000  0.76941700  1
  C  25  1  0.83180800  0.58131200  0.71365100  1
  C  26  1  0.93825100  0.67610500  0.68366500  1
  C  31  1  0.93717100  0.10597000  0.46125600  1
  C  32  1  0.94410100  0.05851700  0.41654200  1
  C  33  1  0.88982400  0.11991300  0.46371100  1
  C  34  1  0.87635800  0.12223300  0.41994800  1
  C  37  1  0.88379200  0.07359200  0.37670800  1
  C  38  1  0.93139000  0.05855800  0.37159100  1
  C  43  1  0.95912100  0.09558500  0.36872200  1
  C  44  1  0.95341800  0.14433600  0.41208900  1
  C  47  1  0.90571900  0.15820600  0.41676900  1
  C  50  1  0.96501400  0.14164100  0.45602600  1
  C  53  1  0.94937100  0.10339500  0.50323700  1
  C  54  1  0.98064400  0.17853500  0.40760700  1
  C  55  1  0.83127200  0.13739400  0.42276100  1
  C  56  1  0.93814800  0.01297600  0.32831900  1
  C  61  1  0.93696200  0.36139200  0.89831600  1
  C  62  1  0.94398900  0.36408400  0.94573600  1
  C  63  1  0.88963500  0.34971600  0.88437700  1
  C  64  1  0.87638100  0.30355400  0.88200800  1
  C  67  1  0.88390800  0.30892000  0.93062400  1
  C  68  1  0.93149800  0.31901600  0.94565000  1
  C  73  1  0.95931500  0.27924500  0.90859000  1
  C  74  1  0.95352400  0.27389900  0.85987000  1
  C  77  1  0.90583000  0.26453400  0.84600100  1
  C  80  1  0.96490400  0.32060400  0.86261800  1
  C  83  1  0.94893800  0.40602200  0.90088800  1
  C  84  1  0.98087800  0.23535500  0.82566900  1
  C  85  1  0.83131600  0.29105800  0.86685800  1
  C  86  1  0.93838300  0.32130100  0.99120300  1
  C  91  1  0.57895600  0.08772200  0.64138800  1
  C  92  1  0.56643900  0.04054700  0.63701500  1
  C  93  1  0.62750900  0.09483900  0.65064100  1
  C  94  1  0.63974200  0.09376300  0.69533800  1
  C  97  1  0.62633900  0.04581800  0.68890900  1
  C  98  1  0.57769500  0.03729200  0.68058600  1
  C  103  1  0.55339200  0.07672500  0.72216800  1
  C  104  1  0.56506700  0.12503800  0.72921500  1
  C  107  1  0.61391600  0.13146600  0.73698300  1
  C  110  1  0.55491200  0.12616000  0.68425100  1
  C  113  1  0.56731900  0.08867100  0.59841400  1
  C  114  1  0.53888500  0.16085400  0.76772900  1
  C  115  1  0.68591200  0.10336200  0.70623000  1
  C  116  1  0.56539500  0.99238800  0.67700900  1
  C  121  1  0.57907600  0.36324300  0.44507700  1
  C  122  1  0.56671300  0.36773800  0.40230300  1
  C  123  1  0.62761600  0.35397400  0.44306400  1
  C  124  1  0.63991600  0.30934100  0.39727100  1
  C  127  1  0.62667600  0.31588500  0.35578400  1
  C  128  1  0.57804800  0.32422500  0.35546000  1
  C  133  1  0.55367300  0.28260300  0.35314100  1
  C  134  1  0.56519700  0.27543800  0.39436700  1
  C  137  1  0.61403300  0.26765600  0.39314800  1
  C  140  1  0.55496800  0.32034400  0.44047700  1
  C  143  1  0.56735600  0.40613000  0.48904800  1
  C  144  1  0.53896100  0.23688300  0.39150400  1
  C  145  1  0.68605300  0.29841900  0.39608700  1
  C  146  1  0.56588700  0.32790100  0.31415700  1
  C  151  1  0.57896200  0.55920900  0.91705900  1
  C  152  1  0.56641100  0.60200700  0.96423400  1
  C  153  1  0.62750600  0.56141100  0.90994000  1
  C  154  1  0.63967300  0.60719800  0.91101900  1
  C  157  1  0.62624700  0.64869600  0.95896400  1
  C  158  1  0.57760700  0.64884400  0.96748600  1
  C  163  1  0.55327800  0.65096500  0.92805100  1
  C  164  1  0.56497600  0.60971300  0.87974000  1
  C  167  1  0.61381900  0.61110900  0.87331800  1
  C  170  1  0.55488600  0.56361800  0.87862500  1
  C  173  1  0.56738800  0.51521300  0.91604900  1
  C  174  1  0.53878100  0.61239600  0.84392300  1
  C  175  1  0.68581200  0.60858300  0.90139900  1
  C  176  1  0.56528200  0.69016500  0.01238200  1
  C  181  1  0.06637500  0.46536900  0.35840400  1
  C  182  1  0.06119500  0.42177100  0.36350100  1
  C  183  1  0.11348100  0.46890400  0.34691500  1
  C  184  1  0.12807300  0.42448700  0.30201400  1
  C  187  1  0.12231900  0.38237300  0.30960900  1
  C  188  1  0.07504600  0.37621300  0.31971800  1
  C  193  1  0.04699100  0.37034400  0.27876100  1
  C  194  1  0.05101400  0.41246800  0.27112400  1
  C  197  1  0.09841300  0.41834600  0.26185400  1
  C  200  1  0.03831100  0.45711000  0.31656100  1
  C  203  1  0.05311400  0.50830900  0.40154300  1
  C  204  1  0.02350800  0.40538700  0.23165900  1
  C  205  1  0.17292000  0.42829600  0.28968100  1
  C  206  1  0.06980600  0.33393100  0.32407400  1
  C  211  1  0.06613900  0.89908900  0.53941100  1
  C  212  1  0.06154500  0.94791200  0.58295800  1
  C  213  1  0.11307100  0.88346600  0.53560700  1
  C  214  1  0.12767200  0.88291200  0.57999100  1
  C  217  1  0.12248200  0.93273800  0.62207600  1
  C  218  1  0.07539900  0.94963700  0.62849300  1
  C  223  1  0.04693100  0.91499100  0.63464600  1
  C  224  1  0.05039900  0.86513000  0.59259100  1
  C  227  1  0.09762400  0.84935600  0.58642900  1
  C  230  1  0.03769300  0.86596700  0.54797600  1
  C  233  1  0.05296300  0.89933400  0.49648000  1
  C  234  1  0.02256500  0.83315200  0.59995200  1
  C  235  1  0.17233700  0.86615900  0.57588700  1
  C  236  1  0.07065700  0.99639700  0.67072800  1
  C  241  1  0.06638800  0.64574700  0.10563400  1
  C  242  1  0.06157700  0.64053800  0.05685900  1
  C  243  1  0.11336700  0.65752400  0.12108200  1
  C  244  1  0.12789000  0.70248500  0.12165100  1
  C  247  1  0.12249800  0.69481100  0.07187400  1
  C  248  1  0.07536100  0.68438100  0.05515800  1
  C  253  1  0.04697800  0.72517600  0.08995400  1
  C  254  1  0.05064500  0.73291000  0.13978000  1
  C  257  1  0.09792400  0.74247600  0.15536500  1
  C  260  1  0.03801100  0.68742700  0.13892200  1
  C  263  1  0.05326500  0.60256300  0.10537800  1
  C  264  1  0.02289000  0.77226200  0.17189900  1
  C  265  1  0.17260200  0.71510600  0.13820000  1
  C  266  1  0.07046800  0.67994700  0.00845400  1
  C  271  1  0.42729900  0.91704000  0.35981800  1
  C  272  1  0.43743200  0.96647900  0.36864200  1
  C  273  1  0.37876200  0.90869700  0.35147100  1
  C  274  1  0.36420800  0.91376100  0.30956900  1
  C  277  1  0.37524300  0.96382600  0.32032800  1
  C  278  1  0.42376700  0.97384200  0.32806800  1
  C  283  1  0.44811400  0.93779500  0.28416800  1
  C  284  1  0.43876000  0.88751000  0.27273500  1
  C  287  1  0.38996400  0.87956400  0.26581800  1
  C  290  1  0.45123300  0.88216700  0.31483200  1
  C  293  1  0.44102000  0.91166900  0.39979500  1
  C  294  1  0.46494200  0.85489900  0.23217800  1
  C  295  1  0.31815500  0.90273700  0.29910700  1
  C  296  1  0.43388500  0.02086600  0.33572400  1
  C  301  1  0.42743100  0.64489800  0.55612200  1
  C  302  1  0.43754300  0.63599300  0.59669300  1
  C  303  1  0.37889400  0.65323100  0.55611500  1
  C  304  1  0.36431500  0.69507400  0.60310700  1
  C  307  1  0.37532800  0.68424000  0.64236900  1
  C  308  1  0.42385200  0.67650500  0.64465400  1
  C  313  1  0.44819000  0.72044200  0.65260100  1
  C  314  1  0.43885100  0.73195800  0.61380400  1
  C  317  1  0.39005600  0.73886800  0.61275800  1
  C  320  1  0.45135300  0.68992000  0.56633700  1
  C  323  1  0.44115600  0.60498000  0.51073300  1
  C  324  1  0.46503000  0.77254000  0.62182400  1
  C  325  1  0.31826000  0.70548700  0.60251900  1
  C  326  1  0.43397000  0.66878000  0.68397700  1
  C  331  1  0.42700200  0.44862400  0.08771200  1
  C  332  1  0.43712000  0.40809200  0.03821900  1
  C  333  1  0.37849700  0.44845400  0.09611800  1
  C  334  1  0.36412300  0.40141500  0.09100400  1
  C  337  1  0.37514800  0.36219300  0.04089100  1
  C  338  1  0.42364700  0.36008400  0.03079800  1
  C  343  1  0.44815500  0.35222800  0.06675500  1
  C  344  1  0.43881300  0.39099100  0.11708100  1
  C  347  1  0.39004300  0.39186300  0.12510300  1
  C  350  1  0.45111000  0.43850100  0.12248500  1
  C  353  1  0.44046800  0.49405500  0.09314800  1
  C  354  1  0.46514700  0.38306000  0.14960700  1
  C  355  1  0.31808900  0.40183600  0.10207500  1
  C  356  1  0.43378100  0.32079600  0.98373200  1
  C  361  1  0.73179500  0.58882400  0.83728400  1
  C  362  1  0.72649300  0.62780200  0.83228000  1
  C  363  1  0.75338500  0.63648500  0.80399700  1
  C  364  1  0.78579100  0.60443400  0.77899100  1
  C  365  1  0.79100700  0.56550800  0.78420300  1
  C  367  1  0.76382900  0.55727200  0.81212200  1
  C  370  1  0.74638400  0.67773100  0.79950500  1
  C  378  1  0.73171100  0.25395400  0.41579200  1
  C  379  1  0.72591500  0.20993600  0.37700100  1
  C  380  1  0.75263400  0.17278700  0.36813000  1
  C  381  1  0.78536300  0.17969400  0.39980500  1
  C  382  1  0.79111300  0.22388900  0.43849500  1
  C  384  1  0.76410700  0.26023300  0.44693200  1
  C  387  1  0.74515300  0.12702600  0.32708500  1
  C  395  1  0.73173900  0.16741500  0.75054100  1
  C  396  1  0.72600400  0.17273800  0.79461000  1
  C  397  1  0.75275900  0.20104900  0.83170700  1
  C  398  1  0.78549400  0.22573700  0.82470000  1
  C  399  1  0.79119500  0.22015000  0.78046600  1
  C  401  1  0.76413200  0.19223400  0.74418600  1
  C  404  1  0.74531200  0.20589000  0.87752300  1
  C  412  1  0.27358500  0.42076900  0.16677500  1
  C  413  1  0.27927900  0.38203500  0.17207700  1
  C  414  1  0.25239100  0.37324600  0.20029600  1
  C  415  1  0.21950600  0.40486400  0.22476400  1
  C  416  1  0.21381800  0.44341500  0.21899400  1
  C  418  1  0.24108100  0.45187100  0.19129900  1
  C  421  1  0.25992700  0.33236800  0.20528800  1
  C  429  1  0.27346200  0.75099000  0.58349800  1
  C  430  1  0.27878100  0.79498900  0.62240300  1
  C  431  1  0.25167200  0.83182400  0.63115600  1
  C  432  1  0.21895400  0.82454700  0.59932100  1
  C  433  1  0.21365400  0.78027700  0.56059400  1
  C  435  1  0.24111900  0.74429500  0.55219300  1
  C  438  1  0.25885100  0.87766400  0.67220300  1
  C  446  1  0.27343100  0.83809800  0.25346200  1
  C  447  1  0.27883500  0.83298700  0.20946800  1
  C  448  1  0.25184500  0.80479900  0.17255600  1
  C  449  1  0.21915600  0.78015900  0.17974800  1
  C  450  1  0.21376400  0.78571600  0.22401700  1
  C  452  1  0.24113200  0.81338200  0.26007100  1
  C  455  1  0.25910700  0.80000300  0.12672400  1
  C  463  1  0.03514200  0.64367100  0.93277000  1
  C  464  1  0.02379500  0.68273500  0.92979600  1
  C  465  1  0.00503500  0.67918300  0.88999100  1
  C  466  1  0.99662300  0.63494900  0.85173500  1
  C  467  1  0.00691100  0.59592300  0.85517800  1
  C  469  1  0.02612200  0.60020300  0.89458000  1
  C  472  1  0.99428300  0.72182300  0.88921200  1
  C  480  1  0.03418100  0.29462100  0.36028800  1
  C  481  1  0.02304700  0.25247900  0.32123700  1
  C  482  1  0.00433500  0.21621700  0.32481200  1
  C  483  1  0.99571500  0.22231800  0.36905500  1
  C  484  1  0.00572500  0.26490800  0.40805600  1
  C  486  1  0.02492000  0.30002600  0.40376000  1
  C  489  1  0.99386400  0.17265500  0.28219900  1
  C  497  1  0.03545700  0.07217300  0.70998900  1
  C  498  1  0.02377300  0.07509200  0.75191500  1
  C  499  1  0.00478900  0.11483700  0.78802600  1
  C  500  1  0.99648100  0.15309700  0.78201700  1
  C  501  1  0.00713400  0.14970800  0.73965200  1
  C  503  1  0.02652500  0.11035400  0.70466500  1
  C  506  1  0.99367500  0.11553500  0.83132400  1
  C  514  1  0.47704600  0.29007900  0.91510500  1
  C  515  1  0.50339200  0.26007100  0.92186200  1
  C  516  1  0.52967200  0.22772800  0.88660900  1
  C  517  1  0.52930600  0.22546000  0.84333500  1
  C  518  1  0.50373900  0.25602500  0.83675100  1
  C  520  1  0.47827600  0.28825200  0.87236500  1
  C  523  1  0.55658300  0.19651200  0.89501300  1
  C  531  1  0.47706500  0.08955300  0.37348200  1
  C  532  1  0.50337600  0.08276300  0.33668000  1
  C  533  1  0.52967200  0.11798600  0.33954000  1
  C  534  1  0.52931600  0.16128400  0.38050500  1
  C  535  1  0.50377100  0.16791900  0.41768800  1
  C  537  1  0.47832900  0.13231900  0.41436900  1
  C  540  1  0.55658900  0.10951800  0.29990300  1
  C  548  1  0.47697700  0.63079900  0.71481000  1
  C  549  1  0.50327200  0.66755000  0.74494800  1
  C  550  1  0.52954000  0.66453900  0.77724500  1
  C  551  1  0.52918000  0.62346400  0.77937500  1
  C  552  1  0.50363200  0.58634400  0.74872600  1
  C  554  1  0.47821900  0.58981800  0.71651500  1
  C  557  1  0.55644700  0.70412900  0.80854000  1
  C  565  1  0.97350000  0.35702700  0.06713900  1
  C  566  1  0.98456600  0.31803600  0.07037700  1
  C  567  1  0.00256900  0.32176600  0.11060800  1
  C  568  1  0.01026500  0.36606400  0.14907200  1
  C  569  1  0.00032800  0.40498300  0.14530600  1
  C  571  1  0.98194600  0.40055300  0.10550600  1
  C  574  1  0.01321300  0.27929000  0.11172900  1
  C  582  1  0.97294800  0.71664100  0.64805300  1
  C  583  1  0.98396800  0.75884800  0.68709600  1
  C  584  1  0.00174500  0.79549600  0.68345800  1
  C  585  1  0.00931000  0.78980800  0.63919800  1
  C  586  1  0.99941400  0.74715100  0.60022000  1
  C  588  1  0.98120800  0.71165300  0.60456500  1
  C  591  1  0.01234600  0.83906300  0.72597900  1
  C  599  1  0.97299500  0.93690400  0.28800100  1
  C  600  1  0.98398500  0.93359700  0.24572800  1
  C  601  1  0.00182800  0.89328700  0.20918100  1
  C  602  1  0.00951500  0.85484400  0.21505200  1
  C  603  1  0.99966500  0.85867700  0.25778600  1
  C  605  1  0.98137300  0.89853200  0.29317800  1
  C  608  1  0.01236800  0.89208100  0.16552200  1
  C  616  1  0.52413900  0.72442000  0.08286600  1
  C  617  1  0.49704200  0.75366800  0.07579000  1
  C  618  1  0.47178400  0.78704600  0.11149900  1
  C  619  1  0.47407900  0.79128500  0.15559300  1
  C  620  1  0.50045400  0.76147200  0.16250400  1
  C  622  1  0.52487700  0.72824900  0.12651800  1
  C  625  1  0.44381400  0.81721800  0.10265400  1
  C  633  1  0.52422400  0.92191800  0.64080200  1
  C  634  1  0.49713400  0.92898600  0.67713100  1
  C  635  1  0.47187800  0.89327300  0.67479300  1
  C  636  1  0.47417700  0.84917700  0.63494100  1
  C  637  1  0.50055800  0.84227200  0.59821900  1
  C  639  1  0.52494600  0.87827200  0.60096800  1
  C  642  1  0.44390200  0.90211500  0.71380500  1
  C  650  1  0.52472800  0.36416400  0.27994700  1
  C  651  1  0.49762500  0.32781600  0.25075400  1
  C  652  1  0.47230100  0.33012200  0.21740900  1
  C  653  1  0.47455500  0.36994700  0.21311200  1
  C  654  1  0.50097100  0.40667200  0.24285100  1
  C  656  1  0.52545700  0.40394600  0.27605400  1
  C  659  1  0.44429000  0.29110400  0.18732700  1
  C  667  1  0.02983300  0.51092500  0.47077800  1
  C  668  1  0.98875100  0.49334600  0.45513600  1
  C  669  1  0.95900600  0.48727500  0.48295400  1
  C  670  1  0.97037900  0.49885000  0.52840000  1
  C  671  1  0.01165300  0.51612100  0.54378000  1
  C  673  1  0.04070100  0.52168000  0.51560400  1
  C  676  1  0.91681200  0.46777600  0.46355800  1
  C  684  1  0.02957400  0.96600100  0.49385100  1
  C  685  1  0.98855500  0.96805200  0.51160500  1
  C  686  1  0.95879900  0.00190800  0.51761600  1
  C  687  1  0.97010700  0.03562300  0.50579400  1
  C  688  1  0.01135300  0.03366700  0.48843600  1
  C  690  1  0.04040800  0.99995500  0.48292200  1
  C  693  1  0.91666500  0.00213900  0.53729400  1
  C  701  1  0.02967500  0.53348600  0.03868700  1
  C  702  1  0.98854500  0.54921000  0.03706900  1
  C  703  1  0.95869700  0.52154600  0.00322800  1
  C  704  1  0.97004900  0.47620900  0.96905600  1
  C  705  1  0.01139700  0.46079500  0.97053800  1
  C  707  1  0.04051800  0.48879600  0.00427800  1
  C  710  1  0.91643500  0.54099000  0.00349200  1
  C  718  1  0.47184000  0.97033300  0.47007300  1
  C  719  1  0.51281300  0.96871700  0.45237300  1
  C  720  1  0.54637300  0.99632600  0.48010200  1
  C  721  1  0.53900200  0.02744600  0.52745400  1
  C  722  1  0.49782400  0.02937200  0.54490900  1
  C  724  1  0.46501100  0.00175500  0.51685600  1
  C  727  1  0.58833300  0.99323900  0.45888800  1
  C  735  1  0.47200800  0.53459800  0.49904200  1
  C  736  1  0.51299300  0.55224700  0.51510700  1
  C  737  1  0.54651500  0.52447100  0.51497400  1
  C  738  1  0.53905900  0.47714800  0.49879600  1
  C  739  1  0.49787500  0.45973700  0.48326700  1
  C  741  1  0.46509900  0.48783100  0.48370200  1
  C  744  1  0.58851000  0.54561500  0.53303300  1
  C  752  1  0.47179000  0.50563800  0.03444400  1
  C  753  1  0.51278200  0.48981000  0.03637000  1
  C  754  1  0.54639500  0.48987200  0.00878500  1
  C  755  1  0.53903600  0.50573100  0.97735900  1
  C  756  1  0.49781100  0.52099400  0.97514200  1
  C  758  1  0.46494200  0.52062400  0.00273100  1
  C  761  1  0.58840200  0.47205400  0.01222700  1
  N  374  1  0.70295900  0.57771400  0.86022800  1
  N  376  1  0.81501800  0.61337100  0.75453900  1
  N  391  1  0.70314200  0.28832000  0.42712200  1
  N  393  1  0.81438200  0.14604800  0.39061100  1
  N  408  1  0.70307300  0.14444500  0.71626900  1
  N  410  1  0.81451800  0.25026000  0.85832800  1
  N  425  1  0.30264900  0.43220500  0.14437000  1
  N  427  1  0.19053900  0.39587700  0.24946700  1
  N  442  1  0.30274100  0.71735800  0.57213700  1
  N  444  1  0.18978300  0.85798100  0.60812100  1
  N  459  1  0.30263700  0.86045600  0.28714300  1
  N  461  1  0.19008800  0.75543600  0.14618700  1
  N  476  1  0.04867500  0.64575000  0.97265000  1
  N  478  1  0.97506700  0.62969100  0.81393800  1
  N  493  1  0.04776000  0.33237900  0.35816100  1
  N  495  1  0.97427000  0.18973000  0.37432500  1
  N  510  1  0.04913200  0.03231000  0.67225500  1
  N  512  1  0.97470200  0.19082200  0.81437700  1
  N  527  1  0.45526500  0.32459500  0.95068000  1
  N  529  1  0.55427200  0.19526000  0.80814100  1
  N  544  1  0.45537300  0.05398100  0.37252200  1
  N  546  1  0.55430600  0.19644700  0.38546700  1
  N  561  1  0.45535700  0.63189500  0.68022600  1
  N  563  1  0.55416800  0.61833500  0.80947600  1
  N  578  1  0.96032600  0.35507600  0.02721600  1
  N  580  1  0.03081300  0.37170400  0.18755900  1
  N  595  1  0.96002200  0.67854100  0.64990600  1
  N  597  1  0.02982600  0.82271500  0.63362600  1
  N  612  1  0.96002700  0.97690200  0.32602700  1
  N  614  1  0.03008500  0.81635700  0.18223200  1
  N  629  1  0.54481000  0.68871800  0.04727400  1
  N  631  1  0.44949900  0.82181800  0.19106200  1
  N  646  1  0.54486900  0.95752000  0.64069500  1
  N  648  1  0.44959600  0.81370900  0.63000900  1
  N  663  1  0.54547200  0.36427400  0.31561600  1
  N  665  1  0.44986100  0.37486800  0.18263900  1
  N  680  1  0.06114200  0.51294900  0.44330100  1
  N  682  1  0.94021500  0.49854300  0.55797300  1
  N  697  1  0.06080700  0.93643000  0.49179300  1
  N  699  1  0.93989000  0.06543500  0.50600200  1
  N  714  1  0.06103700  0.56074500  0.06821900  1
  N  716  1  0.93992200  0.44663700  0.93919200  1
  N  731  1  0.43737500  0.94726000  0.44340800  1
  N  733  1  0.57226200  0.05078500  0.55637000  1
  N  748  1  0.43762100  0.56137700  0.50273300  1
  N  750  1  0.57224700  0.44820500  0.49320200  1
  N  765  1  0.43738500  0.50193000  0.05743000  1
  N  767  1  0.57236000  0.51123300  0.95406200  1
  O  27  1  0.01628400  0.56988000  0.75902100  1
  O  28  1  0.98111500  0.47371500  0.59809500  1
  O  29  1  0.92238000  0.71516600  0.71898500  1
  O  30  1  0.80937200  0.54250100  0.68755300  1
  O  57  1  0.01547100  0.19502800  0.43431500  1
  O  58  1  0.98082400  0.13046600  0.53067200  1
  O  59  1  0.92222800  0.00903800  0.28919300  1
  O  60  1  0.80887400  0.15017700  0.46161000  1
  O  87  1  0.01594400  0.24585400  0.80976600  1
  O  88  1  0.98037700  0.40644800  0.87383900  1
  O  89  1  0.92261400  0.28604900  0.99512900  1
  O  90  1  0.80867400  0.31712000  0.85425600  1
  O  117  1  0.49644000  0.15684900  0.76206800  1
  O  118  1  0.53965100  0.12057600  0.60097600  1
  O  119  1  0.57389600  0.98757500  0.71382600  1
  O  120  1  0.70870900  0.07560200  0.71647600  1
  O  147  1  0.49651900  0.24255900  0.39308300  1
  O  148  1  0.53956600  0.40352700  0.51826300  1
  O  149  1  0.57446900  0.29114100  0.27251200  1
  O  150  1  0.70903700  0.28830200  0.35822900  1
  O  177  1  0.49633900  0.61065100  0.84789000  1
  O  178  1  0.53981800  0.48584300  0.88405000  1
  O  179  1  0.57379200  0.73180000  0.01720600  1
  O  180  1  0.70858600  0.64663400  0.92908900  1
  O  207  1  0.98775600  0.43055600  0.24072000  1
  O  208  1  0.02143300  0.53435600  0.39968300  1
  O  209  1  0.08661100  0.29463600  0.28997200  1
  O  210  1  0.19460700  0.46774400  0.31547200  1
  O  237  1  0.98679700  0.81713400  0.57479200  1
  O  238  1  0.02112400  0.87156700  0.47059200  1
  O  239  1  0.08716600  0.00136600  0.71005200  1
  O  240  1  0.19384400  0.85223000  0.53628600  1
  O  267  1  0.98721500  0.76311700  0.18805200  1
  O  268  1  0.02163500  0.60430400  0.13329500  1
  O  269  1  0.08715300  0.71419500  0.00342300  1
  O  270  1  0.19426900  0.68937900  0.15195000  1
  O  297  1  0.50739000  0.86000600  0.23705900  1
  O  298  1  0.46939400  0.87872900  0.39299000  1
  O  299  1  0.42361900  0.02917800  0.30147200  1
  O  300  1  0.29380200  0.93065600  0.29046600  1
  O  327  1  0.50747800  0.76767400  0.62210700  1
  O  328  1  0.46960500  0.61185500  0.48471300  1
  O  329  1  0.42363800  0.70294400  0.72656000  1
  O  330  1  0.29374200  0.71371300  0.63883800  1
  O  357  1  0.50757900  0.38290300  0.14438600  1
  O  358  1  0.46885800  0.52022400  0.12606400  1
  O  359  1  0.42364100  0.27817900  0.97534700  1
  O  360  1  0.29378000  0.36525800  0.07412900  1
