# generated using pymatgen
data_CoH18C22(NO)4
_symmetry_space_group_name_H-M   'P 1'
_cell_length_a   11.76272000
_cell_length_b   11.93718842
_cell_length_c   13.61774000
_cell_angle_alpha   68.82486717
_cell_angle_beta   89.93641000
_cell_angle_gamma   60.53623188
_symmetry_Int_Tables_number   1
_chemical_formula_structural   CoH18C22(NO)4
_chemical_formula_sum   'Co2 H36 C44 N8 O8'
_cell_volume   1515.25509313
_cell_formula_units_Z   2
loop_
 _symmetry_equiv_pos_site_id
 _symmetry_equiv_pos_as_xyz
  1  'x, y, z'
loop_
 _atom_site_type_symbol
 _atom_site_label
 _atom_site_symmetry_multiplicity
 _atom_site_fract_x
 _atom_site_fract_y
 _atom_site_fract_z
 _atom_site_occupancy
  Co  Co0  1  0.97285000  0.99946000  0.74991000  1
  Co  Co1  1  0.02714000  0.00054000  0.25009000  1
  H  H2  1  0.53800000  0.28654000  0.65600000  1
  H  H3  1  0.30392000  0.48345000  0.55125000  1
  H  H4  1  0.19371000  0.83482000  0.97139000  1
  H  H5  1  0.93721000  0.26968000  0.77560000  1
  H  H6  1  0.10207000  0.23798000  0.94311000  1
  H  H7  1  0.24970000  0.99697000  0.13465000  1
  H  H8  1  0.32378000  0.83847000  0.11561000  1
  H  H9  1  0.32785000  0.15992000  0.06966000  1
  H  H10  1  0.50208000  0.20696000  0.00054000  1
  H  H11  1  0.82251000  0.71241000  0.84531000  1
  H  H12  1  0.78811000  0.51355000  0.95248000  1
  H  H13  1  0.02978000  0.16435000  0.52998000  1
  H  H14  1  0.20708000  0.72852000  0.72308000  1
  H  H15  1  0.33941000  0.76241000  0.55494000  1
  H  H16  1  0.24569000  0.00616000  0.36409000  1
  H  H17  1  0.16246000  0.16301000  0.38557000  1
  H  H18  1  0.48652000  0.84102000  0.42973000  1
  H  H19  1  0.70798000  0.79246000  0.49953000  1
  H  H20  1  0.46200000  0.71346000  0.34400000  1
  H  H21  1  0.69609000  0.51654000  0.44875000  1
  H  H22  1  0.80629000  0.16518000  0.02860000  1
  H  H23  1  0.06279000  0.73032000  0.22439000  1
  H  H24  1  0.89793000  0.76202000  0.05688000  1
  H  H25  1  0.75030000  0.00303000  0.86535000  1
  H  H26  1  0.67622000  0.16153000  0.88439000  1
  H  H27  1  0.67215000  0.84008000  0.93034000  1
  H  H28  1  0.49792000  0.79304000  0.99945000  1
  H  H29  1  0.17749000  0.28759000  0.15468000  1
  H  H30  1  0.21189000  0.48645000  0.04752000  1
  H  H31  1  0.97022000  0.83565000  0.47002000  1
  H  H32  1  0.79292000  0.27148000  0.27692000  1
  H  H33  1  0.66059000  0.23759000  0.44505000  1
  H  H34  1  0.75431000  0.99384000  0.63591000  1
  H  H35  1  0.83754000  0.83699000  0.61443000  1
  H  H36  1  0.51348000  0.15898000  0.57027000  1
  H  H37  1  0.29202000  0.20754000  0.50047000  1
  C  C38  1  0.77125000  0.27239000  0.61625000  1
  C  C39  1  0.63059000  0.39013000  0.55789000  1
  C  C40  1  0.52030000  0.38024000  0.58735000  1
  C  C41  1  0.39076000  0.48897000  0.52980000  1
  C  C42  1  0.14609000  0.94841000  0.94122000  1
  C  C43  1  0.01384000  0.17545000  0.84241000  1
  C  C44  1  0.09538000  0.16096000  0.92380000  1
  C  C45  1  0.28974000  0.95089000  0.07684000  1
  C  C46  1  0.40085000  0.97346000  0.03946000  1
  C  C47  1  0.40355000  0.08960000  0.03927000  1
  C  C48  1  0.50154000  0.11618000  0.00014000  1
  C  C49  1  0.04025000  0.72993000  0.88133000  1
  C  C50  1  0.01924000  0.61089000  0.94085000  1
  C  C51  1  0.89942000  0.61917000  0.91342000  1
  C  C52  1  0.88008000  0.50947000  0.97220000  1
  C  C53  1  0.09537000  0.05076000  0.55944000  1
  C  C54  1  0.18965000  0.82326000  0.65683000  1
  C  C55  1  0.25629000  0.83883000  0.57510000  1
  C  C56  1  0.24040000  0.05045000  0.42301000  1
  C  C57  1  0.37422000  0.02735000  0.46020000  1
  C  C58  1  0.49249000  0.91097000  0.46029000  1
  C  C59  1  0.61713000  0.88348000  0.49997000  1
  C  C60  1  0.22875000  0.72761000  0.38374000  1
  C  C61  1  0.36941000  0.60987000  0.44210000  1
  C  C62  1  0.47970000  0.61976000  0.41264000  1
  C  C63  1  0.60924000  0.51103000  0.47020000  1
  C  C64  1  0.85391000  0.05159000  0.05877000  1
  C  C65  1  0.98616000  0.82455000  0.15758000  1
  C  C66  1  0.90462000  0.83904000  0.07620000  1
  C  C67  1  0.71026000  0.04911000  0.92316000  1
  C  C68  1  0.59915000  0.02654000  0.96054000  1
  C  C69  1  0.59645000  0.91040000  0.96072000  1
  C  C70  1  0.49846000  0.88382000  0.99986000  1
  C  C71  1  0.95975000  0.27007000  0.11867000  1
  C  C72  1  0.98076000  0.38911000  0.05915000  1
  C  C73  1  0.10058000  0.38083000  0.08658000  1
  C  C74  1  0.11992000  0.49053000  0.02779000  1
  C  C75  1  0.90463000  0.94924000  0.44055000  1
  C  C76  1  0.81035000  0.17674000  0.34317000  1
  C  C77  1  0.74371000  0.16117000  0.42490000  1
  C  C78  1  0.75960000  0.94955000  0.57699000  1
  C  C79  1  0.62578000  0.97265000  0.53980000  1
  C  C80  1  0.50751000  0.08903000  0.53971000  1
  C  C81  1  0.38287000  0.11652000  0.50003000  1
  N  N82  1  0.04634000  0.04203000  0.85385000  1
  N  N83  1  0.17815000  0.01703000  0.98565000  1
  N  N84  1  0.08934000  0.95632000  0.64647000  1
  N  N85  1  0.19539000  0.98301000  0.51415000  1
  N  N86  1  0.95366000  0.95797000  0.14614000  1
  N  N87  1  0.82185000  0.98297000  0.01435000  1
  N  N88  1  0.91066000  0.04368000  0.35352000  1
  N  N89  1  0.80461000  0.01699000  0.48584000  1
  O  O90  1  0.78495000  0.15286000  0.68121000  1
  O  O91  1  0.86648000  0.29132000  0.60040000  1
  O  O92  1  0.93383000  0.84857000  0.81670000  1
  O  O93  1  0.15347000  0.71354000  0.89577000  1
  O  O94  1  0.21505000  0.84714000  0.31879000  1
  O  O95  1  0.13353000  0.70868000  0.39960000  1
  O  O96  1  0.06617000  0.15143000  0.18329000  1
  O  O97  1  0.84653000  0.28646000  0.10423000  1
