# generated using pymatgen
data_H11C18(N2O)2
_symmetry_space_group_name_H-M   'P 1'
_cell_length_a   9.95646667
_cell_length_b   31.21320000
_cell_length_c   31.21320000
_cell_angle_alpha   120.00000000
_cell_angle_beta   90.00000000
_cell_angle_gamma   90.00000000
_symmetry_Int_Tables_number   1
_chemical_formula_structural   H11C18(N2O)2
_chemical_formula_sum   'H66 C108 N24 O12'
_cell_volume   8400.64178276
_cell_formula_units_Z   6
loop_
 _symmetry_equiv_pos_site_id
 _symmetry_equiv_pos_as_xyz
  1  'x, y, z'
loop_
 _atom_site_type_symbol
 _atom_site_label
 _atom_site_symmetry_multiplicity
 _atom_site_fract_x
 _atom_site_fract_y
 _atom_site_fract_z
 _atom_site_occupancy
  C  1  1  0.01132300  0.96966000  0.48649200  1
  C  13  1  0.04541300  0.94167900  0.51017600  1
  C  14  1  0.96647100  0.94240300  0.43662800  1
  C  22  1  0.01143400  0.02380700  0.51128800  1
  C  23  1  0.96703200  0.05110600  0.56120500  1
  C  24  1  0.96677300  0.10319000  0.58835100  1
  C  25  1  0.98424900  0.13019700  0.56317100  1
  C  26  1  0.01602600  0.10356300  0.51162500  1
  C  27  1  0.04555200  0.05175600  0.48756700  1
  C  30  1  0.01574800  0.88989200  0.48612700  1
  C  31  1  0.98364600  0.86329300  0.43460900  1
  C  32  1  0.96614000  0.89031600  0.40944100  1
  C  41  1  0.01120300  0.48206200  0.97187700  1
  C  42  1  0.96636200  0.50466800  0.94461900  1
  C  43  1  0.96628500  0.47978800  0.89253300  1
  C  44  1  0.98399800  0.42760500  0.86550300  1
  C  45  1  0.01593000  0.40267300  0.89210700  1
  C  46  1  0.04541100  0.43041100  0.94390900  1
  C  49  1  0.01115300  0.51140800  0.02602000  1
  C  50  1  0.04547200  0.56305400  0.05397500  1
  C  51  1  0.01598600  0.59080400  0.10578200  1
  C  52  1  0.98402700  0.56589200  0.13239900  1
  C  53  1  0.96639900  0.51370400  0.10537800  1
  C  54  1  0.96645100  0.48880300  0.05329400  1
  C  67  1  0.01132400  0.48431100  0.51358700  1
  C  68  1  0.96655700  0.43443600  0.49099300  1
  C  69  1  0.96641200  0.40726500  0.51590900  1
  C  70  1  0.98403700  0.43243800  0.56809400  1
  C  71  1  0.01593500  0.48397200  0.59300300  1
  C  72  1  0.04555300  0.50800400  0.56524100  1
  C  75  1  0.01130300  0.50909700  0.48422500  1
  C  76  1  0.04543200  0.48538100  0.43255600  1
  C  77  1  0.01593600  0.50944900  0.40481400  1
  C  78  1  0.98420800  0.56100000  0.42973300  1
  C  79  1  0.96670400  0.58617100  0.48192100  1
  C  80  1  0.96693400  0.55901800  0.50685200  1
  C  93  1  0.01101300  0.64377400  0.13209800  1
  C  94  1  0.12515800  0.67176900  0.15756600  1
  C  96  1  0.98886900  0.74060600  0.21346300  1
  C  97  1  0.87038200  0.71522900  0.18810100  1
  C  98  1  0.88395100  0.66707500  0.14666500  1
  C  100  1  0.97935700  0.78558700  0.25888400  1
  C  101  1  0.08990600  0.84642300  0.33228000  1
  C  102  1  0.96630000  0.86558900  0.35671000  1
  C  103  1  0.84712100  0.84559500  0.32926200  1
  C  106  1  0.85167100  0.80536700  0.27998900  1
  C  107  1  0.73408200  0.78153800  0.25304100  1
  C  108  1  0.74331000  0.73650600  0.20766500  1
  C  115  1  0.01066600  0.48279800  0.35184900  1
  C  116  1  0.12494900  0.48016900  0.32386100  1
  C  118  1  0.98874900  0.46737200  0.25503300  1
  C  119  1  0.87020700  0.46738200  0.28038000  1
  C  120  1  0.88366200  0.47407800  0.32852800  1
  C  122  1  0.97941800  0.46783700  0.21006200  1
  C  123  1  0.09022500  0.48042900  0.14929100  1
  C  124  1  0.96664200  0.48572700  0.13014300  1
  C  125  1  0.84731100  0.47819900  0.15000600  1
  C  128  1  0.85178200  0.46920300  0.19026700  1
  C  129  1  0.73412000  0.46609800  0.21406800  1
  C  130  1  0.74319900  0.46571700  0.25908600  1
  C  137  1  0.01054000  0.86358000  0.51277200  1
  C  138  1  0.12480800  0.83812400  0.51524700  1
  C  140  1  0.98897800  0.78219500  0.52828600  1
  C  141  1  0.87035300  0.80752000  0.52830300  1
  C  142  1  0.88368300  0.84898800  0.52161600  1
  C  144  1  0.97969400  0.73676700  0.52783900  1
  C  145  1  0.09064900  0.66345600  0.51531600  1
  C  146  1  0.96719400  0.63889600  0.50989300  1
  C  147  1  0.84784400  0.66632500  0.51749000  1
  C  150  1  0.85214300  0.71559100  0.52651000  1
  C  151  1  0.73443000  0.74247200  0.52962600  1
  C  152  1  0.74340100  0.78785800  0.52998300  1
  C  159  1  0.01102400  0.34970000  0.86576600  1
  C  160  1  0.12523900  0.32174000  0.84035100  1
  C  162  1  0.98923200  0.25284100  0.78437400  1
  C  163  1  0.87061300  0.27819800  0.80964200  1
  C  164  1  0.88403300  0.32638800  0.85104400  1
  C  166  1  0.97994100  0.20785800  0.73894700  1
  C  167  1  0.09083100  0.14712900  0.66561100  1
  C  168  1  0.96739700  0.12798000  0.64108600  1
  C  169  1  0.84798400  0.14776800  0.66847700  1
  C  172  1  0.85236300  0.18806800  0.71772200  1
  C  173  1  0.73464100  0.21187600  0.74458500  1
  C  174  1  0.74363300  0.25690100  0.78997700  1
  C  181  1  0.01108400  0.51062500  0.64596900  1
  C  182  1  0.12514800  0.51318700  0.67401700  1
  C  184  1  0.98886800  0.52606500  0.74282900  1
  C  185  1  0.87038800  0.52599800  0.71742500  1
  C  186  1  0.88401100  0.51929100  0.66927600  1
  C  188  1  0.97935700  0.52561900  0.78780500  1
  C  189  1  0.08994700  0.51312800  0.84867900  1
  C  190  1  0.96635000  0.50779500  0.86780800  1
  C  191  1  0.84715300  0.51518600  0.84778100  1
  C  194  1  0.85167200  0.52423500  0.80755400  1
  C  195  1  0.73408000  0.52730000  0.78369700  1
  C  196  1  0.74330900  0.52765300  0.73867000  1
  C  203  1  0.01063200  0.12985400  0.48496400  1
  C  204  1  0.12489800  0.15523200  0.48233100  1
  C  206  1  0.98877700  0.21126700  0.46952300  1
  C  207  1  0.87023300  0.18592800  0.46951900  1
  C  208  1  0.88369200  0.14447700  0.47621600  1
  C  210  1  0.97945600  0.25670900  0.46999700  1
  C  211  1  0.09026700  0.33008100  0.48262000  1
  C  212  1  0.96668300  0.35452300  0.48790900  1
  C  213  1  0.84735200  0.32713000  0.48036700  1
  C  216  1  0.85182100  0.27786600  0.47135500  1
  C  217  1  0.73415900  0.25095600  0.46823400  1
  C  218  1  0.74322900  0.20555200  0.46784300  1
  H  2  1  0.15612500  0.99498700  0.56685100  1
  H  7  1  0.93995400  0.96057700  0.41822600  1
  H  15  1  0.14227500  0.94406500  0.56941500  1
  H  28  1  0.94038300  0.03295500  0.57961900  1
  H  35  1  0.15630500  0.99846500  0.43106500  1
  H  36  1  0.14273600  0.04946700  0.42855500  1
  H  37  1  0.98836700  0.79259100  0.42424100  1
  H  38  1  0.94562000  0.79424300  0.37461900  1
  H  39  1  0.98916900  0.20088600  0.57350400  1
  H  40  1  0.94658000  0.19928100  0.62316500  1
  H  47  1  0.93977400  0.54123900  0.96279600  1
  H  56  1  0.93989400  0.45223000  0.03512900  1
  H  59  1  0.15579200  0.42703200  0.99731600  1
  H  60  1  0.14219400  0.37358400  0.94633200  1
  H  61  1  0.14259500  0.61979900  0.05163000  1
  H  62  1  0.15601200  0.56635500  0.00058600  1
  H  63  1  0.98905000  0.62622700  0.20309600  1
  H  64  1  0.94624400  0.57496800  0.20147200  1
  H  65  1  0.98931900  0.36729700  0.79478800  1
  H  66  1  0.94644500  0.41855100  0.79642200  1
  H  73  1  0.93999600  0.41602300  0.45442300  1
  H  82  1  0.94033700  0.57742500  0.54342300  1
  H  85  1  0.15647500  0.56446600  0.56843900  1
  H  86  1  0.14282500  0.56714600  0.62199900  1
  H  87  1  0.14270100  0.42635700  0.37582600  1
  H  88  1  0.15628600  0.42895600  0.42937600  1
  H  89  1  0.98915900  0.57135100  0.36939200  1
  H  90  1  0.94662000  0.62101200  0.42067000  1
  H  91  1  0.98908000  0.42207200  0.62842600  1
  H  92  1  0.94630800  0.37243600  0.57716200  1
  H  99  1  0.79958500  0.64636100  0.13067900  1
  H  104  1  0.21827000  0.65584800  0.15046800  1
  H  109  1  0.75673900  0.85696300  0.34712600  1
  H  110  1  0.17895900  0.85759300  0.35105600  1
  H  112  1  0.58591600  0.82297700  0.26216600  1
  H  114  1  0.60012600  0.69292800  0.19882100  1
  H  121  1  0.79927300  0.47885300  0.34924300  1
  H  126  1  0.21802800  0.48912800  0.33979300  1
  H  131  1  0.75705000  0.48483500  0.13867400  1
  H  132  1  0.17922000  0.48800000  0.13805800  1
  H  134  1  0.58600600  0.43379400  0.17259300  1
  H  136  1  0.59994600  0.50044700  0.30262800  1
  H  143  1  0.79914400  0.86482400  0.51680200  1
  H  148  1  0.21796400  0.84528700  0.50651300  1
  H  153  1  0.75759200  0.64835400  0.51086100  1
  H  154  1  0.17970700  0.64467400  0.50754400  1
  H  156  1  0.58642600  0.73326800  0.56195500  1
  H  158  1  0.59998800  0.79664600  0.49529600  1
  H  165  1  0.79952000  0.34701100  0.86702000  1
  H  170  1  0.21844600  0.33759800  0.84756000  1
  H  175  1  0.75770700  0.13653200  0.65050800  1
  H  176  1  0.17995700  0.13589300  0.64689100  1
  H  178  1  0.58646800  0.17043600  0.73545600  1
  H  180  1  0.60045800  0.30044200  0.79869500  1
  H  187  1  0.79963500  0.51454400  0.64855900  1
  H  192  1  0.21828600  0.50440500  0.65812200  1
  H  197  1  0.75678800  0.50864200  0.85912300  1
  H  198  1  0.17902300  0.50556600  0.85987300  1
  H  200  1  0.58579900  0.55954500  0.82510000  1
  H  202  1  0.60024700  0.49285800  0.69505500  1
  H  209  1  0.79928800  0.12854600  0.48099100  1
  H  214  1  0.21798400  0.14826400  0.49129200  1
  H  219  1  0.75709200  0.34509600  0.48700100  1
  H  220  1  0.17925600  0.34888900  0.49020500  1
  H  222  1  0.58606600  0.26013100  0.43592100  1
  H  224  1  0.59994500  0.19673100  0.50255600  1
  N  8  1  0.11296800  0.96300100  0.55417200  1
  N  29  1  0.97222200  0.18080100  0.58858600  1
  N  33  1  0.97141800  0.81269700  0.40918400  1
  N  34  1  0.11264500  0.03031600  0.44345700  1
  N  48  1  0.97212400  0.40244400  0.81489300  1
  N  55  1  0.97201500  0.59106800  0.18300100  1
  N  57  1  0.11290500  0.40776700  0.96527700  1
  N  58  1  0.11289800  0.58567700  0.03256400  1
  N  74  1  0.97204600  0.40700600  0.59326400  1
  N  81  1  0.97222600  0.58642700  0.40456000  1
  N  83  1  0.11293200  0.55204800  0.58791100  1
  N  84  1  0.11250300  0.44126700  0.40986200  1
  N  95  1  0.10998300  0.71798200  0.19696500  1
  N  105  1  0.09190300  0.80715300  0.28569600  1
  N  117  1  0.10981200  0.47345500  0.27768200  1
  N  127  1  0.09206500  0.47306700  0.18853000  1
  N  139  1  0.10994400  0.79875500  0.52212800  1
  N  149  1  0.09237800  0.71003000  0.52259900  1
  N  161  1  0.11026500  0.27550200  0.80097200  1
  N  171  1  0.09264600  0.18632500  0.71223100  1
  N  183  1  0.10998300  0.51999100  0.72022700  1
  N  193  1  0.09191700  0.52043600  0.80940500  1
  N  205  1  0.10981200  0.19469900  0.47561500  1
  N  215  1  0.09210400  0.28347400  0.47524300  1
  O  111  1  0.60996000  0.79879400  0.27232000  1
  O  113  1  0.62771500  0.71313600  0.18423200  1
  O  133  1  0.61005600  0.46812800  0.19677600  1
  O  135  1  0.62753100  0.46565000  0.28241800  1
  O  155  1  0.61040700  0.72312700  0.52761600  1
  O  157  1  0.62766900  0.81124400  0.53008500  1
  O  177  1  0.61063200  0.19454800  0.72522300  1
  O  179  1  0.62791800  0.28024700  0.81331500  1
  O  199  1  0.60995900  0.52522000  0.80092300  1
  O  201  1  0.62771600  0.52766800  0.71527500  1
  O  221  1  0.61009100  0.27027600  0.47025600  1
  O  223  1  0.62755700  0.18214500  0.46775900  1
