# generated using pymatgen
data_Ho2H6C18(SO4)3
_symmetry_space_group_name_H-M   'P 1'
_cell_length_a   10.18479000
_cell_length_b   16.73389000
_cell_length_c   17.76545000
_cell_angle_alpha   89.99054000
_cell_angle_beta   90.01171000
_cell_angle_gamma   89.98813000
_symmetry_Int_Tables_number   1
_chemical_formula_structural   Ho2H6C18(SO4)3
_chemical_formula_sum   'Ho8 H24 C72 S12 O48'
_cell_volume   3027.78600256
_cell_formula_units_Z   4
loop_
 _symmetry_equiv_pos_site_id
 _symmetry_equiv_pos_as_xyz
  1  'x, y, z'
loop_
 _atom_site_type_symbol
 _atom_site_label
 _atom_site_symmetry_multiplicity
 _atom_site_fract_x
 _atom_site_fract_y
 _atom_site_fract_z
 _atom_site_occupancy
  Ho  Ho1  1  0.17582000  0.52408000  0.88440000  1.0
  Ho  Ho2  1  0.37323000  0.31957000  0.89756000  1.0
  Ho  Ho3  1  0.82427000  0.47610000  0.38446000  1.0
  Ho  Ho4  1  0.62975000  0.68058000  0.39746000  1.0
  Ho  Ho5  1  0.32100000  0.02396000  0.88268000  1.0
  Ho  Ho6  1  0.12664000  0.81950000  0.89745000  1.0
  Ho  Ho7  1  0.67515000  0.97602000  0.38443000  1.0
  Ho  Ho8  1  0.87010000  0.18062000  0.39758000  1.0
  H  H1  1  0.96115000  0.46856000  0.05226000  1.0
  H  H2  1  0.37984000  0.63512000  0.07038000  1.0
  H  H3  1  0.07006000  0.19905000  0.56786000  1.0
  H  H4  1  0.86140000  0.45150000  0.19006000  1.0
  H  H5  1  0.14958000  0.20526000  0.71085000  1.0
  H  H6  1  0.47159000  0.64978000  0.21160000  1.0
  H  H7  1  0.03894000  0.53113000  0.55225000  1.0
  H  H8  1  0.62028000  0.36477000  0.57057000  1.0
  H  H9  1  0.92847000  0.80043000  0.06762000  1.0
  H  H10  1  0.13812000  0.54823000  0.69015000  1.0
  H  H11  1  0.85266000  0.79409000  0.21118000  1.0
  H  H12  1  0.52832000  0.34986000  0.71166000  1.0
  H  H13  1  0.53945000  0.96909000  0.05227000  1.0
  H  H14  1  0.12054000  0.13497000  0.07040000  1.0
  H  H15  1  0.42959000  0.69923000  0.56753000  1.0
  H  H16  1  0.63880000  0.95166000  0.19001000  1.0
  H  H17  1  0.35054000  0.70553000  0.71034000  1.0
  H  H18  1  0.02834000  0.15003000  0.21138000  1.0
  H  H19  1  0.46166000  0.03152000  0.55204000  1.0
  H  H20  1  0.88009000  0.86351000  0.56892000  1.0
  H  H21  1  0.57037000  0.30004000  0.06715000  1.0
  H  H22  1  0.36103000  0.04869000  0.68979000  1.0
  H  H23  1  0.64729000  0.29350000  0.21066000  1.0
  H  H24  1  0.97028000  0.84940000  0.71070000  1.0
  C  C1  1  0.42260000  0.48470000  0.99674000  1.0
  C  C2  1  0.07904000  0.32828000  0.71212000  1.0
  C  C3  1  0.46461000  0.51595000  0.07018000  1.0
  C  C4  1  0.98516000  0.42104000  0.09158000  1.0
  C  C5  1  0.00583000  0.32188000  0.57990000  1.0
  C  C6  1  0.43421000  0.58995000  0.10145000  1.0
  C  C7  1  0.54580000  0.52905000  0.20023000  1.0
  C  C8  1  0.06029000  0.25025000  0.60485000  1.0
  C  C9  1  0.93329000  0.41222000  0.16446000  1.0
  C  C10  1  0.98425000  0.34624000  0.20193000  1.0
  C  C11  1  0.07629000  0.36213000  0.07438000  1.0
  C  C12  1  0.15549000  0.35644000  0.00575000  1.0
  C  C13  1  0.12544000  0.35810000  0.78504000  1.0
  C  C14  1  0.10234000  0.25364000  0.68019000  1.0
  C  C15  1  0.48086000  0.59742000  0.17575000  1.0
  C  C16  1  0.94602000  0.31872000  0.27762000  1.0
  C  C17  1  0.61025000  0.51726000  0.27326000  1.0
  C  C18  1  0.96238000  0.33834000  0.50227000  1.0
  C  C19  1  0.57959000  0.51520000  0.49722000  1.0
  C  C20  1  0.92501000  0.67124000  0.21242000  1.0
  C  C21  1  0.53690000  0.48423000  0.57066000  1.0
  C  C22  1  0.01499000  0.57886000  0.59132000  1.0
  C  C23  1  0.99425000  0.67794000  0.07948000  1.0
  C  C24  1  0.56606000  0.40991000  0.60170000  1.0
  C  C25  1  0.45440000  0.47073000  0.70030000  1.0
  C  C26  1  0.93962000  0.74936000  0.10472000  1.0
  C  C27  1  0.06662000  0.58775000  0.66433000  1.0
  C  C28  1  0.01502000  0.65369000  0.70169000  1.0
  C  C29  1  0.92395000  0.63770000  0.57378000  1.0
  C  C30  1  0.84428000  0.64381000  0.50547000  1.0
  C  C31  1  0.87960000  0.64196000  0.28598000  1.0
  C  C32  1  0.89994000  0.74579000  0.18046000  1.0
  C  C33  1  0.51887000  0.40223000  0.67583000  1.0
  C  C34  1  0.05080000  0.68156000  0.77774000  1.0
  C  C35  1  0.38995000  0.48229000  0.77320000  1.0
  C  C36  1  0.03643000  0.66112000  0.00177000  1.0
  C  C37  1  0.07406000  0.98482000  0.99615000  1.0
  C  C38  1  0.42224000  0.82852000  0.71212000  1.0
  C  C39  1  0.03519000  0.01570000  0.07042000  1.0
  C  C40  1  0.51491000  0.92131000  0.09125000  1.0
  C  C41  1  0.49448000  0.82195000  0.57962000  1.0
  C  C42  1  0.06610000  0.08981000  0.10138000  1.0
  C  C43  1  0.95522000  0.02927000  0.20052000  1.0
  C  C44  1  0.43971000  0.75044000  0.60455000  1.0
  C  C45  1  0.56722000  0.91223000  0.16413000  1.0
  C  C46  1  0.51629000  0.84617000  0.20152000  1.0
  C  C47  1  0.42349000  0.86260000  0.07390000  1.0
  C  C48  1  0.34325000  0.85703000  0.00553000  1.0
  C  C49  1  0.37614000  0.85822000  0.78534000  1.0
  C  C50  1  0.39807000  0.75399000  0.67995000  1.0
  C  C51  1  0.01973000  0.09763000  0.17561000  1.0
  C  C52  1  0.55354000  0.81853000  0.27740000  1.0
  C  C53  1  0.88996000  0.01865000  0.27343000  1.0
  C  C54  1  0.53699000  0.83870000  0.50186000  1.0
  C  C55  1  0.91858000  0.01494000  0.49693000  1.0
  C  C56  1  0.57512000  0.17077000  0.21186000  1.0
  C  C57  1  0.96055000  0.98388000  0.57018000  1.0
  C  C58  1  0.48452000  0.07919000  0.59142000  1.0
  C  C59  1  0.50507000  0.17739000  0.07897000  1.0
  C  C60  1  0.93235000  0.90915000  0.60058000  1.0
  C  C61  1  0.04311000  0.97029000  0.69932000  1.0
  C  C62  1  0.55991000  0.24884000  0.10416000  1.0
  C  C63  1  0.43312000  0.08800000  0.66444000  1.0
  C  C64  1  0.48483000  0.15378000  0.70192000  1.0
  C  C65  1  0.57554000  0.13807000  0.57405000  1.0
  C  C66  1  0.65476000  0.14441000  0.50552000  1.0
  C  C67  1  0.62050000  0.14129000  0.28537000  1.0
  C  C68  1  0.60010000  0.24525000  0.17984000  1.0
  C  C69  1  0.97926000  0.90164000  0.67473000  1.0
  C  C70  1  0.44872000  0.18132000  0.77782000  1.0
  C  C71  1  0.10907000  0.98152000  0.77179000  1.0
  C  C72  1  0.46164000  0.16043000  0.00145000  1.0
  S  S1  1  0.55104000  0.45589000  0.13177000  1.0
  S  S2  1  0.09685000  0.29512000  0.14743000  1.0
  S  S3  1  0.00272000  0.39269000  0.65024000  1.0
  S  S4  1  0.45052000  0.54428000  0.63224000  1.0
  S  S5  1  0.90292000  0.70475000  0.64662000  1.0
  S  S6  1  0.00087000  0.60723000  0.14983000  1.0
  S  S7  1  0.94999000  0.95572000  0.13267000  1.0
  S  S8  1  0.40338000  0.79528000  0.14690000  1.0
  S  S9  1  0.49868000  0.89275000  0.64996000  1.0
  S  S10  1  0.04584000  0.04433000  0.63177000  1.0
  S  S11  1  0.59674000  0.20496000  0.64696000  1.0
  S  S12  1  0.49949000  0.10670000  0.14925000  1.0
  O  O1  1  0.45487000  0.41270000  0.98019000  1.0
  O  O2  1  0.60496000  0.57375000  0.32219000  1.0
  O  O3  1  0.96661000  0.24582000  0.29520000  1.0
  O  O4  1  0.22799000  0.29509000  0.99550000  1.0
  O  O5  1  0.10152000  0.43178000  0.80081000  1.0
  O  O6  1  0.35471000  0.53135000  0.95504000  1.0
  O  O7  1  0.19111000  0.30975000  0.82593000  1.0
  O  O8  1  0.97185000  0.27985000  0.45635000  1.0
  O  O9  1  0.15145000  0.41456000  0.95852000  1.0
  O  O10  1  0.67514000  0.45327000  0.28518000  1.0
  O  O11  1  0.92256000  0.40858000  0.48482000  1.0
  O  O12  1  0.89148000  0.36913000  0.32156000  1.0
  O  O13  1  0.55156000  0.58804000  0.48126000  1.0
  O  O14  1  0.39601000  0.42565000  0.82187000  1.0
  O  O15  1  0.02465000  0.75379000  0.79566000  1.0
  O  O16  1  0.77352000  0.70598000  0.49547000  1.0
  O  O17  1  0.90431000  0.56874000  0.30321000  1.0
  O  O18  1  0.64389000  0.46757000  0.45478000  1.0
  O  O19  1  0.81277000  0.69057000  0.32595000  1.0
  O  O20  1  0.02617000  0.71910000  0.95524000  1.0
  O  O21  1  0.84533000  0.58535000  0.45855000  1.0
  O  O22  1  0.32493000  0.54617000  0.78539000  1.0
  O  O23  1  0.07626000  0.59091000  0.98462000  1.0
  O  O24  1  0.10867000  0.63188000  0.82130000  1.0
  O  O25  1  0.04360000  0.91214000  0.98067000  1.0
  O  O26  1  0.89552000  0.07576000  0.32150000  1.0
  O  O27  1  0.53114000  0.74585000  0.29519000  1.0
  O  O28  1  0.27219000  0.79504000  0.99539000  1.0
  O  O29  1  0.40090000  0.93181000  0.80174000  1.0
  O  O30  1  0.13686000  0.03195000  0.95251000  1.0
  O  O31  1  0.31071000  0.80976000  0.82615000  1.0
  O  O32  1  0.52729000  0.78068000  0.45538000  1.0
  O  O33  1  0.34281000  0.91564000  0.95866000  1.0
  O  O34  1  0.82566000  0.95508000  0.28762000  1.0
  O  O35  1  0.57664000  0.90901000  0.48471000  1.0
  O  O36  1  0.60916000  0.86883000  0.32107000  1.0
  O  O37  1  0.94678000  0.08770000  0.48103000  1.0
  O  O38  1  0.10408000  0.92520000  0.82090000  1.0
  O  O39  1  0.47434000  0.25352000  0.79593000  1.0
  O  O40  1  0.72574000  0.20636000  0.49536000  1.0
  O  O41  1  0.59534000  0.06792000  0.30201000  1.0
  O  O42  1  0.85388000  0.96745000  0.45462000  1.0
  O  O43  1  0.68601000  0.18994000  0.32604000  1.0
  O  O44  1  0.47118000  0.21865000  0.95517000  1.0
  O  O45  1  0.65234000  0.08607000  0.45846000  1.0
  O  O46  1  0.17416000  0.04544000  0.78354000  1.0
  O  O47  1  0.42160000  0.09032000  0.98421000  1.0
  O  O48  1  0.39150000  0.13128000  0.82128000  1.0
