# generated using pymatgen
data_Cd3H28(C11O7)4
_symmetry_space_group_name_H-M   'P 1'
_cell_length_a   12.29498573
_cell_length_b   12.51983000
_cell_length_c   17.10317000
_cell_angle_alpha   83.55452000
_cell_angle_beta   83.86790624
_cell_angle_gamma   63.92283500
_symmetry_Int_Tables_number   1
_chemical_formula_structural   Cd3H28(C11O7)4
_chemical_formula_sum   'Cd3 H28 C44 O28'
_cell_volume   2344.88381514
_cell_formula_units_Z   1
loop_
 _symmetry_equiv_pos_site_id
 _symmetry_equiv_pos_as_xyz
  1  'x, y, z'
loop_
 _atom_site_type_symbol
 _atom_site_label
 _atom_site_symmetry_multiplicity
 _atom_site_fract_x
 _atom_site_fract_y
 _atom_site_fract_z
 _atom_site_occupancy
  Cd  Cd0  1  0.73105000  0.74030000  0.96870000  1
  Cd  Cd1  1  0.25873000  0.27464000  0.03040000  1
  Cd  Cd2  1  0.53797000  0.46175000  0.49847000  1
  H  H3  1  0.89231000  0.27253000  0.64161000  1
  H  H4  1  0.63159000  0.58048000  0.75726000  1
  H  H5  1  0.97453000  0.36834000  0.85744000  1
  H  H6  1  0.14849000  0.28752000  0.79079000  1
  H  H7  1  0.01484000  0.59418000  0.85390000  1
  H  H8  1  0.12862000  0.64578000  0.60834000  1
  H  H9  1  0.35692000  0.34438000  0.75501000  1
  H  H10  1  0.67454000  0.90487000  0.78506000  1
  H  H11  1  0.76364000  0.94038000  0.70631000  1
  H  H12  1  0.71411000  0.82790000  0.69736000  1
  H  H13  1  0.84383000  0.69873000  0.80307000  1
  H  H14  1  0.30003000  0.07900000  0.82581000  1
  H  H15  1  0.25937000  0.02466000  0.74396000  1
  H  H16  1  0.33590000  0.12179000  0.72927000  1
  H  H17  1  0.73201000  0.09641000  0.36549000  1
  H  H18  1  0.42692000  0.36406000  0.24569000  1
  H  H19  1  0.62754000  0.02329000  0.14963000  1
  H  H20  1  0.71196000  0.85040000  0.21045000  1
  H  H21  1  0.41327000  0.98630000  0.14594000  1
  H  H22  1  0.35654000  0.86725000  0.38939000  1
  H  H23  1  0.65767000  0.64107000  0.24187000  1
  H  H24  1  0.10642000  0.32319000  0.21551000  1
  H  H25  1  0.06856000  0.23751000  0.29490000  1
  H  H26  1  0.18673000  0.28149000  0.30298000  1
  H  H27  1  0.31373000  0.15242000  0.19821000  1
  H  H28  1  0.92655000  0.69752000  0.18329000  1
  H  H29  1  0.97360000  0.73583000  0.26967000  1
  H  H30  1  0.87293000  0.66308000  0.27710000  1
  C  C31  1  0.77007000  0.56974000  0.87391000  1
  C  C32  1  0.66715000  0.45612000  0.62906000  1
  C  C33  1  0.89591000  0.82686000  0.84247000  1
  C  C34  1  0.86623000  0.33042000  0.68981000  1
  C  C35  1  0.72001000  0.50414000  0.75450000  1
  C  C36  1  0.01682000  0.15842000  0.98810000  1
  C  C37  1  0.20768000  0.39255000  0.88914000  1
  C  C38  1  0.91459000  0.38444000  0.81066000  1
  C  C39  1  0.80068000  0.48272000  0.81257000  1
  C  C40  1  0.05594000  0.63191000  0.72876000  1
  C  C41  1  0.18539000  0.46300000  0.81137000  1
  C  C42  1  0.94340000  0.31180000  0.74880000  1
  C  C43  1  0.15371000  0.20705000  0.76821000  1
  C  C44  1  0.25200000  0.49183000  0.67525000  1
  C  C45  1  0.07803000  0.56719000  0.80263000  1
  C  C46  1  0.14380000  0.59431000  0.66508000  1
  C  C47  1  0.35105000  0.45830000  0.61053000  1
  C  C48  1  0.27214000  0.42405000  0.74782000  1
  C  C49  1  0.74588000  0.86806000  0.73821000  1
  C  C50  1  0.75269000  0.42914000  0.69286000  1
  C  C51  1  0.85959000  0.77406000  0.77496000  1
  C  C52  1  0.26732000  0.09967000  0.76560000  1
  C  C53  1  0.43411000  0.23186000  0.12649000  1
  C  C54  1  0.55180000  0.32469000  0.37397000  1
  C  C55  1  0.17981000  0.10626000  0.15858000  1
  C  C56  1  0.67271000  0.12466000  0.31688000  1
  C  C57  1  0.50074000  0.27468000  0.24908000  1
  C  C58  1  0.80228000  0.00197000  0.01963000  1
  C  C59  1  0.61155000  0.78965000  0.10879000  1
  C  C60  1  0.61408000  0.08180000  0.19561000  1
  C  C61  1  0.51915000  0.19680000  0.19116000  1
  C  C62  1  0.37451000  0.94236000  0.27055000  1
  C  C63  1  0.54124000  0.81298000  0.18673000  1
  C  C64  1  0.68784000  0.04980000  0.25832000  1
  C  C65  1  0.79191000  0.84273000  0.23746000  1
  C  C66  1  0.51085000  0.74496000  0.32210000  1
  C  C67  1  0.43903000  0.92136000  0.19638000  1
  C  C68  1  0.40943000  0.85288000  0.33312000  1
  C  C69  1  0.54599000  0.64477000  0.38512000  1
  C  C70  1  0.57860000  0.72555000  0.24957000  1
  C  C71  1  0.14321000  0.25243000  0.26258000  1
  C  C72  1  0.57630000  0.23902000  0.31194000  1
  C  C73  1  0.23553000  0.13960000  0.22609000  1
  C  C74  1  0.89953000  0.72973000  0.24326000  1
  O  O75  1  0.67215000  0.66588000  0.86927000  1
  O  O76  1  0.82371000  0.84378000  0.90537000  1
  O  O77  1  0.94047000  0.16023000  0.03605000  1
  O  O78  1  0.56282000  0.54069000  0.63507000  1
  O  O79  1  0.15929000  0.44564000  0.95195000  1
  O  O80  1  0.84733000  0.54833000  0.92486000  1
  O  O81  1  0.33967000  0.53466000  0.55170000  1
  O  O82  1  0.44407000  0.35961000  0.61636000  1
  O  O83  1  0.05870000  0.20875000  0.74257000  1
  O  O84  1  0.95259000  0.73177000  0.71306000  1
  O  O85  1  0.70669000  0.39037000  0.57043000  1
  O  O86  1  0.98366000  0.85064000  0.82953000  1
  O  O87  1  0.27404000  0.27970000  0.88955000  1
  O  O88  1  0.08970000  0.15789000  0.93709000  1
  O  O89  1  0.34147000  0.33252000  0.12727000  1
  O  O90  1  0.15842000  0.17928000  0.09602000  1
  O  O91  1  0.77122000  0.08034000  0.97030000  1
  O  O92  1  0.46667000  0.42805000  0.36588000  1
  O  O93  1  0.55842000  0.84469000  0.04656000  1
  O  O94  1  0.45349000  0.15511000  0.07685000  1
  O  O95  1  0.47030000  0.65492000  0.44467000  1
  O  O96  1  0.64528000  0.55302000  0.37713000  1
  O  O97  1  0.78953000  0.93416000  0.26594000  1
  O  O98  1  0.27739000  0.04636000  0.28786000  1
  O  O99  1  0.61855000  0.28813000  0.43290000  1
  O  O100  1  0.15911000  0.01772000  0.17049000  1
  O  O101  1  0.72423000  0.71560000  0.10745000  1
  O  O102  1  0.83155000  0.92579000  0.07107000  1
