# generated using pymatgen
data_H21C36(N2O3)2
_symmetry_space_group_name_H-M   'P 1'
_cell_length_a   9.92913333
_cell_length_b   68.61690000
_cell_length_c   68.61690000
_cell_angle_alpha   120.00000000
_cell_angle_beta   90.00000000
_cell_angle_gamma   90.00000000
_symmetry_Int_Tables_number   1
_chemical_formula_structural   H21C36(N2O3)2
_chemical_formula_sum   'H126 C216 N24 O36'
_cell_volume   40485.93385579
_cell_formula_units_Z   6
loop_
 _symmetry_equiv_pos_site_id
 _symmetry_equiv_pos_as_xyz
  1  'x, y, z'
loop_
 _atom_site_type_symbol
 _atom_site_label
 _atom_site_symmetry_multiplicity
 _atom_site_fract_x
 _atom_site_fract_y
 _atom_site_fract_z
 _atom_site_occupancy
  C  2  1  0.00001800  0.82459100  0.43023000  1
  C  3  1  0.98101800  0.86115400  0.43109400  1
  C  4  1  0.96608200  0.82434500  0.39537500  1
  C  5  1  0.85533700  0.80966500  0.38587700  1
  C  6  1  0.85738600  0.79240800  0.36320600  1
  C  7  1  0.96871100  0.78943900  0.34900800  1
  C  8  1  0.07473700  0.80539800  0.35836800  1
  C  9  1  0.07417700  0.82242600  0.38118800  1
  C  10  1  0.89026900  0.82043800  0.44071600  1
  C  11  1  0.89627200  0.80306200  0.44599100  1
  C  12  1  0.01165300  0.78915700  0.44063300  1
  C  13  1  0.12409100  0.79426400  0.43127600  1
  C  14  1  0.11857600  0.81175600  0.42621800  1
  C  15  1  0.86161200  0.87336700  0.43373800  1
  C  16  1  0.86197500  0.89711000  0.44567300  1
  C  17  1  0.98159100  0.90957600  0.45537100  1
  C  18  1  0.10097100  0.89702200  0.45248300  1
  C  19  1  0.10077500  0.87328100  0.44061400  1
  C  33  1  0.99998100  0.59669800  0.16830900  1
  C  34  1  0.98090600  0.56100000  0.13173900  1
  C  35  1  0.96612300  0.56208100  0.16854500  1
  C  36  1  0.85548300  0.56728800  0.18325000  1
  C  37  1  0.85732300  0.56182300  0.20047100  1
  C  38  1  0.96872500  0.55061700  0.20345300  1
  C  39  1  0.07481700  0.54403900  0.18750600  1
  C  40  1  0.07418800  0.54980800  0.17046000  1
  C  41  1  0.89014900  0.61133700  0.17247700  1
  C  42  1  0.89611500  0.63397100  0.18988800  1
  C  43  1  0.01162800  0.64253000  0.20375600  1
  C  44  1  0.12408500  0.62806600  0.19862800  1
  C  45  1  0.11851100  0.60551600  0.18113400  1
  C  46  1  0.86150600  0.55142900  0.11952600  1
  C  47  1  0.86186800  0.53962700  0.09578300  1
  C  48  1  0.98148500  0.53686100  0.08331700  1
  C  49  1  0.10086000  0.54652600  0.09587300  1
  C  50  1  0.10066400  0.55839500  0.11961300  1
  C  64  1  0.99988133  0.56266000  0.39617000  1
  C  65  1  0.98083600  0.56180800  0.43188100  1
  C  66  1  0.96603800  0.59752800  0.43078200  1
  C  67  1  0.85534700  0.60701400  0.42557700  1
  C  68  1  0.85735100  0.62968900  0.43101200  1
  C  69  1  0.96865000  0.64388900  0.44225200  1
  C  70  1  0.07471600  0.63452100  0.44883700  1
  C  71  1  0.07413100  0.61170300  0.44305900  1
  C  72  1  0.88998200  0.55218700  0.38154700  1
  C  73  1  0.89600000  0.54695400  0.35891000  1
  C  74  1  0.01156400  0.55224800  0.35034600  1
  C  75  1  0.12402000  0.56158900  0.36481200  1
  C  76  1  0.11845100  0.56665900  0.38736600  1
  C  77  1  0.86148100  0.55917400  0.44146700  1
  C  78  1  0.86190700  0.54723800  0.45327400  1
  C  79  1  0.98153600  0.53753100  0.45602500  1
  C  80  1  0.10087100  0.54041300  0.44634300  1
  C  81  1  0.10061500  0.55228300  0.43447200  1
  C  95  1  0.00216700  0.16439600  0.56669100  1
  C  96  1  0.98333500  0.12798900  0.56607300  1
  C  97  1  0.97107700  0.16511400  0.60185300  1
  C  98  1  0.86001000  0.17973400  0.61132100  1
  C  99  1  0.86181800  0.19713000  0.63394200  1
  C  100  1  0.97296400  0.20028800  0.64824500  1
  C  101  1  0.07919700  0.18436300  0.63894400  1
  C  102  1  0.07934900  0.16732600  0.61613600  1
  C  103  1  0.89075700  0.16914800  0.55695300  1
  C  104  1  0.89757100  0.18634700  0.55145000  1
  C  105  1  0.01546000  0.19951600  0.55581300  1
  C  106  1  0.12899500  0.19388800  0.56451400  1
  C  107  1  0.12262500  0.17654900  0.56979900  1
  C  108  1  0.86741800  0.11587700  0.55443000  1
  C  109  1  0.86728600  0.09213600  0.54231100  1
  C  110  1  0.98255800  0.07946600  0.54143300  1
  C  111  1  0.09828200  0.09191500  0.55328100  1
  C  112  1  0.09905200  0.11565100  0.56521000  1
  C  126  1  0.00260400  0.39342800  0.82848600  1
  C  127  1  0.98343400  0.42920100  0.86489900  1
  C  128  1  0.97094600  0.42786800  0.82778000  1
  C  129  1  0.86009600  0.42263900  0.81310600  1
  C  130  1  0.86185400  0.42787000  0.79571500  1
  C  131  1  0.97271800  0.43910600  0.79261300  1
  C  132  1  0.07870500  0.44580300  0.80859100  1
  C  133  1  0.07890100  0.44002900  0.82562600  1
  C  134  1  0.89142300  0.37890100  0.82377000  1
  C  135  1  0.89830200  0.35621600  0.80652600  1
  C  136  1  0.01613000  0.34744600  0.79332800  1
  C  137  1  0.12949500  0.36180800  0.79894600  1
  C  138  1  0.12301800  0.38442300  0.81630100  1
  C  139  1  0.86745800  0.42967500  0.87700300  1
  C  140  1  0.86730200  0.44128100  0.90074400  1
  C  141  1  0.98256900  0.45306300  0.91342200  1
  C  142  1  0.09835900  0.45245200  0.90098100  1
  C  143  1  0.09916300  0.44065900  0.87724700  1
  C  157  1  0.00278700  0.42610100  0.59943000  1
  C  158  1  0.98380700  0.42676400  0.56366600  1
  C  159  1  0.97139600  0.39096400  0.56496400  1
  C  160  1  0.86026200  0.38150800  0.57011500  1
  C  161  1  0.86195900  0.35887900  0.56486300  1
  C  162  1  0.97292500  0.34455100  0.55366700  1
  C  163  1  0.07919800  0.35385300  0.54705100  1
  C  164  1  0.07944900  0.37666200  0.55282800  1
  C  165  1  0.89148700  0.43587300  0.61393700  1
  C  166  1  0.89832800  0.44134000  0.63663000  1
  C  167  1  0.01621600  0.43695500  0.64542300  1
  C  168  1  0.12970100  0.42825200  0.63108100  1
  C  169  1  0.12324400  0.42296800  0.60845700  1
  C  170  1  0.86786600  0.43841300  0.56321500  1
  C  171  1  0.86769400  0.45055200  0.55161500  1
  C  172  1  0.98290600  0.45143000  0.53981000  1
  C  173  1  0.09864500  0.43957500  0.54039200  1
  C  174  1  0.09948100  0.42763600  0.55218700  1
  C  187  1  0.98180300  0.93385900  0.46762100  1
  C  188  1  0.90349300  0.94647800  0.46051900  1
  C  189  1  0.90334800  0.97021900  0.47251600  1
  C  190  1  0.98197900  0.98239200  0.49215700  1
  C  191  1  0.06052000  0.97000300  0.49938000  1
  C  192  1  0.06025300  0.94626500  0.48736800  1
  C  195  1  0.98203100  0.00652800  0.50437400  1
  C  196  1  0.86433100  0.01868400  0.51575400  1
  C  197  1  0.86653700  0.04255600  0.52790500  1
  C  198  1  0.98233200  0.05514000  0.52905500  1
  C  199  1  0.09792000  0.04262000  0.51743700  1
  C  200  1  0.09985900  0.01874700  0.50535700  1
  C  211  1  0.98168900  0.52483300  0.05903500  1
  C  212  1  0.90334700  0.50511600  0.04641100  1
  C  213  1  0.90320100  0.49337600  0.02266900  1
  C  214  1  0.98186400  0.50084300  0.01049900  1
  C  215  1  0.06043900  0.52045000  0.02289200  1
  C  216  1  0.06017200  0.53217200  0.04663100  1
  C  219  1  0.98193800  0.48892700  0.98636200  1
  C  220  1  0.86427100  0.48816100  0.97420400  1
  C  221  1  0.86651000  0.47644500  0.95033100  1
  C  222  1  0.98229700  0.46500500  0.93775000  1
  C  223  1  0.09784400  0.46589500  0.95027300  1
  C  224  1  0.09975700  0.47768400  0.97414700  1
  C  235  1  0.98180300  0.52527700  0.46805100  1
  C  236  1  0.90358000  0.53237900  0.48778100  1
  C  237  1  0.90348400  0.52037700  0.49952000  1
  C  238  1  0.98208000  0.50073000  0.49203800  1
  C  239  1  0.06053500  0.49350700  0.47241800  1
  C  240  1  0.06021800  0.50552500  0.46069600  1
  C  243  1  0.98219100  0.48850900  0.50395200  1
  C  244  1  0.86450700  0.47712800  0.50473300  1
  C  245  1  0.86677300  0.46497000  0.51644800  1
  C  246  1  0.98260900  0.46381800  0.52787100  1
  C  247  1  0.09817700  0.47543600  0.52696300  1
  C  248  1  0.10006000  0.48752300  0.51517800  1
  C  259  1  0.01001300  0.66425100  0.22359700  1
  C  260  1  0.04824400  0.66679900  0.24463500  1
  C  261  1  0.04218500  0.68788100  0.26447300  1
  C  262  1  0.99931200  0.70728200  0.26398100  1
  C  263  1  0.96086000  0.70481300  0.24301000  1
  C  264  1  0.96502500  0.68362000  0.22318800  1
  C  267  1  0.99300200  0.72860200  0.28432900  1
  C  268  1  0.11097400  0.73827200  0.29740300  1
  C  269  1  0.10146000  0.75852900  0.31832800  1
  C  270  1  0.97781300  0.76993400  0.32683200  1
  C  271  1  0.86257900  0.76033600  0.31318700  1
  C  272  1  0.86784200  0.73989200  0.29235600  1
  C  283  1  0.00993100  0.55037000  0.32862800  1
  C  284  1  0.04808700  0.56886600  0.32608500  1
  C  285  1  0.04202800  0.56762300  0.30500400  1
  C  286  1  0.99924100  0.54772800  0.28560000  1
  C  287  1  0.96085400  0.52922000  0.28806300  1
  C  288  1  0.96500900  0.53059000  0.30925700  1
  C  291  1  0.99296600  0.54675500  0.26428000  1
  C  292  1  0.11093800  0.55017700  0.25462300  1
  C  293  1  0.10144500  0.55084900  0.23436700  1
  C  294  1  0.97783600  0.54792800  0.22294700  1
  C  295  1  0.86260400  0.54386800  0.23253600  1
  C  296  1  0.86783600  0.54347800  0.25297800  1
  C  307  1  0.00991600  0.76930800  0.44249900  1
  C  308  1  0.04800200  0.74826900  0.42399900  1
  C  309  1  0.04192300  0.72842900  0.42524200  1
  C  310  1  0.99919000  0.72892100  0.44514000  1
  C  311  1  0.96088100  0.74989600  0.46365300  1
  C  312  1  0.96506800  0.76972000  0.46228500  1
  C  315  1  0.99290100  0.70857500  0.44611400  1
  C  316  1  0.11086300  0.69549300  0.44268800  1
  C  317  1  0.10136000  0.67456700  0.44202000  1
  C  318  1  0.97775000  0.66607400  0.44495000  1
  C  319  1  0.86252800  0.67972600  0.44901100  1
  C  320  1  0.86777400  0.70055600  0.44939800  1
  C  331  1  0.01575800  0.32561500  0.77362100  1
  C  332  1  0.05984100  0.32273600  0.75271000  1
  C  333  1  0.05358200  0.30160100  0.73293700  1
  C  334  1  0.00458900  0.28247000  0.73336700  1
  C  335  1  0.96067400  0.28525200  0.75422100  1
  C  336  1  0.96513500  0.30650000  0.77396800  1
  C  339  1  0.99751900  0.26112900  0.71305600  1
  C  340  1  0.11603900  0.25092400  0.70040600  1
  C  341  1  0.10617400  0.23075200  0.67941800  1
  C  342  1  0.98174200  0.21982000  0.67046500  1
  C  343  1  0.86591100  0.22990900  0.68378500  1
  C  344  1  0.87143100  0.25036500  0.70460400  1
  C  355  1  0.01585300  0.43910200  0.66726600  1
  C  356  1  0.06061100  0.42113400  0.67019500  1
  C  357  1  0.05436200  0.42251800  0.69134000  1
  C  358  1  0.00470000  0.44204500  0.71043500  1
  C  359  1  0.96019000  0.46006000  0.70760800  1
  C  360  1  0.96468100  0.45853700  0.68635100  1
  C  363  1  0.99749400  0.44309000  0.73178100  1
  C  364  1  0.11604400  0.44078400  0.74207000  1
  C  365  1  0.10609300  0.43996500  0.76224100  1
  C  366  1  0.98152600  0.44180800  0.77309000  1
  C  367  1  0.86564500  0.44490800  0.76291900  1
  C  368  1  0.87126000  0.44526600  0.74246100  1
  C  379  1  0.01511900  0.21920200  0.55365400  1
  C  380  1  0.05941300  0.24011500  0.57165600  1
  C  381  1  0.05326300  0.25987100  0.57026200  1
  C  382  1  0.00409100  0.25942100  0.55070100  1
  C  383  1  0.95991300  0.23856600  0.53266100  1
  C  384  1  0.96430800  0.21883600  0.53419300  1
  C  387  1  0.99713000  0.27971700  0.54964300  1
  C  388  1  0.11574100  0.29233100  0.55204600  1
  C  389  1  0.10598700  0.31332700  0.55287300  1
  C  390  1  0.98157700  0.32232000  0.55094600  1
  C  391  1  0.86565400  0.30902600  0.54774300  1
  C  392  1  0.87106300  0.28820200  0.54737000  1
  H  20  1  0.81116900  0.79941700  0.45196800  1
  H  21  1  0.80130400  0.82877700  0.44279300  1
  H  22  1  0.19756100  0.81387800  0.41788800  1
  H  23  1  0.20911000  0.78454700  0.42702100  1
  H  24  1  0.77822200  0.81009500  0.39596400  1
  H  25  1  0.78053200  0.78095500  0.35774900  1
  H  26  1  0.77325000  0.86496200  0.42714100  1
  H  27  1  0.77235900  0.90523100  0.44759900  1
  H  28  1  0.19073700  0.90507800  0.45870300  1
  H  29  1  0.18891600  0.86481800  0.43879100  1
  H  30  1  0.15730200  0.83242000  0.38780000  1
  H  31  1  0.15719100  0.80418500  0.34889400  1
  H  51  1  0.81114400  0.64362000  0.19349700  1
  H  52  1  0.80118400  0.60508200  0.16413600  1
  H  53  1  0.19752100  0.59506300  0.17899700  1
  H  54  1  0.20917400  0.63352800  0.20832600  1
  H  55  1  0.77806900  0.57686400  0.18275600  1
  H  56  1  0.78036100  0.56778800  0.21190100  1
  H  57  1  0.77313500  0.55323900  0.12792900  1
  H  58  1  0.77224800  0.53343400  0.08766100  1
  H  59  1  0.19062600  0.54469100  0.08781800  1
  H  60  1  0.18880000  0.56503500  0.12807700  1
  H  61  1  0.15743100  0.54645600  0.16049600  1
  H  62  1  0.15731500  0.53579300  0.18872800  1
  H  82  1  0.81103800  0.54091600  0.34925900  1
  H  83  1  0.80100800  0.55011200  0.38780700  1
  H  84  1  0.19744400  0.57497800  0.39782200  1
  H  85  1  0.20911400  0.56581800  0.35934600  1
  H  86  1  0.77789300  0.59694600  0.41601200  1
  H  87  1  0.78019900  0.63517900  0.42510200  1
  H  88  1  0.77309800  0.56577000  0.43966400  1
  H  89  1  0.77231300  0.54531100  0.45947500  1
  H  90  1  0.19064700  0.53419000  0.44816900  1
  H  91  1  0.18872000  0.55410100  0.42782000  1
  H  92  1  0.15735700  0.60508700  0.44641000  1
  H  93  1  0.15722900  0.64398700  0.45708400  1
  H  113  1  0.81165700  0.19040500  0.54602200  1
  H  114  1  0.80030200  0.16148100  0.55566200  1
  H  115  1  0.20282900  0.17406000  0.57765800  1
  H  116  1  0.21580100  0.20310000  0.56809100  1
  H  117  1  0.78205800  0.17905000  0.60125700  1
  H  118  1  0.78426400  0.20844200  0.63930500  1
  H  119  1  0.78207800  0.12432500  0.55467000  1
  H  120  1  0.78172500  0.08418800  0.53370800  1
  H  121  1  0.18381900  0.08380300  0.55364300  1
  H  122  1  0.18528800  0.12390100  0.57319800  1
  H  123  1  0.16331900  0.15756900  0.60970300  1
  H  124  1  0.16160500  0.18559400  0.64842700  1
  H  144  1  0.81246200  0.34671400  0.80247100  1
  H  145  1  0.80087100  0.38524800  0.83141100  1
  H  146  1  0.20305400  0.39479600  0.81877300  1
  H  147  1  0.21623300  0.35620400  0.78970900  1
  H  148  1  0.78238500  0.41319200  0.81374400  1
  H  149  1  0.78451000  0.42186100  0.78436600  1
  H  150  1  0.78210900  0.42147900  0.86854800  1
  H  151  1  0.78166500  0.44064400  0.90868600  1
  H  152  1  0.18388900  0.46092400  0.90910000  1
  H  153  1  0.18543100  0.44039200  0.86900200  1
  H  154  1  0.16272400  0.44342200  0.83542900  1
  H  155  1  0.16085700  0.45414100  0.80741900  1
  H  175  1  0.81241200  0.44673400  0.64611600  1
  H  176  1  0.80091100  0.43713000  0.60757500  1
  H  177  1  0.20338300  0.41509500  0.59809900  1
  H  178  1  0.21647500  0.42464900  0.63670100  1
  H  179  1  0.78257600  0.39160200  0.57955800  1
  H  180  1  0.78444000  0.35352300  0.57082600  1
  H  181  1  0.78255100  0.43816500  0.57142500  1
  H  182  1  0.78209200  0.45914500  0.55226800  1
  H  183  1  0.18415200  0.43921800  0.53191400  1
  H  184  1  0.18572800  0.41964400  0.55243800  1
  H  185  1  0.16345000  0.38309700  0.54951500  1
  H  186  1  0.16139900  0.34434400  0.53873300  1
  H  193  1  0.11760000  0.97822300  0.51367200  1
  H  194  1  0.11642100  0.93809000  0.49357800  1
  H  201  1  0.78146000  0.05079600  0.53646700  1
  H  202  1  0.18312300  0.05091400  0.51727300  1
  H  203  1  0.84710400  0.93846400  0.44614600  1
  H  204  1  0.84629400  0.97860200  0.46662400  1
  H  217  1  0.11754900  0.52652200  0.01467500  1
  H  218  1  0.11636600  0.54655400  0.05480700  1
  H  225  1  0.78146000  0.47677500  0.94209000  1
  H  226  1  0.18304300  0.45743400  0.94198200  1
  H  227  1  0.84693700  0.49875500  0.05442100  1
  H  228  1  0.84612100  0.47910400  0.01428500  1
  H  241  1  0.11759000  0.47921200  0.46633500  1
  H  242  1  0.11632200  0.49931400  0.44630500  1
  H  249  1  0.78171000  0.45640800  0.51613000  1
  H  250  1  0.18341100  0.47559700  0.53541400  1
  H  251  1  0.84722000  0.54675600  0.49415100  1
  H  252  1  0.84649100  0.52627000  0.51380200  1
  H  265  1  0.92960400  0.71849800  0.24200900  1
  H  266  1  0.93677000  0.68251200  0.20832300  1
  H  273  1  0.18705700  0.76450400  0.32779300  1
  H  274  1  0.77122200  0.76811100  0.31854000  1
  H  275  1  0.07733400  0.65313100  0.24584600  1
  H  276  1  0.06787800  0.68889000  0.27939900  1
  H  289  1  0.92966000  0.51453000  0.27437600  1
  H  290  1  0.93680900  0.51682900  0.31036200  1
  H  297  1  0.18703600  0.55435600  0.22840400  1
  H  298  1  0.77126500  0.54143500  0.22475200  1
  H  299  1  0.07712800  0.58374800  0.33975600  1
  H  300  1  0.06767100  0.58154500  0.30399700  1
  H  313  1  0.92974400  0.75090000  0.47834700  1
  H  314  1  0.93694600  0.78458700  0.47605000  1
  H  321  1  0.18694100  0.66509400  0.43850900  1
  H  322  1  0.77119000  0.67437700  0.45144700  1
  H  323  1  0.07701700  0.74705600  0.40911700  1
  H  324  1  0.06751900  0.71350000  0.41131700  1
  H  337  1  0.92489000  0.27177000  0.75518200  1
  H  338  1  0.93241300  0.30784400  0.78873400  1
  H  345  1  0.19258600  0.22448300  0.67026900  1
  H  346  1  0.77384000  0.22250700  0.67820800  1
  H  347  1  0.09302000  0.33622100  0.75150900  1
  H  348  1  0.08333200  0.30037600  0.71807800  1
  H  361  1  0.92391300  0.47447800  0.72106400  1
  H  362  1  0.93150700  0.47191900  0.68497600  1
  H  369  1  0.19257600  0.43718500  0.76856800  1
  H  370  1  0.77346100  0.44663700  0.77025900  1
  H  371  1  0.09423800  0.40646700  0.65673500  1
  H  372  1  0.08457100  0.40892500  0.69260000  1
  H  385  1  0.92398900  0.23759100  0.51822000  1
  H  386  1  0.93140700  0.20406700  0.52079400  1
  H  393  1  0.19247500  0.32245100  0.55572500  1
  H  394  1  0.77359300  0.31463000  0.54595100  1
  H  395  1  0.09281300  0.24132800  0.58633700  1
  H  396  1  0.08321600  0.27473200  0.58387300  1
  N  1  1  0.98035200  0.83724400  0.41918700  1
  N  32  1  0.98021700  0.57300200  0.15565000  1
  N  63  1  0.98007100  0.57370900  0.41987000  1
  N  94  1  0.98379200  0.15194000  0.57798800  1
  N  125  1  0.98396300  0.41717400  0.84094900  1
  N  156  1  0.98433600  0.41482800  0.57568000  1
  N  205  1  0.21755300  0.00689500  0.49382100  1
  N  206  1  0.74651700  0.00675700  0.51522200  1
  N  229  1  0.21741200  0.47798800  0.98600000  1
  N  230  1  0.74646600  0.49956000  0.98612800  1
  N  253  1  0.21773400  0.49905800  0.51485500  1
  N  254  1  0.74665200  0.47766500  0.49335000  1
  N  277  1  0.74822700  0.73013900  0.27997900  1
  N  278  1  0.23754500  0.72766200  0.28932700  1
  N  301  1  0.74821800  0.54083900  0.26271900  1
  N  302  1  0.23748400  0.55272900  0.26524600  1
  N  325  1  0.74816700  0.71294100  0.45204100  1
  N  326  1  0.23740800  0.70355800  0.44012700  1
  N  349  1  0.75139700  0.26065600  0.71654100  1
  N  350  1  0.24348200  0.26089800  0.70899100  1
  N  373  1  0.75122900  0.44676400  0.73208100  1
  N  374  1  0.24358600  0.43953800  0.73218200  1
  N  397  1  0.75095600  0.27629500  0.54575900  1
  N  398  1  0.24315400  0.28371100  0.55338700  1
  O  207  1  0.64954800  0.01130700  0.50640200  1
  O  208  1  0.25164900  0.01147100  0.47892400  1
  O  209  1  0.31457500  0.01118700  0.50713000  1
  O  210  1  0.71248400  0.01099700  0.53459400  1
  O  231  1  0.64946200  0.48619600  0.98157300  1
  O  232  1  0.25143900  0.45851200  0.98142000  1
  O  233  1  0.31448500  0.48700000  0.98171300  1
  O  234  1  0.71249900  0.51469900  0.98189400  1
  O  255  1  0.64971900  0.48648400  0.50672900  1
  O  256  1  0.25188000  0.51394900  0.53432600  1
  O  257  1  0.31474200  0.48574800  0.50582800  1
  O  258  1  0.71259100  0.45829600  0.47821600  1
  O  279  1  0.29077700  0.72213600  0.30248100  1
  O  280  1  0.66610600  0.72546300  0.29098400  1
  O  281  1  0.69130100  0.74291900  0.27432600  1
  O  282  1  0.31794400  0.74013700  0.28643100  1
  O  303  1  0.29062100  0.57141700  0.27077900  1
  O  304  1  0.66603500  0.55651000  0.26738900  1
  O  305  1  0.69137500  0.52239800  0.24993200  1
  O  306  1  0.31796900  0.53737100  0.25277700  1
  O  327  1  0.29050500  0.69039900  0.42143700  1
  O  328  1  0.66595500  0.70194100  0.43637300  1
  O  329  1  0.69135000  0.71859800  0.47048400  1
  O  330  1  0.31792300  0.70644600  0.45548200  1
  O  351  1  0.30270100  0.26614300  0.69607400  1
  O  352  1  0.67385200  0.26565600  0.70522100  1
  O  353  1  0.68910900  0.24816500  0.72200900  1
  O  354  1  0.31858400  0.24801900  0.71219500  1
  O  375  1  0.30354700  0.42144800  0.72698600  1
  O  376  1  0.67435900  0.43035500  0.72703300  1
  O  377  1  0.68815700  0.46465100  0.74452100  1
  O  378  1  0.31798500  0.45571000  0.74510700  1
  O  399  1  0.30264000  0.29660700  0.57152600  1
  O  400  1  0.67359900  0.28763200  0.56210200  1
  O  401  1  0.68849500  0.27084500  0.52782000  1
  O  402  1  0.31806000  0.28048500  0.53727500  1
