# generated using pymatgen
data_H10C14N3O
_symmetry_space_group_name_H-M   'P 1'
_cell_length_a   15.64290000
_cell_length_b   15.64290000
_cell_length_c   46.92860000
_cell_angle_alpha   90.00000000
_cell_angle_beta   90.00000000
_cell_angle_gamma   120.00000000
_symmetry_Int_Tables_number   1
_chemical_formula_structural   H10C14N3O
_chemical_formula_sum   'H60 C84 N18 O6'
_cell_volume   9944.95375616
_cell_formula_units_Z   6
loop_
 _symmetry_equiv_pos_site_id
 _symmetry_equiv_pos_as_xyz
  1  'x, y, z'
loop_
 _atom_site_type_symbol
 _atom_site_label
 _atom_site_symmetry_multiplicity
 _atom_site_fract_x
 _atom_site_fract_y
 _atom_site_fract_z
 _atom_site_occupancy
  C  2  1  0.96238600  0.96616900  0.98256400  1
  C  3  1  0.86849050  0.88233250  0.98848600  1
  C  4  1  0.91908550  0.92760650  0.93094300  1
  C  5  1  0.98564450  0.98352950  0.95295200  1
  C  8  1  0.94741850  0.93336750  0.33837200  1
  C  9  1  0.98342950  0.81907050  0.38050800  1
  C  10  1  0.95888350  0.78534150  0.35187100  1
  C  11  1  0.93524800  0.83885500  0.33224500  1
  C  12  1  0.95054250  0.99946950  0.31641900  1
  C  13  1  0.94786600  0.08724000  0.32248600  1
  C  14  1  0.97534700  0.16409200  0.30238300  1
  C  20  1  0.97842050  0.03699850  0.67091500  1
  C  21  1  0.91814500  0.00569200  0.72131700  1
  C  22  1  0.89542950  0.04802550  0.66473300  1
  C  26  1  0.92280850  0.96253350  0.81174000  1
  C  27  1  0.92619150  0.96048250  0.84180400  1
  C  29  1  0.97790450  0.96582850  0.19184500  1
  C  30  1  0.93471250  0.87761150  0.17574400  1
  C  31  1  0.93679300  0.87953400  0.14574900  1
  C  34  1  0.97070500  0.96156700  0.22189300  1
  C  36  1  0.97993050  0.99624050  0.46286700  1
  C  37  1  0.97314200  0.99232300  0.43275300  1
  C  39  1  0.94980050  0.37130050  0.33097300  1
  C  40  1  0.87439450  0.39314250  0.33783500  1
  C  41  1  0.89599350  0.49203050  0.33990200  1
  C  42  1  0.93053750  0.27321950  0.32924500  1
  C  87  1  0.96463200  0.96085700  0.36764800  1
  C  88  1  0.98024050  0.90506650  0.38866900  1
  C  90  1  0.96376050  0.98575450  0.28705600  1
  C  94  1  0.98318600  0.00504000  0.52422600  1
  C  95  1  0.93885500  0.04843800  0.50791600  1
  C  96  1  0.93938550  0.04614250  0.47793900  1
  C  99  1  0.98489850  0.01219950  0.55427400  1
  C  115  1  0.80130450  0.82265650  0.96712800  1
  C  116  1  0.82471000  0.84709400  0.93795900  1
  C  119  1  0.82850700  0.00153600  0.71316400  1
  C  120  1  0.81865000  0.02496100  0.68445500  1
  C  139  1  0.98626250  0.96955450  0.13048400  1
  C  145  1  0.98734500  0.05922300  0.26604700  1
  C  147  1  0.02737600  0.02888200  0.00482900  1
  C  148  1  0.01143450  0.00421150  0.03439100  1
  C  149  1  0.07055100  0.06839200  0.05644600  1
  C  150  1  0.15335850  0.16128650  0.04945600  1
  C  151  1  0.17442850  0.18714850  0.02028000  1
  C  152  1  0.11165400  0.12250800  0.99893100  1
  C  166  1  0.00186950  0.15299650  0.27424700  1
  C  176  1  0.98932650  0.02107050  0.70025800  1
  C  178  1  0.04138450  0.03357150  0.64900100  1
  C  179  1  0.13185350  0.03643150  0.65518100  1
  C  180  1  0.18109950  0.00823750  0.63525500  1
  C  181  1  0.14359300  0.98109800  0.60713500  1
  C  182  1  0.06464100  0.99581100  0.59875000  1
  C  183  1  0.01462000  0.01982100  0.61961600  1
  C  191  1  0.01684550  0.00659950  0.85683700  1
  C  192  1  0.10457300  0.05363600  0.84058200  1
  C  193  1  0.10184250  0.05259650  0.81059100  1
  C  194  1  0.01132950  0.00906050  0.79546900  1
  C  197  1  0.02179850  0.00667750  0.88692300  1
  C  199  1  0.01391100  0.01556800  0.76535200  1
  C  202  1  0.03070900  0.05851900  0.14662300  1
  C  203  1  0.02538300  0.05607100  0.17668600  1
  C  207  1  0.98851300  0.96634600  0.10034400  1
  C  212  1  0.02381150  0.95164550  0.47919200  1
  C  215  1  0.02612000  0.95727500  0.50926500  1
  C  221  1  0.39329650  0.41623250  0.99246200  1
  C  222  1  0.44163200  0.46864400  0.96751600  1
  C  223  1  0.53118950  0.55865750  0.96905300  1
  C  224  1  0.57653750  0.59988650  0.99557300  1
  C  225  1  0.52869600  0.54696700  0.02067400  1
  C  228  1  0.43829900  0.45738100  0.01898700  1
  C  232  1  0.30374250  0.32575650  0.99036700  1
  C  234  1  0.66697700  0.68987800  0.99715600  1
  C  236  1  0.99440100  0.57101900  0.33829900  1
  C  237  1  0.06969850  0.54871850  0.33240700  1
  C  238  1  0.04697900  0.45106500  0.32709500  1
  C  241  1  0.01868000  0.66826600  0.34510300  1
  C  243  1  0.56856550  0.98915950  0.67122600  1
  C  244  1  0.47083000  0.91379600  0.66553700  1
  C  245  1  0.39581950  0.93649750  0.66036900  1
  C  246  1  0.41345200  0.03382000  0.66406600  1
  C  247  1  0.51083900  0.10929200  0.67075500  1
  C  250  1  0.58809000  0.08762200  0.67275000  1
  C  254  1  0.64163100  0.96492000  0.67791900  1
  C  256  1  0.33474400  0.05320600  0.66228300  1
  H  1  1  0.95498450  0.93756750  0.04068800  1
  H  6  1  0.84493650  0.86440550  0.00893100  1
  H  15  1  0.98534150  0.69808450  0.39662800  1
  H  16  1  0.91581850  0.81010350  0.31221300  1
  H  17  1  0.93086100  0.09943200  0.34248200  1
  H  23  1  0.95240300  0.01918900  0.61302700  1
  H  24  1  0.88564550  0.06665250  0.64464300  1
  H  28  1  0.86081400  0.92651100  0.85272500  1
  H  32  1  0.90370800  0.81345300  0.13514200  1
  H  33  1  0.89862850  0.81042550  0.18572900  1
  H  35  1  0.93758350  0.89405450  0.23165200  1
  H  38  1  0.94446800  0.03045100  0.42270800  1
  H  43  1  0.86679350  0.21710650  0.33768800  1
  H  89  1  0.97347900  0.02694000  0.37402400  1
  H  91  1  0.96502900  0.92437900  0.28060100  1
  H  93  1  0.94777250  0.90027550  0.09010500  1
  H  97  1  0.90648150  0.07908250  0.46720400  1
  H  98  1  0.90759950  0.08467950  0.51773400  1
  H  100  1  0.95047050  0.04563250  0.56383500  1
  H  118  1  0.77315250  0.80770750  0.89698400  1
  H  122  1  0.76718350  0.97531050  0.75314900  1
  H  124  1  0.81694200  0.84993900  0.79467800  1
  H  125  1  0.84018900  0.50522200  0.34530100  1
  H  142  1  0.74855300  0.30300200  0.32299700  1
  H  154  1  0.05312300  0.03841200  0.94660500  1
  H  155  1  0.69347200  0.73789100  0.92140300  1
  H  156  1  0.27013200  0.28739200  0.06607100  1
  H  157  1  0.20222150  0.20625550  0.09035700  1
  H  158  1  0.12771550  0.14781250  0.97857700  1
  H  171  1  0.04260950  0.29247950  0.26004900  1
  H  172  1  0.05138100  0.22175000  0.23559400  1
  H  173  1  0.01028100  0.78398600  0.42040100  1
  H  177  1  0.04691350  0.01292450  0.70670100  1
  H  185  1  0.24232800  0.93987900  0.59323100  1
  H  186  1  0.16309200  0.93074500  0.56864700  1
  H  187  1  0.70517800  0.99871000  0.72934900  1
  H  188  1  0.16115400  0.05401000  0.67515100  1
  H  195  1  0.16767350  0.08752050  0.79987300  1
  H  196  1  0.17201650  0.08749750  0.85045800  1
  H  198  1  0.08863800  0.04607200  0.89686500  1
  H  200  1  0.08078650  0.04577950  0.75528400  1
  H  204  1  0.05776600  0.12168800  0.18750400  1
  H  206  1  0.02604600  0.16567400  0.12966800  1
  H  216  1  0.05863450  0.92450750  0.52024800  1
  H  218  1  0.13437050  0.95403750  0.46214700  1
  H  226  1  0.56291600  0.59352200  0.95032100  1
  H  227  1  0.41196200  0.44176500  0.94783700  1
  H  229  1  0.40604900  0.42193700  0.03760400  1
  H  231  1  0.60895850  0.55359650  0.05166200  1
  H  233  1  0.27468800  0.29784000  0.97074900  1
  H  235  1  0.69879000  0.71687700  0.01654700  1
  H  239  1  0.10398500  0.43827000  0.32308500  1
  H  240  1  0.14189000  0.60395900  0.33112200  1
  H  242  1  0.08957100  0.71791100  0.35109300  1
  H  248  1  0.32599150  0.87951150  0.65637000  1
  H  249  1  0.45381500  0.84157400  0.66429900  1
  H  251  1  0.65722150  0.14347950  0.67800700  1
  H  253  1  0.54611550  0.23479250  0.65572400  1
  H  255  1  0.62051300  0.89415300  0.68401400  1
  H  257  1  0.34256350  0.11722150  0.67057200  1
  N  7  1  0.94191400  0.94712900  0.90287700  1
  N  18  1  0.97668750  0.24913950  0.30914000  1
  N  19  1  0.95577850  0.70297650  0.34124800  1
  N  25  1  0.93488450  0.99968450  0.74954300  1
  N  92  1  0.98724350  0.92813950  0.41688900  1
  N  117  1  0.75886450  0.79242550  0.91706500  1
  N  121  1  0.75992000  0.98816900  0.73334000  1
  N  141  1  0.73915950  0.02772250  0.67388300  1
  N  153  1  0.21304150  0.22361550  0.07033900  1
  N  159  1  0.71501500  0.73979100  0.97346200  1
  N  160  1  0.25648750  0.27396350  0.01388700  1
  N  161  1  0.05063950  0.04545450  0.08451000  1
  N  165  1  0.99710000  0.76382300  0.40060500  1
  N  169  1  0.03215900  0.22780300  0.25483900  1
  N  174  1  0.99240750  0.04205950  0.23783400  1
  N  184  1  0.18799700  0.95003200  0.58792100  1
  N  189  1  0.04309400  0.99051900  0.57048400  1
  N  190  1  0.26464050  0.00683350  0.64216500  1
  O  123  1  0.83192250  0.91729350  0.79939400  1
  O  126  1  0.77921750  0.32043250  0.34198200  1
  O  205  1  0.07754600  0.14924800  0.13420200  1
  O  217  1  0.06633350  0.90331750  0.46688200  1
  O  230  1  0.56631750  0.58128850  0.04710000  1
  O  252  1  0.53348050  0.20458350  0.67476100  1
