# generated using pymatgen
data_ErH7C15O7
_symmetry_space_group_name_H-M   'P 1'
_cell_length_a   9.34900000
_cell_length_b   9.80000000
_cell_length_c   11.37900000
_cell_angle_alpha   94.44100000
_cell_angle_beta   99.30500000
_cell_angle_gamma   111.52700000
_symmetry_Int_Tables_number   1
_chemical_formula_structural   ErH7C15O7
_chemical_formula_sum   'Er2 H14 C30 O14'
_cell_volume   946.38147476
_cell_formula_units_Z   2
loop_
 _symmetry_equiv_pos_site_id
 _symmetry_equiv_pos_as_xyz
  1  'x, y, z'
loop_
 _atom_site_type_symbol
 _atom_site_label
 _atom_site_symmetry_multiplicity
 _atom_site_fract_x
 _atom_site_fract_y
 _atom_site_fract_z
 _atom_site_occupancy
  Er  Er1  1  0.72419000  0.45490000  0.01131000  1.0
  Er  Er2  1  0.27581000  0.54510000  0.98869000  1.0
  H  H1  1  0.72940000  0.77230000  0.37580000  1.0
  H  H2  1  0.82320000  0.89840000  0.56550000  1.0
  H  H3  1  0.15300000  0.72560000  0.61680000  1.0
  H  H4  1  0.06640000  0.60640000  0.42080000  1.0
  H  H5  1  0.07680000  0.14050000  0.83730000  1.0
  H  H6  1  0.67810000  0.99640000  0.96090000  1.0
  H  H7  1  0.80290000  0.70760000  0.77690000  1.0
  H  H8  1  0.27060000  0.22770000  0.62420000  1.0
  H  H9  1  0.17680000  0.10160000  0.43450000  1.0
  H  H10  1  0.84700000  0.27440000  0.38320000  1.0
  H  H11  1  0.93360000  0.39360000  0.57920000  1.0
  H  H12  1  0.92320000  0.85950000  0.16270000  1.0
  H  H13  1  0.32190000  0.00360000  0.03910000  1.0
  H  H14  1  0.19710000  0.29240000  0.22310000  1.0
  C  C1  1  0.82390000  0.58700000  0.25300000  1.0
  C  C2  1  0.88300000  0.66980000  0.37410000  1.0
  C  C3  1  0.81490000  0.76240000  0.42330000  1.0
  C  C4  1  0.86940000  0.83690000  0.53670000  1.0
  C  C5  1  0.99530000  0.82100000  0.61020000  1.0
  C  C6  1  0.06840000  0.73490000  0.56760000  1.0
  C  C7  1  0.01460000  0.66220000  0.45040000  1.0
  C  C8  1  0.95070000  0.92220000  0.79350000  1.0
  C  C9  1  0.98570000  0.06400000  0.84560000  1.0
  C  C10  1  0.88440000  0.09290000  0.91060000  1.0
  C  C11  1  0.74950000  0.97690000  0.92110000  1.0
  C  C12  1  0.71890000  0.83200000  0.87320000  1.0
  C  C13  1  0.82100000  0.80410000  0.80910000  1.0
  C  C14  1  0.91850000  0.24580000  0.96640000  1.0
  C  C15  1  0.58310000  0.70850000  0.89680000  1.0
  C  C16  1  0.17610000  0.41300000  0.74700000  1.0
  C  C17  1  0.11700000  0.33020000  0.62590000  1.0
  C  C18  1  0.18510000  0.23760000  0.57670000  1.0
  C  C19  1  0.13060000  0.16310000  0.46330000  1.0
  C  C20  1  0.00470000  0.17900000  0.38980000  1.0
  C  C21  1  0.93160000  0.26510000  0.43240000  1.0
  C  C22  1  0.98540000  0.33780000  0.54960000  1.0
  C  C23  1  0.04930000  0.07780000  0.20650000  1.0
  C  C24  1  0.01430000  0.93600000  0.15440000  1.0
  C  C25  1  0.11560000  0.90710000  0.08940000  1.0
  C  C26  1  0.25050000  0.02310000  0.07890000  1.0
  C  C27  1  0.28110000  0.16800000  0.12680000  1.0
  C  C28  1  0.17900000  0.19590000  0.19090000  1.0
  C  C29  1  0.08150000  0.75420000  0.03360000  1.0
  C  C30  1  0.41690000  0.29150000  0.10320000  1.0
  O  O1  1  0.87780000  0.49480000  0.21670000  1.0
  O  O2  1  0.71980000  0.61150000  0.18260000  1.0
  O  O3  1  0.45240000  0.72260000  0.89390000  1.0
  O  O4  1  0.60020000  0.59060000  0.92190000  1.0
  O  O5  1  0.81020000  0.26870000  0.00900000  1.0
  O  O6  1  0.05030000  0.34470000  0.97070000  1.0
  O  O7  1  0.05650000  0.89560000  0.72730000  1.0
  O  O8  1  0.12220000  0.50520000  0.78330000  1.0
  O  O9  1  0.28020000  0.38850000  0.81740000  1.0
  O  O10  1  0.54760000  0.27740000  0.10610000  1.0
  O  O11  1  0.39980000  0.40940000  0.07810000  1.0
  O  O12  1  0.18980000  0.73130000  0.99100000  1.0
  O  O13  1  0.94970000  0.65530000  0.02930000  1.0
  O  O14  1  0.94350000  0.10440000  0.27270000  1.0
