# generated using pymatgen
data_Zn2H32C36N6O19
_symmetry_space_group_name_H-M   'P 1'
_cell_length_a   9.94504000
_cell_length_b   10.66322000
_cell_length_c   13.24883000
_cell_angle_alpha   90.30908000
_cell_angle_beta   109.22614000
_cell_angle_gamma   92.12896000
_symmetry_Int_Tables_number   1
_chemical_formula_structural   Zn2H32C36N6O19
_chemical_formula_sum   'Zn2 H32 C36 N6 O19'
_cell_volume   1325.47889849
_cell_formula_units_Z   1
loop_
 _symmetry_equiv_pos_site_id
 _symmetry_equiv_pos_as_xyz
  1  'x, y, z'
loop_
 _atom_site_type_symbol
 _atom_site_label
 _atom_site_symmetry_multiplicity
 _atom_site_fract_x
 _atom_site_fract_y
 _atom_site_fract_z
 _atom_site_occupancy
  Zn  Zn0  1  0.34687000  0.50002000  0.50001000  1
  Zn  Zn1  1  0.65313000  0.49998000  0.49999000  1
  H  H2  1  0.85152000  0.51668000  0.84512000  1
  H  H3  1  0.37503000  0.86485000  0.28760000  1
  H  H4  1  0.20274000  0.85822000  0.31409000  1
  H  H5  1  0.04111000  0.25861000  0.33983000  1
  H  H6  1  0.69669000  0.12976000  0.63604000  1
  H  H7  1  0.69948000  0.80378000  0.67614000  1
  H  H8  1  0.49378000  0.09161000  0.29207000  1
  H  H9  1  0.39382000  0.14807000  0.11020000  1
  H  H10  1  0.21737000  0.13041000  0.11889000  1
  H  H11  1  0.32093000  0.99374000  0.12349000  1
  H  H12  1  0.11125000  0.04982000  0.33530000  1
  H  H13  1  0.83755000  0.64744000  0.63254000  1
  H  H14  1  0.14692000  0.75781000  0.62034000  1
  H  H15  1  0.13032000  0.26331000  0.57274000  1
  H  H16  1  0.68511000  0.26501000  0.32573000  1
  H  H17  1  0.86279000  0.66516000  0.27849000  1
  H  H18  1  0.86149000  0.13210000  0.49505000  1
  H  H19  1  0.98822000  0.54220000  0.12979000  1
  H  H20  1  0.14088000  0.68752000  0.08139000  1
  H  H21  1  0.97689000  0.76672000  0.06075000  1
  H  H22  1  0.01435000  0.69562000  0.94861000  1
  H  H23  1  0.31717000  0.57180000  0.76218000  1
  H  H24  1  0.33064000  0.79807000  0.79372000  1
  H  H25  1  0.47035000  0.75932000  0.74062000  1
  H  H26  1  0.50984000  0.78652000  0.88297000  1
  H  H27  1  0.08642000  0.32724000  0.13384000  1
  H  H28  1  0.21052000  0.37553000  0.82229000  1
  H  H29  1  0.13254000  0.25172000  0.91869000  1
  H  H30  1  0.68182000  0.70120000  0.32841000  1
  H  H31  1  0.60107000  0.90264000  0.27861000  1
  H  H32  1  0.50133000  0.84443000  0.14516000  1
  H  H33  1  0.69421000  0.85651000  0.19054000  1
  C  C34  1  0.49717000  0.26035000  0.49835000  1
  C  C35  1  0.45414000  0.49494000  0.02330000  1
  C  C36  1  0.47718000  0.53708000  0.12824000  1
  C  C37  1  0.56048000  0.52451000  0.97751000  1
  C  C38  1  0.70205000  0.55647000  0.04122000  1
  C  C39  1  0.72343000  0.60525000  0.14455000  1
  C  C40  1  0.60358000  0.61290000  0.17968000  1
  C  C41  1  0.52363000  0.54308000  0.86903000  1
  C  C42  1  0.77014000  0.52745000  0.88203000  1
  C  C43  1  0.37800000  0.49775000  0.17972000  1
  C  C44  1  0.37810000  0.05639000  0.44346000  1
  C  C45  1  0.42227000  0.50356000  0.29656000  1
  C  C46  1  0.49588000  0.12851000  0.50576000  1
  C  C47  1  0.61050000  0.07264000  0.58157000  1
  C  C48  1  0.61503000  0.94285000  0.58655000  1
  C  C49  1  0.50514000  0.87143000  0.51061000  1
  C  C50  1  0.38423000  0.92845000  0.44607000  1
  C  C51  1  0.30808000  0.90784000  0.32942000  1
  C  C52  1  0.30270000  0.05042000  0.32381000  1
  C  C53  1  0.89602000  0.42327000  0.43159000  1
  C  C54  1  0.95718000  0.58956000  0.55576000  1
  C  C55  1  0.09963000  0.59274000  0.55134000  1
  C  C56  1  0.50318000  0.73935000  0.50347000  1
  C  C57  1  0.03750000  0.42344000  0.43185000  1
  C  C58  1  0.03312000  0.28436000  0.41843000  1
  C  C59  1  0.88029000  0.28318000  0.42017000  1
  C  C60  1  0.57868000  0.50719000  0.70331000  1
  C  C61  1  0.81027000  0.55345000  0.99236000  1
  C  C62  1  0.62583000  0.52540000  0.81919000  1
  C  C63  1  0.25381000  0.42485000  0.12430000  1
  C  C64  1  0.22795000  0.38833000  0.01723000  1
  C  C65  1  0.32883000  0.42169000  0.96682000  1
  C  C66  1  0.32621000  0.09391000  0.14804000  1
  C  C67  1  0.02545000  0.68600000  0.03440000  1
  C  C68  1  0.42988000  0.74633000  0.80880000  1
  C  C69  1  0.59942000  0.83427000  0.21489000  1
  N  N70  1  0.85694000  0.49914000  0.49929000  1
  N  N71  1  0.14258000  0.49918000  0.49929000  1
  N  N72  1  0.38633000  0.10782000  0.26312000  1
  N  N73  1  0.95804000  0.56914000  0.05139000  1
  N  N74  1  0.40088000  0.61440000  0.82153000  1
  N  N75  1  0.60303000  0.70827000  0.25545000  1
  O  O76  1  0.38531000  0.31679000  0.50001000  1
  O  O77  1  0.61465000  0.31676000  0.50000000  1
  O  O78  1  0.32839000  0.50006000  0.34639000  1
  O  O79  1  0.55773000  0.50002000  0.34638000  1
  O  O80  1  0.38535000  0.68324000  0.50000000  1
  O  O81  1  0.61469000  0.68321000  0.49999000  1
  O  O82  1  0.44227000  0.49998000  0.65362000  1
  O  O83  1  0.67161000  0.49994000  0.65361000  1
  O  O84  1  0.72701000  0.89125000  0.66449000  1
  O  O85  1  0.16350000  0.09365000  0.29258000  1
  O  O86  1  0.92488000  0.67719000  0.61976000  1
  O  O87  1  0.19631000  0.68895000  0.59876000  1
  O  O88  1  0.12864000  0.22235000  0.50477000  1
  O  O89  1  0.77952000  0.24227000  0.32269000  1
  O  O90  1  0.85284000  0.66318000  0.20173000  1
  O  O91  1  0.86196000  0.22363000  0.50924000  1
  O  O92  1  0.16807000  0.37875000  0.18079000  1
  O  O93  1  0.31274000  0.37443000  0.86604000  1
  O  O94  1  0.10890000  0.31210000  0.96672000  1
