# generated using pymatgen
data_H7(C4N)3
_symmetry_space_group_name_H-M   'P 1'
_cell_length_a   11.03820000
_cell_length_b   48.94490000
_cell_length_c   48.94490000
_cell_angle_alpha   90.00000000
_cell_angle_beta   90.00000000
_cell_angle_gamma   90.00000000
_symmetry_Int_Tables_number   1
_chemical_formula_structural   H7(C4N)3
_chemical_formula_sum   'H84 C144 N36'
_cell_volume   26443.14763973
_cell_formula_units_Z   12
loop_
 _symmetry_equiv_pos_site_id
 _symmetry_equiv_pos_as_xyz
  1  'x, y, z'
loop_
 _atom_site_type_symbol
 _atom_site_label
 _atom_site_symmetry_multiplicity
 _atom_site_fract_x
 _atom_site_fract_y
 _atom_site_fract_z
 _atom_site_occupancy
  C  1  1  0.90741200  0.32763400  0.27404500  1
  C  3  1  0.11850300  0.33420000  0.26879200  1
  C  5  1  0.98065700  0.36093200  0.24293000  1
  C  7  1  0.95370200  0.38223400  0.22554100  1
  C  8  1  0.81382700  0.31393400  0.28764800  1
  C  9  1  0.23746800  0.32742100  0.27617800  1
  C  13  1  0.90742100  0.71481400  0.70990400  1
  C  15  1  0.11850800  0.70824300  0.71514700  1
  C  17  1  0.98067500  0.68150700  0.74100800  1
  C  19  1  0.95373200  0.66019900  0.75838900  1
  C  20  1  0.81383500  0.72851100  0.69629700  1
  C  21  1  0.23747300  0.71502200  0.70776100  1
  C  25  1  0.40742000  0.73913700  0.29838200  1
  C  27  1  0.61851400  0.74438800  0.30494500  1
  C  29  1  0.48067800  0.77024500  0.33168500  1
  C  31  1  0.45373900  0.78762600  0.35299300  1
  C  32  1  0.31383500  0.72553400  0.28468100  1
  C  33  1  0.73748200  0.73700200  0.29816400  1
  C  37  1  0.40739300  0.30328200  0.68555800  1
  C  39  1  0.61848600  0.29803700  0.67898600  1
  C  41  1  0.48064500  0.27217700  0.65224900  1
  C  43  1  0.45368600  0.25479500  0.63094400  1
  C  44  1  0.31381200  0.31688700  0.69925700  1
  C  45  1  0.73745400  0.30542300  0.68576500  1
  C  49  1  0.09695700  0.71581700  0.27707100  1
  C  51  1  0.88579200  0.70903400  0.27229200  1
  C  53  1  0.02331300  0.68053200  0.24829900  1
  C  55  1  0.04954400  0.65844000  0.23187700  1
  C  56  1  0.19060000  0.73052900  0.28954800  1
  C  57  1  0.76686100  0.71644600  0.27906300  1
  C  61  1  0.09693300  0.32660000  0.70687200  1
  C  63  1  0.88576500  0.33338900  0.71164100  1
  C  65  1  0.02328000  0.36189000  0.73563300  1
  C  67  1  0.04949900  0.38398900  0.75204900  1
  C  68  1  0.19057300  0.31189100  0.69439300  1
  C  69  1  0.76683400  0.32597700  0.70486600  1
  C  73  1  0.59694800  0.30632400  0.29736500  1
  C  75  1  0.38577800  0.30154900  0.30414800  1
  C  77  1  0.52329700  0.27755700  0.33265100  1
  C  79  1  0.54952700  0.26113600  0.35474400  1
  C  80  1  0.69059000  0.31879900  0.28265200  1
  C  81  1  0.26685300  0.30832000  0.29673300  1
  C  85  1  0.59695400  0.73612100  0.68658000  1
  C  87  1  0.38578600  0.74089200  0.67978800  1
  C  89  1  0.52330700  0.76488000  0.65128500  1
  C  91  1  0.54953500  0.78129600  0.62918700  1
  C  92  1  0.69059800  0.72364600  0.70129200  1
  C  93  1  0.26685500  0.73411900  0.68720300  1
  C  97  1  0.99799700  0.52473100  0.08539600  1
  C  98  1  0.99124700  0.57167100  0.17504000  1
  C  99  1  0.00659400  0.47099500  0.17144000  1
  C  100  1  0.07161400  0.57607000  0.19713700  1
  C  101  1  0.06525500  0.60008300  0.21285100  1
  C  102  1  0.97838000  0.62046300  0.20689400  1
  C  103  1  0.89659700  0.61597200  0.18523200  1
  C  104  1  0.90384000  0.59206300  0.16931200  1
  C  105  1  0.92504600  0.54403800  0.07138200  1
  C  106  1  0.92597000  0.54585000  0.04269700  1
  C  107  1  0.99760100  0.52791800  0.02703700  1
  C  108  1  0.07042600  0.50849600  0.04066200  1
  C  109  1  0.07080600  0.50702700  0.06938800  1
  C  110  1  0.09495900  0.45103500  0.16498200  1
  C  111  1  0.10309400  0.42655300  0.18002300  1
  C  112  1  0.02098900  0.42102000  0.20139100  1
  C  113  1  0.93230600  0.44083800  0.20784200  1
  C  114  1  0.92508500  0.46539900  0.19304800  1
  C  126  1  0.00327300  0.49663800  0.15755800  1
  C  127  1  0.00322400  0.49813300  0.12869400  1
  C  128  1  0.99920500  0.52346800  0.11468300  1
  C  129  1  0.99616100  0.54765600  0.13058600  1
  C  130  1  0.99605000  0.54703700  0.15945900  1
  C  131  1  0.99987867  0.52132100  0.17254700  1
  C  139  1  0.99794300  0.51770400  0.89852000  1
  C  140  1  0.99119900  0.47076000  0.80887600  1
  C  141  1  0.00663000  0.57143400  0.81247200  1
  C  142  1  0.07155900  0.46635900  0.78677800  1
  C  143  1  0.06518200  0.44235000  0.77106200  1
  C  144  1  0.97825100  0.42197800  0.77701200  1
  C  145  1  0.89652100  0.42646300  0.79868300  1
  C  146  1  0.90374200  0.45037400  0.81459700  1
  C  147  1  0.92500400  0.49839500  0.91253600  1
  C  148  1  0.92592800  0.49658700  0.94122100  1
  C  149  1  0.99758600  0.51451500  0.95687900  1
  C  150  1  0.07040900  0.53393300  0.94325200  1
  C  151  1  0.07071600  0.53541600  0.91452800  1
  C  152  1  0.09501400  0.59138900  0.81892600  1
  C  153  1  0.10314900  0.61587600  0.80389500  1
  C  154  1  0.02113800  0.62139600  0.78250600  1
  C  155  1  0.93242600  0.60158400  0.77605400  1
  C  156  1  0.92516600  0.57702800  0.79085200  1
  C  168  1  0.00325000  0.54579300  0.82635700  1
  C  169  1  0.00313200  0.54429900  0.85522000  1
  C  170  1  0.99914600  0.51896500  0.86923400  1
  C  171  1  0.99610200  0.49477600  0.85333000  1
  C  172  1  0.99601100  0.49539300  0.82445900  1
  C  173  1  0.99986767  0.52110800  0.81136900  1
  C  181  1  0.49799400  0.92777700  0.49547900  1
  C  182  1  0.49119200  0.83813200  0.54242000  1
  C  183  1  0.50660600  0.84173000  0.44174500  1
  C  184  1  0.57158500  0.81604000  0.54682100  1
  C  185  1  0.56523900  0.80032200  0.57083100  1
  C  186  1  0.47830900  0.80626700  0.59120300  1
  C  187  1  0.39654700  0.82793500  0.58672100  1
  C  188  1  0.40379600  0.84386100  0.56281800  1
  C  189  1  0.42505400  0.94179500  0.51478700  1
  C  190  1  0.42599100  0.97048000  0.51659500  1
  C  191  1  0.49765100  0.98613700  0.49866500  1
  C  192  1  0.57052700  0.97250700  0.47925700  1
  C  193  1  0.57082400  0.94378100  0.47777800  1
  C  194  1  0.59501200  0.84818000  0.42179400  1
  C  195  1  0.60313000  0.83314900  0.39730600  1
  C  196  1  0.52112400  0.81175700  0.39178700  1
  C  197  1  0.43238900  0.80531300  0.41159700  1
  C  198  1  0.42511200  0.82012000  0.43614900  1
  C  210  1  0.50324200  0.85561500  0.46738900  1
  C  211  1  0.50324200  0.88447800  0.46888200  1
  C  212  1  0.49916000  0.89848900  0.49421700  1
  C  213  1  0.49601200  0.88258800  0.51840500  1
  C  214  1  0.49598600  0.85371500  0.51778800  1
  C  215  1  0.49977600  0.84062600  0.49207100  1
  C  223  1  0.49800300  0.11465000  0.48844900  1
  C  224  1  0.49122800  0.20429500  0.44151000  1
  C  225  1  0.50657000  0.20069500  0.54218700  1
  C  226  1  0.57159000  0.22639300  0.43711200  1
  C  227  1  0.56523300  0.24210900  0.41310100  1
  C  228  1  0.47835500  0.23615100  0.39272100  1
  C  229  1  0.39656600  0.21449200  0.39721200  1
  C  230  1  0.40381400  0.19856900  0.42111800  1
  C  231  1  0.42505400  0.10063600  0.46913900  1
  C  232  1  0.42597400  0.07195000  0.46733100  1
  C  233  1  0.49767700  0.05629200  0.48525100  1
  C  234  1  0.57051800  0.06991800  0.50466700  1
  C  235  1  0.57080600  0.09864300  0.50615500  1
  C  236  1  0.59491400  0.19423200  0.56214800  1
  C  237  1  0.60307600  0.20927600  0.58662900  1
  C  238  1  0.52106300  0.23066500  0.59214700  1
  C  239  1  0.43231400  0.23710500  0.57233900  1
  C  240  1  0.42507600  0.22230700  0.54778300  1
  C  252  1  0.50324300  0.18681200  0.51654400  1
  C  253  1  0.50324300  0.15794900  0.51504800  1
  C  254  1  0.49918400  0.14393800  0.48971200  1
  C  255  1  0.49610300  0.15984200  0.46552500  1
  C  256  1  0.49602900  0.18871400  0.46614400  1
  C  257  1  0.49978900  0.20180100  0.49186100  1
  H  10  1  0.30595400  0.33744900  0.26627100  1
  H  11  1  0.83742000  0.29989400  0.30222900  1
  H  12  1  0.86690600  0.38593200  0.22135300  1
  H  22  1  0.30596200  0.70499200  0.71766600  1
  H  23  1  0.83742900  0.74255100  0.68171700  1
  H  24  1  0.86695000  0.65648900  0.76257900  1
  H  34  1  0.80596800  0.74690700  0.30819300  1
  H  35  1  0.33743100  0.71095600  0.27063900  1
  H  36  1  0.36695200  0.79181400  0.35669700  1
  H  46  1  0.80594000  0.29551800  0.67573500  1
  H  47  1  0.33740800  0.33146400  0.71329800  1
  H  48  1  0.36690500  0.25060000  0.62723800  1
  H  58  1  0.69834900  0.70583400  0.26979700  1
  H  59  1  0.16702600  0.74554200  0.30312400  1
  H  60  1  0.13622400  0.65403500  0.22831800  1
  H  70  1  0.69832200  0.33659300  0.71413100  1
  H  71  1  0.16699900  0.29687700  0.68081800  1
  H  72  1  0.13617000  0.38840000  0.75560600  1
  H  82  1  0.19833700  0.29905400  0.30735000  1
  H  83  1  0.66701800  0.33237600  0.26763800  1
  H  84  1  0.63620400  0.25757500  0.35914900  1
  H  94  1  0.19834600  0.74338400  0.67658700  1
  H  95  1  0.66701900  0.71007200  0.71630700  1
  H  96  1  0.63620500  0.78485100  0.62477600  1
  H  115  1  0.83141900  0.63017800  0.18081100  1
  H  116  1  0.84230800  0.58935400  0.15390500  1
  H  117  1  0.12363100  0.60243400  0.22891200  1
  H  118  1  0.12730900  0.49319900  0.07851400  1
  H  119  1  0.86922800  0.55695900  0.08193900  1
  H  120  1  0.87243100  0.56011100  0.03329200  1
  H  121  1  0.12543400  0.49568800  0.02975200  1
  H  122  1  0.15751000  0.45465000  0.14997700  1
  H  123  1  0.87402600  0.43780400  0.22380900  1
  H  124  1  0.85994800  0.47929600  0.19837900  1
  H  125  1  0.16998000  0.41283100  0.17538400  1
  H  132  1  0.99754400  0.56624500  0.12099400  1
  H  133  1  0.00173800  0.48032600  0.11772400  1
  H  134  1  0.99970700  0.52055900  0.19346300  1
  H  135  1  0.13626000  0.56186200  0.20191600  1
  H  157  1  0.83135500  0.41225500  0.80310900  1
  H  158  1  0.84228200  0.45307700  0.83002100  1
  H  159  1  0.12358700  0.43999000  0.75501000  1
  H  160  1  0.12730100  0.54922500  0.90539900  1
  H  161  1  0.86916200  0.48547800  0.90198100  1
  H  162  1  0.87239100  0.48232600  0.95062800  1
  H  163  1  0.12545200  0.54673500  0.95416000  1
  H  164  1  0.15742300  0.58778900  0.83396600  1
  H  165  1  0.87416200  0.60462000  0.76008500  1
  H  166  1  0.86001200  0.56313500  0.78552200  1
  H  167  1  0.16996400  0.62960800  0.80855400  1
  H  174  1  0.99748100  0.47618800  0.86292500  1
  H  175  1  0.00172400  0.56210700  0.86619200  1
  H  176  1  0.99972500  0.52186800  0.79045400  1
  H  177  1  0.13626000  0.48056000  0.78201200  1
  H  199  1  0.33136500  0.83235000  0.60092600  1
  H  200  1  0.34224100  0.85926200  0.56010300  1
  H  201  1  0.62363300  0.78426700  0.57318300  1
  H  202  1  0.62734600  0.93465000  0.46395600  1
  H  203  1  0.36918300  0.93124500  0.52770100  1
  H  204  1  0.37244100  0.97989100  0.53085000  1
  H  205  1  0.62552500  0.98341300  0.46644500  1
  H  206  1  0.65744300  0.86321300  0.42539400  1
  H  207  1  0.37412400  0.78934400  0.40856500  1
  H  208  1  0.35997000  0.81478700  0.45004700  1
  H  209  1  0.66998800  0.83779500  0.38358200  1
  H  216  1  0.49748800  0.89218000  0.53699300  1
  H  217  1  0.50173500  0.89544900  0.45107600  1
  H  218  1  0.49968200  0.81971100  0.49131100  1
  H  219  1  0.63625200  0.81126700  0.53261300  1
  H  241  1  0.33140300  0.21006900  0.38300400  1
  H  242  1  0.34229100  0.18316100  0.42382700  1
  H  243  1  0.62360500  0.25817000  0.41074900  1
  H  244  1  0.62730900  0.10777200  0.51998000  1
  H  245  1  0.36921400  0.11119100  0.45622300  1
  H  246  1  0.37244200  0.06254500  0.45307000  1
  H  247  1  0.62546200  0.05900900  0.51749000  1
  H  248  1  0.65744100  0.17922000  0.55853800  1
  H  249  1  0.37408000  0.25308000  0.57536700  1
  H  250  1  0.35995200  0.22764200  0.53388200  1
  H  251  1  0.66995300  0.20463600  0.60035000  1
  H  258  1  0.49752800  0.15024800  0.44693700  1
  H  259  1  0.50170500  0.14697600  0.53285400  1
  H  260  1  0.49967600  0.22271800  0.49262300  1
  H  261  1  0.63623300  0.23117200  0.45132200  1
  N  2  1  0.02310800  0.32136700  0.28060700  1
  N  4  1  0.09609000  0.35409800  0.25001600  1
  N  6  1  0.88766900  0.34757400  0.25526900  1
  N  14  1  0.02310900  0.72108000  0.70333500  1
  N  16  1  0.09610000  0.68834300  0.73392100  1
  N  18  1  0.88768200  0.69486900  0.72867400  1
  N  26  1  0.52311600  0.73257400  0.29211200  1
  N  28  1  0.59610900  0.76316000  0.32484700  1
  N  30  1  0.38768800  0.75790700  0.31832500  1
  N  38  1  0.52308900  0.30984800  0.69182200  1
  N  40  1  0.59607400  0.27926300  0.65908400  1
  N  42  1  0.38765300  0.28451200  0.66561100  1
  N  50  1  0.98133800  0.72257100  0.28321600  1
  N  52  1  0.90797900  0.68794300  0.25486000  1
  N  54  1  0.11652000  0.69466000  0.25966100  1
  N  62  1  0.98131700  0.31984900  0.70072200  1
  N  64  1  0.90794600  0.35448200  0.72907000  1
  N  66  1  0.11648600  0.34776000  0.72427700  1
  N  74  1  0.48132800  0.31247200  0.29061000  1
  N  76  1  0.40796200  0.28411700  0.32524100  1
  N  78  1  0.61650200  0.28891700  0.31852100  1
  N  86  1  0.48133600  0.72997300  0.69333200  1
  N  88  1  0.40797100  0.75832000  0.65869500  1
  N  90  1  0.61651100  0.75352400  0.66541700  1
  N  136  1  0.03552500  0.39851900  0.21632700  1
  N  137  1  0.99698600  0.53069000  0.00015500  1
  N  138  1  0.96638900  0.64299400  0.22187400  1
  N  178  1  0.03558400  0.64391100  0.76758700  1
  N  179  1  0.99700700  0.51173800  0.98376100  1
  N  180  1  0.96632300  0.39943700  0.76204200  1
  N  220  1  0.53558300  0.79683200  0.36927800  1
  N  221  1  0.49709800  0.01301700  0.50143900  1
  N  222  1  0.46636000  0.79129300  0.61374100  1
  N  262  1  0.53552900  0.24559200  0.61465600  1
  N  263  1  0.49702700  0.02940900  0.48248500  1
  N  264  1  0.46636800  0.25113300  0.37019000  1
