# generated using pymatgen
data_Cu3H2C10(NO2)4
_symmetry_space_group_name_H-M   'P 1'
_cell_length_a   15.94631000
_cell_length_b   15.95017000
_cell_length_c   19.31696810
_cell_angle_alpha   113.84922794
_cell_angle_beta   114.24944327
_cell_angle_gamma   90.57803000
_symmetry_Int_Tables_number   1
_chemical_formula_structural   Cu3H2C10(NO2)4
_chemical_formula_sum   'Cu24 H16 C80 N32 O64'
_cell_volume   4004.72898757
_cell_formula_units_Z   8
loop_
 _symmetry_equiv_pos_site_id
 _symmetry_equiv_pos_as_xyz
  1  'x, y, z'
loop_
 _atom_site_type_symbol
 _atom_site_label
 _atom_site_symmetry_multiplicity
 _atom_site_fract_x
 _atom_site_fract_y
 _atom_site_fract_z
 _atom_site_occupancy
  Cu  Cu0  1  0.50445000  0.99039000  0.72234000  1
  Cu  Cu1  1  0.21669000  0.23090000  0.72198000  1
  Cu  Cu2  1  0.99617000  0.26954000  0.27828000  1
  Cu  Cu3  1  0.28361000  0.51061000  0.27870000  1
  Cu  Cu4  1  0.50876000  0.28195000  0.77818000  1
  Cu  Cu5  1  0.26868000  0.99591000  0.77961000  1
  Cu  Cu6  1  0.99088000  0.50465000  0.22129000  1
  Cu  Cu7  1  0.23190000  0.21805000  0.22240000  1
  Cu  Cu8  1  0.41300000  0.75055000  0.50063000  1
  Cu  Cu9  1  0.08765000  0.24985000  0.50016000  1
  Cu  Cu10  1  0.75040000  0.41247000  0.99985000  1
  Cu  Cu11  1  0.25047000  0.08779000  0.00098000  1
  Cu  Cu12  1  0.49124000  0.71804000  0.22182000  1
  Cu  Cu13  1  0.73132000  0.00409000  0.22039000  1
  Cu  Cu14  1  0.00912000  0.49535000  0.77871000  1
  Cu  Cu15  1  0.76810000  0.78195000  0.77760000  1
  Cu  Cu16  1  0.49555000  0.00961000  0.27767000  1
  Cu  Cu17  1  0.78331000  0.76911000  0.27803000  1
  Cu  Cu18  1  0.00383000  0.73045000  0.72172000  1
  Cu  Cu19  1  0.71639000  0.48938000  0.72130000  1
  Cu  Cu20  1  0.24960000  0.58753000  0.00015000  1
  Cu  Cu21  1  0.74954000  0.91221000  0.99902000  1
  Cu  Cu22  1  0.58700000  0.24944000  0.49937000  1
  Cu  Cu23  1  0.91236000  0.75015000  0.49984000  1
  H  H24  1  0.37661000  0.04048000  0.46155000  1
  H  H25  1  0.08591000  0.92167000  0.46208000  1
  H  H26  1  0.12229000  0.57852000  0.53848000  1
  H  H27  1  0.41423000  0.45987000  0.53925000  1
  H  H28  1  0.46021000  0.41649000  0.03870000  1
  H  H29  1  0.57951000  0.12537000  0.03942000  1
  H  H30  1  0.04040000  0.37547000  0.96125000  1
  H  H31  1  0.92158000  0.08481000  0.96168000  1
  H  H32  1  0.53979000  0.58351000  0.96130000  1
  H  H33  1  0.42049000  0.87462000  0.96058000  1
  H  H34  1  0.95959000  0.62452000  0.03875000  1
  H  H35  1  0.07842000  0.91519000  0.03832000  1
  H  H36  1  0.62339000  0.95951000  0.53845000  1
  H  H37  1  0.91409000  0.07833000  0.53793000  1
  H  H38  1  0.87771000  0.42148000  0.46152000  1
  H  H39  1  0.58577000  0.54013000  0.46075000  1
  C  C40  1  0.47508000  0.12504000  0.66040000  1
  C  C41  1  0.44219000  0.03430000  0.58607000  1
  C  C42  1  0.39763000  0.00069000  0.49766000  1
  C  C43  1  0.38802000  0.90329000  0.46643000  1
  C  C44  1  0.35466000  0.82085000  0.38082000  1
  C  C45  1  0.18439000  0.03505000  0.66097000  1
  C  C46  1  0.14323000  0.05146000  0.58623000  1
  C  C47  1  0.10033000  0.99720000  0.49788000  1
  C  C48  1  0.07840000  0.06335000  0.46621000  1
  C  C49  1  0.02694000  0.06088000  0.38034000  1
  C  C50  1  0.02447000  0.46525000  0.33974000  1
  C  C51  1  0.05779000  0.44860000  0.41435000  1
  C  C52  1  0.10209000  0.50287000  0.50270000  1
  C  C53  1  0.11220000  0.43652000  0.53431000  1
  C  C54  1  0.14545000  0.43855000  0.62000000  1
  C  C55  1  0.31526000  0.37569000  0.34052000  1
  C  C56  1  0.35690000  0.46641000  0.41497000  1
  C  C57  1  0.40017000  0.49994000  0.50336000  1
  C  C58  1  0.42258000  0.59742000  0.53459000  1
  C  C59  1  0.47405000  0.68000000  0.62027000  1
  C  C60  1  0.37484000  0.31526000  0.84010000  1
  C  C61  1  0.46609000  0.35667000  0.91450000  1
  C  C62  1  0.50011000  0.40078000  0.00285000  1
  C  C63  1  0.59796000  0.42225000  0.03427000  1
  C  C64  1  0.68130000  0.47479000  0.11994000  1
  C  C65  1  0.46500000  0.02544000  0.84077000  1
  C  C66  1  0.44890000  0.05816000  0.91543000  1
  C  C67  1  0.50365000  0.10355000  0.00381000  1
  C  C68  1  0.43746000  0.11259000  0.03528000  1
  C  C69  1  0.44034000  0.14664000  0.12103000  1
  C  C70  1  0.12573000  0.47577000  0.16019000  1
  C  C71  1  0.03468000  0.44225000  0.08548000  1
  C  C72  1  0.00061000  0.39693000  0.99710000  1
  C  C73  1  0.90284000  0.38744000  0.96562000  1
  C  C74  1  0.81973000  0.35374000  0.87981000  1
  C  C75  1  0.03543000  0.18528000  0.16044000  1
  C  C76  1  0.05204000  0.14368000  0.08614000  1
  C  C77  1  0.99743000  0.09989000  0.99773000  1
  C  C78  1  0.06374000  0.07826000  0.96653000  1
  C  C79  1  0.06084000  0.02574000  0.88096000  1
  C  C80  1  0.62516000  0.68474000  0.15990000  1
  C  C81  1  0.53391000  0.64332000  0.08550000  1
  C  C82  1  0.49989000  0.59922000  0.99715000  1
  C  C83  1  0.40204000  0.57775000  0.96573000  1
  C  C84  1  0.31869000  0.52522000  0.88007000  1
  C  C85  1  0.53500000  0.97456000  0.15923000  1
  C  C86  1  0.55110000  0.94184000  0.08457000  1
  C  C87  1  0.49635000  0.89644000  0.99619000  1
  C  C88  1  0.56254000  0.88740000  0.96472000  1
  C  C89  1  0.55966000  0.85335000  0.87897000  1
  C  C90  1  0.87427000  0.52423000  0.83981000  1
  C  C91  1  0.96532000  0.55775000  0.91452000  1
  C  C92  1  0.99939000  0.60307000  0.00290000  1
  C  C93  1  0.09715000  0.61257000  0.03439000  1
  C  C94  1  0.18027000  0.64626000  0.12020000  1
  C  C95  1  0.96457000  0.81472000  0.83956000  1
  C  C96  1  0.94796000  0.85632000  0.91386000  1
  C  C97  1  0.00257000  0.90011000  0.00227000  1
  C  C98  1  0.93626000  0.92174000  0.03347000  1
  C  C99  1  0.93916000  0.97425000  0.11904000  1
  C  C100  1  0.52492000  0.87496000  0.33960000  1
  C  C101  1  0.55781000  0.96570000  0.41394000  1
  C  C102  1  0.60237000  0.99930000  0.50234000  1
  C  C103  1  0.61198000  0.09670000  0.53357000  1
  C  C104  1  0.64534000  0.17915000  0.61919000  1
  C  C105  1  0.81561000  0.96495000  0.33903000  1
  C  C106  1  0.85677000  0.94855000  0.41378000  1
  C  C107  1  0.89967000  0.00280000  0.50212000  1
  C  C108  1  0.92161000  0.93665000  0.53380000  1
  C  C109  1  0.97307000  0.93912000  0.61967000  1
  C  C110  1  0.97553000  0.53475000  0.66026000  1
  C  C111  1  0.94221000  0.55139000  0.58565000  1
  C  C112  1  0.89791000  0.49713000  0.49730000  1
  C  C113  1  0.88780000  0.56348000  0.46569000  1
  C  C114  1  0.85456000  0.56145000  0.38000000  1
  C  C115  1  0.68474000  0.62431000  0.65948000  1
  C  C116  1  0.64310000  0.53360000  0.58504000  1
  C  C117  1  0.59983000  0.50006000  0.49665000  1
  C  C118  1  0.57742000  0.40258000  0.46541000  1
  C  C119  1  0.52596000  0.31999000  0.37973000  1
  N  N120  1  0.45758000  0.96026000  0.60533000  1
  N  N121  1  0.42435000  0.88184000  0.53288000  1
  N  N122  1  0.14647000  0.14439000  0.60506000  1
  N  N123  1  0.10752000  0.15063000  0.53240000  1
  N  N124  1  0.04307000  0.35545000  0.39538000  1
  N  N125  1  0.07646000  0.34912000  0.46801000  1
  N  N126  1  0.35386000  0.54055000  0.39574000  1
  N  N127  1  0.39343000  0.61899000  0.46822000  1
  N  N128  1  0.54017000  0.35249000  0.89532000  1
  N  N129  1  0.61907000  0.39164000  0.96790000  1
  N  N130  1  0.35571000  0.04192000  0.89643000  1
  N  N131  1  0.34976000  0.07525000  0.96901000  1
  N  N132  1  0.96065000  0.45807000  0.10446000  1
  N  N133  1  0.88180000  0.42443000  0.03188000  1
  N  N134  1  0.14528000  0.14740000  0.10545000  1
  N  N135  1  0.15138000  0.10834000  0.03297000  1
  N  N136  1  0.45983000  0.64751000  0.10468000  1
  N  N137  1  0.38093000  0.60836000  0.03210000  1
  N  N138  1  0.64429000  0.95807000  0.10357000  1
  N  N139  1  0.65024000  0.92474000  0.03099000  1
  N  N140  1  0.03935000  0.54194000  0.89555000  1
  N  N141  1  0.11820000  0.57557000  0.96812000  1
  N  N142  1  0.85473000  0.85260000  0.89455000  1
  N  N143  1  0.84862000  0.89165000  0.96703000  1
  N  N144  1  0.54241000  0.03974000  0.39467000  1
  N  N145  1  0.57565000  0.11816000  0.46712000  1
  N  N146  1  0.85353000  0.85561000  0.39495000  1
  N  N147  1  0.89248000  0.84937000  0.46760000  1
  N  N148  1  0.95693000  0.64454000  0.60462000  1
  N  N149  1  0.92355000  0.65088000  0.53199000  1
  N  N150  1  0.64614000  0.45944000  0.60426000  1
  N  N151  1  0.60657000  0.38100000  0.53178000  1
  O  O152  1  0.51186000  0.12502000  0.73414000  1
  O  O153  1  0.46736000  0.20307000  0.65702000  1
  O  O154  1  0.35827000  0.73989000  0.38329000  1
  O  O155  1  0.33042000  0.83369000  0.31684000  1
  O  O156  1  0.22191000  0.10874000  0.73425000  1
  O  O157  1  0.18778000  0.95406000  0.65861000  1
  O  O158  1  0.02607000  0.14422000  0.38261000  1
  O  O159  1  0.98749000  0.98464000  0.31636000  1
  O  O160  1  0.98762000  0.39170000  0.26633000  1
  O  O161  1  0.03166000  0.54639000  0.34239000  1
  O  O162  1  0.14168000  0.35511000  0.61755000  1
  O  O163  1  0.16983000  0.51437000  0.68413000  1
  O  O164  1  0.27741000  0.37608000  0.26695000  1
  O  O165  1  0.31202000  0.29728000  0.34352000  1
  O  O166  1  0.47474000  0.76107000  0.61796000  1
  O  O167  1  0.51346000  0.66715000  0.68422000  1
  O  O168  1  0.37484000  0.27871000  0.76652000  1
  O  O169  1  0.29655000  0.31067000  0.84311000  1
  O  O170  1  0.76234000  0.47587000  0.11739000  1
  O  O171  1  0.66921000  0.51464000  0.18389000  1
  O  O172  1  0.39099000  0.99002000  0.76727000  1
  O  O173  1  0.54627000  0.03138000  0.84351000  1
  O  O174  1  0.35684000  0.14367000  0.11861000  1
  O  O175  1  0.51705000  0.17071000  0.18482000  1
  O  O176  1  0.12530000  0.51159000  0.23358000  1
  O  O177  1  0.20425000  0.46994000  0.15761000  1
  O  O178  1  0.73860000  0.35704000  0.88210000  1
  O  O179  1  0.83267000  0.32975000  0.81613000  1
  O  O180  1  0.10909000  0.22229000  0.23418000  1
  O  O181  1  0.95406000  0.18976000  0.15706000  1
  O  O182  1  0.14439000  0.02537000  0.88347000  1
  O  O183  1  0.98419000  0.98505000  0.81727000  1
  O  O184  1  0.62516000  0.72128000  0.23348000  1
  O  O185  1  0.70345000  0.68932000  0.15689000  1
  O  O186  1  0.23766000  0.52413000  0.88261000  1
  O  O187  1  0.33079000  0.48536000  0.81611000  1
  O  O188  1  0.60901000  0.00997000  0.23273000  1
  O  O189  1  0.45373000  0.96861000  0.15649000  1
  O  O190  1  0.64316000  0.85634000  0.88140000  1
  O  O191  1  0.48295000  0.82929000  0.81518000  1
  O  O192  1  0.87470000  0.48841000  0.76642000  1
  O  O193  1  0.79575000  0.53005000  0.84239000  1
  O  O194  1  0.26139000  0.64296000  0.11790000  1
  O  O195  1  0.16733000  0.67025000  0.18387000  1
  O  O196  1  0.89091000  0.77770000  0.76582000  1
  O  O197  1  0.04594000  0.81024000  0.84294000  1
  O  O198  1  0.85561000  0.97464000  0.11654000  1
  O  O199  1  0.01581000  0.01494000  0.18273000  1
  O  O200  1  0.48814000  0.87498000  0.26586000  1
  O  O201  1  0.53264000  0.79693000  0.34298000  1
  O  O202  1  0.64173000  0.26011000  0.61671000  1
  O  O203  1  0.66958000  0.16631000  0.68316000  1
  O  O204  1  0.77809000  0.89126000  0.26575000  1
  O  O205  1  0.81222000  0.04594000  0.34139000  1
  O  O206  1  0.97395000  0.85578000  0.61739000  1
  O  O207  1  0.01252000  0.01536000  0.68364000  1
  O  O208  1  0.01238000  0.60830000  0.73367000  1
  O  O209  1  0.96834000  0.45361000  0.65761000  1
  O  O210  1  0.85832000  0.64489000  0.38245000  1
  O  O211  1  0.83017000  0.48563000  0.31587000  1
  O  O212  1  0.72259000  0.62392000  0.73305000  1
  O  O213  1  0.68798000  0.70272000  0.65648000  1
  O  O214  1  0.52526000  0.23893000  0.38205000  1
  O  O215  1  0.48654000  0.33284000  0.31578000  1
