# generated using pymatgen
data_MnH15C19S(NO2)3
_symmetry_space_group_name_H-M   'P 1'
_cell_length_a   8.34141000
_cell_length_b   11.32345000
_cell_length_c   27.63082000
_cell_angle_alpha   90.25293000
_cell_angle_beta   90.32952000
_cell_angle_gamma   76.33896000
_symmetry_Int_Tables_number   1
_chemical_formula_structural   MnH15C19S(NO2)3
_chemical_formula_sum   'Mn4 H60 C76 S4 N12 O24'
_cell_volume   2535.94204266
_cell_formula_units_Z   4
loop_
 _symmetry_equiv_pos_site_id
 _symmetry_equiv_pos_as_xyz
  1  'x, y, z'
loop_
 _atom_site_type_symbol
 _atom_site_label
 _atom_site_symmetry_multiplicity
 _atom_site_fract_x
 _atom_site_fract_y
 _atom_site_fract_z
 _atom_site_occupancy
  Mn  Mn0  1  0.75623000  0.37231000  0.79659000  1
  Mn  Mn1  1  0.74270000  0.62697000  0.29643000  1
  Mn  Mn2  1  0.24377000  0.62769000  0.20341000  1
  Mn  Mn3  1  0.25730000  0.37303000  0.70356000  1
  H  H4  1  0.56410000  0.48521000  0.87892000  1
  H  H5  1  0.32580000  0.38946000  0.88111000  1
  H  H6  1  0.20489000  0.52175000  0.85447000  1
  H  H7  1  0.53302000  0.69910000  0.98235000  1
  H  H8  1  0.43099000  0.68468000  0.06672000  1
  H  H9  1  0.98222000  0.61394000  0.01054000  1
  H  H10  1  0.08262000  0.62661000  0.92616000  1
  H  H11  1  0.93498000  0.53495000  0.85688000  1
  H  H12  1  0.95815000  0.74903000  0.85980000  1
  H  H13  1  0.65249000  0.81115000  0.73074000  1
  H  H14  1  0.64005000  0.59782000  0.73434000  1
  H  H15  1  0.96924000  0.14444000  0.85600000  1
  H  H16  1  0.96048000  0.92830000  0.86138000  1
  H  H17  1  0.69495000  0.97408000  0.72475000  1
  H  H18  1  0.71691000  0.18731000  0.72528000  1
  H  H19  1  0.93685000  0.51805000  0.37759000  1
  H  H20  1  0.17904000  0.60964000  0.38133000  1
  H  H21  1  0.29489000  0.47907000  0.35224000  1
  H  H22  1  0.96325000  0.30357000  0.48055000  1
  H  H23  1  0.06473000  0.31774000  0.56541000  1
  H  H24  1  0.51329000  0.38916000  0.51146000  1
  H  H25  1  0.41421000  0.37657000  0.42651000  1
  H  H26  1  0.56230000  0.46638000  0.35530000  1
  H  H27  1  0.53558000  0.25317000  0.35774000  1
  H  H28  1  0.85229000  0.18451000  0.23192000  1
  H  H29  1  0.86610000  0.39799000  0.23550000  1
  H  H30  1  0.53658000  0.85533000  0.35675000  1
  H  H31  1  0.54668000  0.07129000  0.36198000  1
  H  H32  1  0.79451000  0.02536000  0.22330000  1
  H  H33  1  0.77523000  0.81131000  0.22449000  1
  H  H34  1  0.43590000  0.51479000  0.12108000  1
  H  H35  1  0.67420000  0.61053000  0.11889000  1
  H  H36  1  0.79511000  0.47825000  0.14553000  1
  H  H37  1  0.46698000  0.30090000  0.01765000  1
  H  H38  1  0.56902000  0.31532000  0.93328000  1
  H  H39  1  0.01778000  0.38606000  0.98946000  1
  H  H40  1  0.91738000  0.37339000  0.07384000  1
  H  H41  1  0.06502000  0.46505000  0.14312000  1
  H  H42  1  0.04186000  0.25096000  0.14020000  1
  H  H43  1  0.34751000  0.18885000  0.26926000  1
  H  H44  1  0.35995000  0.40218000  0.26566000  1
  H  H45  1  0.03076000  0.85556000  0.14400000  1
  H  H46  1  0.03953000  0.07170000  0.13862000  1
  H  H47  1  0.30506000  0.02592000  0.27525000  1
  H  H48  1  0.28309000  0.81269000  0.27472000  1
  H  H49  1  0.06315000  0.48194000  0.62241000  1
  H  H50  1  0.82096000  0.39035000  0.61867000  1
  H  H51  1  0.70512000  0.52093000  0.64776000  1
  H  H52  1  0.03675000  0.69643000  0.51945000  1
  H  H53  1  0.93527000  0.68226000  0.43458000  1
  H  H54  1  0.48672000  0.61084000  0.48854000  1
  H  H55  1  0.58579000  0.62342000  0.57349000  1
  H  H56  1  0.43770000  0.53361000  0.64470000  1
  H  H57  1  0.46443000  0.74683000  0.64226000  1
  H  H58  1  0.14772000  0.81549000  0.76808000  1
  H  H59  1  0.13390000  0.60201000  0.76450000  1
  H  H60  1  0.46342000  0.14467000  0.64325000  1
  H  H61  1  0.45332000  0.92871000  0.63802000  1
  H  H62  1  0.20549000  0.97464000  0.77670000  1
  H  H63  1  0.22477000  0.18869000  0.77551000  1
  C  C64  1  0.36324000  0.40564000  0.80501000  1
  C  C65  1  0.32902000  0.46247000  0.85518000  1
  C  C66  1  0.31449000  0.66343000  0.94951000  1
  C  C67  1  0.41366000  0.67931000  0.98888000  1
  C  C68  1  0.35629000  0.67091000  0.03578000  1
  C  C69  1  0.20083000  0.64722000  0.04367000  1
  C  C70  1  0.10293000  0.63136000  0.00381000  1
  C  C71  1  0.15919000  0.63896000  0.95683000  1
  C  C72  1  0.13527000  0.64030000  0.09400000  1
  C  C73  1  0.87306000  0.60068000  0.83012000  1
  C  C74  1  0.88362000  0.72117000  0.83157000  1
  C  C75  1  0.80642000  0.80261000  0.79553000  1
  C  C76  1  0.71588000  0.75599000  0.76022000  1
  C  C77  1  0.70932000  0.63494000  0.76149000  1
  C  C78  1  0.90870000  0.10282000  0.82786000  1
  C  C79  1  0.90186000  0.98157000  0.83067000  1
  C  C80  1  0.82118000  0.93007000  0.79404000  1
  C  C81  1  0.75594000  0.00655000  0.75515000  1
  C  C82  1  0.76825000  0.12641000  0.75476000  1
  C  C83  1  0.13344000  0.59908000  0.30481000  1
  C  C84  1  0.17165000  0.53922000  0.35431000  1
  C  C85  1  0.18210000  0.33942000  0.44869000  1
  C  C86  1  0.08261000  0.32335000  0.48758000  1
  C  C87  1  0.13944000  0.33171000  0.53480000  1
  C  C88  1  0.29462000  0.35577000  0.54340000  1
  C  C89  1  0.39279000  0.37166000  0.50402000  1
  C  C90  1  0.33729000  0.36402000  0.45676000  1
  C  C91  1  0.36075000  0.36332000  0.59387000  1
  C  C92  1  0.62549000  0.39953000  0.32907000  1
  C  C93  1  0.61331000  0.27943000  0.33036000  1
  C  C94  1  0.69277000  0.19652000  0.29509000  1
  C  C95  1  0.78674000  0.24124000  0.26066000  1
  C  C96  1  0.79446000  0.36211000  0.26200000  1
  C  C97  1  0.59378000  0.89667000  0.32811000  1
  C  C98  1  0.60096000  0.01791000  0.33080000  1
  C  C99  1  0.67720000  0.06925000  0.29356000  1
  C  C100  1  0.73774000  0.99269000  0.25422000  1
  C  C101  1  0.72615000  0.87262000  0.25410000  1
  C  C102  1  0.63676000  0.59436000  0.19499000  1
  C  C103  1  0.67098000  0.53753000  0.14482000  1
  C  C104  1  0.68551000  0.33657000  0.05049000  1
  C  C105  1  0.58634000  0.32069000  0.01112000  1
  C  C106  1  0.64371000  0.32909000  0.96422000  1
  C  C107  1  0.79917000  0.35278000  0.95633000  1
  C  C108  1  0.89707000  0.36863000  0.99619000  1
  C  C109  1  0.84081000  0.36104000  0.04317000  1
  C  C110  1  0.86473000  0.35970000  0.90600000  1
  C  C111  1  0.12694000  0.39932000  0.16988000  1
  C  C112  1  0.11638000  0.27883000  0.16843000  1
  C  C113  1  0.19359000  0.19738000  0.20447000  1
  C  C114  1  0.28413000  0.24401000  0.23978000  1
  C  C115  1  0.29069000  0.36506000  0.23851000  1
  C  C116  1  0.09130000  0.89718000  0.17214000  1
  C  C117  1  0.09815000  0.01843000  0.16933000  1
  C  C118  1  0.17883000  0.06993000  0.20596000  1
  C  C119  1  0.24407000  0.99345000  0.24485000  1
  C  C120  1  0.23175000  0.87358000  0.24524000  1
  C  C121  1  0.86656000  0.40091000  0.69519000  1
  C  C122  1  0.82835000  0.46078000  0.64569000  1
  C  C123  1  0.81790000  0.66058000  0.55131000  1
  C  C124  1  0.91740000  0.67664000  0.51242000  1
  C  C125  1  0.86057000  0.66829000  0.46520000  1
  C  C126  1  0.70538000  0.64423000  0.45660000  1
  C  C127  1  0.60721000  0.62834000  0.49598000  1
  C  C128  1  0.66271000  0.63598000  0.54324000  1
  C  C129  1  0.63926000  0.63668000  0.40613000  1
  C  C130  1  0.37451000  0.60047000  0.67093000  1
  C  C131  1  0.38669000  0.72057000  0.66964000  1
  C  C132  1  0.30723000  0.80348000  0.70491000  1
  C  C133  1  0.21326000  0.75876000  0.73934000  1
  C  C134  1  0.20554000  0.63789000  0.73800000  1
  C  C135  1  0.40623000  0.10332000  0.67189000  1
  C  C136  1  0.39905000  0.98208000  0.66920000  1
  C  C137  1  0.32280000  0.93075000  0.70644000  1
  C  C138  1  0.26227000  0.00731000  0.74578000  1
  C  C139  1  0.27385000  0.12737000  0.74590000  1
  S  S140  1  0.38828000  0.67236000  0.88949000  1
  S  S141  1  0.10954000  0.33030000  0.38829000  1
  S  S142  1  0.61172000  0.32764000  0.11051000  1
  S  S143  1  0.89046000  0.66970000  0.61171000  1
  N  N144  1  0.44692000  0.53321000  0.86914000  1
  N  N145  1  0.78937000  0.55617000  0.79517000  1
  N  N146  1  0.84200000  0.17626000  0.79071000  1
  N  N147  1  0.05336000  0.46899000  0.36762000  1
  N  N148  1  0.71251000  0.44222000  0.29494000  1
  N  N149  1  0.65642000  0.82297000  0.29058000  1
  N  N150  1  0.55308000  0.46678000  0.13086000  1
  N  N151  1  0.21064000  0.44383000  0.20483000  1
  N  N152  1  0.15800000  0.82374000  0.20929000  1
  N  N153  1  0.94664000  0.53101000  0.63237000  1
  N  N154  1  0.28750000  0.55778000  0.70506000  1
  N  N155  1  0.34358000  0.17703000  0.70942000  1
  O  O156  1  0.50842000  0.38083000  0.78790000  1
  O  O157  1  0.23927000  0.38675000  0.78203000  1
  O  O158  1  0.53537000  0.71986000  0.89276000  1
  O  O159  1  0.24612000  0.73275000  0.86019000  1
  O  O160  1  0.24638000  0.63101000  0.12844000  1
  O  O161  1  0.98676000  0.64298000  0.10035000  1
  O  O162  1  0.98711000  0.62551000  0.28832000  1
  O  O163  1  0.25569000  0.61892000  0.28169000  1
  O  O164  1  0.96022000  0.28554000  0.39058000  1
  O  O165  1  0.25212000  0.26716000  0.35995000  1
  O  O166  1  0.25223000  0.36881000  0.62838000  1
  O  O167  1  0.50842000  0.36433000  0.60030000  1
  O  O168  1  0.49158000  0.61917000  0.21210000  1
  O  O169  1  0.76073000  0.61325000  0.21797000  1
  O  O170  1  0.46463000  0.28014000  0.10724000  1
  O  O171  1  0.75389000  0.26725000  0.13981000  1
  O  O172  1  0.75363000  0.36899000  0.87156000  1
  O  O173  1  0.01324000  0.35702000  0.89965000  1
  O  O174  1  0.01289000  0.37449000  0.71168000  1
  O  O175  1  0.74431000  0.38108000  0.71831000  1
  O  O176  1  0.03978000  0.71446000  0.60942000  1
  O  O177  1  0.74789000  0.73284000  0.64005000  1
  O  O178  1  0.74777000  0.63119000  0.37161000  1
  O  O179  1  0.49159000  0.63567000  0.39970000  1
