# generated using pymatgen
data_Cr3H39C31NO13
_symmetry_space_group_name_H-M   'P 1'
_cell_length_a   11.28812000
_cell_length_b   11.39348441
_cell_length_c   18.70904000
_cell_angle_alpha   89.32704088
_cell_angle_beta   89.95844000
_cell_angle_gamma   60.37055649
_symmetry_Int_Tables_number   1
_chemical_formula_structural   Cr3H39C31NO13
_chemical_formula_sum   'Cr6 H78 C62 N2 O26'
_cell_volume   2091.37783252
_cell_formula_units_Z   2
loop_
 _symmetry_equiv_pos_site_id
 _symmetry_equiv_pos_as_xyz
  1  'x, y, z'
loop_
 _atom_site_type_symbol
 _atom_site_label
 _atom_site_symmetry_multiplicity
 _atom_site_fract_x
 _atom_site_fract_y
 _atom_site_fract_z
 _atom_site_occupancy
  C  C0  1  0.76039000  0.52316000  0.36141000  1
  C  C1  1  0.28503000  0.47902000  0.64002000  1
  C  C2  1  0.31507000  0.62806000  0.55187000  1
  C  C3  1  0.94078000  0.38334000  0.45057000  1
  C  C4  1  0.30644000  0.50052000  0.56454000  1
  C  C5  1  0.80089000  0.50580000  0.43791000  1
  C  C6  1  0.32763000  0.52540000  0.42691000  1
  C  C7  1  0.84949000  0.47658000  0.57527000  1
  C  C8  1  0.19505000  0.52360000  0.44027000  1
  C  C9  1  0.72256000  0.46568000  0.56260000  1
  C  C10  1  0.31331000  0.64894000  0.47016000  1
  C  C11  1  0.95980000  0.35822000  0.53137000  1
  C  C12  1  0.20277000  0.01674000  0.53879000  1
  C  C13  1  0.20932000  0.99852000  0.45785000  1
  C  C14  1  0.32307000  0.15692000  0.51097000  1
  C  C15  1  0.46902000  0.88454000  0.47606000  1
  C  C16  1  0.45063000  0.92036000  0.55634000  1
  C  C17  1  0.34315000  0.11745000  0.43147000  1
  C  C18  1  0.31261000  0.05202000  0.56302000  1
  C  C19  1  0.34505000  0.98330000  0.42831000  1
  C  C20  1  0.21143000  0.63852000  0.95135000  1
  C  C21  1  0.82305000  0.37488000  0.04457000  1
  C  C22  1  0.34677000  0.54958000  0.35103000  1
  C  C23  1  0.89431000  0.45156000  0.65015000  1
  C  C24  1  0.21455000  0.64396000  0.03158000  1
  C  C25  1  0.83180000  0.36932000  0.96440000  1
  C  C26  1  0.32028000  0.38550000  0.96950000  1
  C  C27  1  0.71635500  0.63546000  0.02962000  1
  C  C28  1  0.46008000  0.48924000  0.93877000  1
  C  C29  1  0.95518000  0.49030000  0.06220000  1
  C  C30  1  0.32365000  0.49816000  0.92447000  1
  C  C31  1  0.81490000  0.50666000  0.07405000  1
  C  C32  1  0.34508000  0.52204000  0.06361000  1
  C  C33  1  0.86263000  0.47928000  0.93538000  1
  C  C34  1  0.32774000  0.39940000  0.05159000  1
  C  C35  1  0.73645000  0.61570000  0.94784000  1
  C  C36  1  0.47642000  0.49210000  0.02100000  1
  C  C37  1  0.97980000  0.47578000  0.98044000  1
  C  C38  1  0.48491000  0.98972000  0.95753000  1
  C  C39  1  0.48862500  0.98260000  0.03842000  1
  C  C40  1  0.22958000  0.13344000  0.97202000  1
  C  C41  1  0.33233000  0.87570000  0.02753000  1
  C  C42  1  0.33316000  0.89118000  0.94552000  1
  C  C43  1  0.24116000  0.11524000  0.05419000  1
  C  C44  1  0.37650000  0.93254000  0.35562000  1
  C  C45  1  0.29295000  0.10424000  0.63726000  1
  C  C46  1  0.34380000  0.01652000  0.92971000  1
  C  C47  1  0.36318500  0.97644000  0.06872000  1
  C  C48  1  0.77114000  0.52254000  0.15062000  1
  C  C49  1  0.29583000  0.47986000  0.84798000  1
  C  C50  1  0.35890000  0.54974000  0.14081000  1
  C  C51  1  0.90664000  0.45108000  0.85859000  1
  C  C52  1  0.38529000  0.93604000  0.14562000  1
  C  C53  1  0.32318500  0.05995000  0.85310000  1
  C  C54  1  0.44323500  0.38432000  0.53638500  1
  C  C55  1  0.81124000  0.62644000  0.46682000  1
  C  C56  1  0.44442000  0.38816000  0.45527000  1
  C  C57  1  0.82370000  0.61702000  0.54803000  1
  C  C58  1  0.17596000  0.52480000  0.52163000  1
  C  C59  1  0.69478000  0.48242000  0.48131000  1
  C  C60  1  0.29518000  0.24281000  0.31541000  1
  C  C61  1  0.49950000  0.79762000  0.67396500  1
  Cr  Cr62  1  0.60717000  0.77138000  0.25469000  1
  Cr  Cr63  1  0.37855000  0.22862000  0.74531000  1
  Cr  Cr64  1  0.60239000  0.45976000  0.25181000  1
  Cr  Cr65  1  0.06215000  0.54024000  0.74819000  1
  Cr  Cr66  1  0.29047000  0.77624000  0.24699000  1
  Cr  Cr67  1  0.06671000  0.22376000  0.75301000  1
  H  H68  1  0.47140000  0.28462000  0.55771000  1
  H  H69  1  0.72547500  0.72102000  0.44995000  1
  H  H70  1  0.20979500  0.73225000  0.45770000  1
  H  H71  1  0.94534000  0.27094000  0.54098000  1
  H  H72  1  0.09257000  0.62794000  0.53411000  1
  H  H73  1  0.70805000  0.38480000  0.46340000  1
  H  H74  1  0.10695000  0.61272000  0.41482000  1
  H  H75  1  0.73945000  0.36472000  0.58017000  1
  H  H76  1  0.10134000  0.08780000  0.55681000  1
  H  H77  1  0.19890000  0.91210000  0.44415000  1
  H  H78  1  0.21897000  0.92218000  0.56487000  1
  H  H79  1  0.11823500  0.08301000  0.43323000  1
  H  H80  1  0.24744500  0.26038000  0.51621000  1
  H  H81  1  0.49945500  0.77930000  0.46515500  1
  H  H82  1  0.53710000  0.93602000  0.57224000  1
  H  H83  1  0.44566500  0.10200000  0.41650500  1
  H  H84  1  0.55543000  0.89822000  0.45957000  1
  H  H85  1  0.41831000  0.15192000  0.52692500  1
  H  H86  1  0.10631500  0.66486000  0.93620000  1
  H  H87  1  0.73899000  0.36014000  0.06111000  1
  H  H88  1  0.52851000  0.39608000  0.55662000  1
  H  H89  1  0.90023000  0.62922000  0.44351000  1
  H  H90  1  0.22723000  0.71836000  0.92688000  1
  H  H91  1  0.91411000  0.28528000  0.06769000  1
  H  H92  1  0.20197000  0.74100000  0.04655000  1
  H  H93  1  0.90976000  0.26528000  0.95045000  1
  H  H94  1  0.12264000  0.64486000  0.05378000  1
  H  H95  1  0.73572000  0.38434000  0.94083000  1
  H  H96  1  0.22288000  0.39906000  0.95574000  1
  H  H97  1  0.61027000  0.67626000  0.04502000  1
  H  H98  1  0.23411000  0.41254000  0.07801000  1
  H  H99  1  0.64567000  0.62042000  0.92222000  1
  H  H100  1  0.54195000  0.39334000  0.91640000  1
  H  H101  1  0.96091000  0.57872000  0.08240000  1
  H  H102  1  0.46520000  0.57410000  0.91217000  1
  H  H103  1  0.03369000  0.40000000  0.09178000  1
  H  H104  1  0.51543500  0.55890000  0.03548000  1
  H  H105  1  0.06072000  0.37584000  0.97320000  1
  H  H106  1  0.55356000  0.38842000  0.03669000  1
  H  H107  1  0.00369000  0.55308000  0.96049000  1
  H  H108  1  0.40260000  0.28560000  0.95269000  1
  H  H109  1  0.74480000  0.71230000  0.04326000  1
  H  H110  1  0.54472000  0.36510000  0.43576000  1
  H  H111  1  0.90499000  0.63802000  0.56428000  1
  H  H112  1  0.41474000  0.30674000  0.07500000  1
  H  H113  1  0.75251000  0.69610000  0.92346000  1
  H  H114  1  0.50990000  0.06848000  0.94097000  1
  H  H115  1  0.58529500  0.89887000  0.05639000  1
  H  H116  1  0.56617000  0.89448000  0.93512000  1
  H  H117  1  0.48978000  0.07296000  0.05952000  1
  H  H118  1  0.24408000  0.21578000  0.95729000  1
  H  H119  1  0.39672000  0.77114000  0.04517000  1
  H  H120  1  0.25507000  0.19514000  0.07959000  1
  H  H121  1  0.41943000  0.80073000  0.92157000  1
  H  H122  1  0.23675000  0.90482000  0.92204000  1
  H  H123  1  0.14653000  0.12264000  0.07660000  1
  H  H124  1  0.22651000  0.90434000  0.04198000  1
  H  H125  1  0.12866000  0.15120000  0.95430000  1
  H  H126  1  0.43144000  0.30484000  0.43506000  1
  H  H127  1  0.72941000  0.69784000  0.57212000  1
  H  H128  1  0.13618000  0.46024000  0.53948000  1
  H  H129  1  0.59097000  0.56154000  0.47027000  1
  H  H130  1  0.19901000  0.43456000  0.41710000  1
  H  H131  1  0.63915500  0.53199000  0.59727000  1
  H  H132  1  0.22823000  0.71694000  0.57703000  1
  H  H133  1  0.94700500  0.29424000  0.42360000  1
  H  H134  1  0.40855000  0.61496000  0.57684000  1
  H  H135  1  0.02014000  0.40312000  0.42901000  1
  H  H136  1  0.38369000  0.68268000  0.45240000  1
  H  H137  1  0.06023000  0.32762000  0.55197000  1
  H  H138  1  0.15731000  0.21371000  0.37238500  1
  H  H139  1  0.21473500  0.33730000  0.28990000  1
  H  H140  1  0.32198500  0.15881000  0.27784000  1
  H  H141  1  0.38556000  0.25494000  0.32441500  1
  H  H142  1  0.51065000  0.72334000  0.57407000  1
  H  H143  1  0.52780000  0.69504000  0.69439000  1
  H  H144  1  0.41486500  0.86964000  0.70787000  1
  H  H145  1  0.58970500  0.81157000  0.67964500  1
  N  N146  1  0.24387000  0.21882000  0.38204000  1
  N  N147  1  0.45621000  0.81130000  0.59985000  1
  O  O148  1  0.49220000  0.91442000  0.33452000  1
  O  O149  1  0.40662000  0.08558000  0.66548000  1
  O  O150  1  0.47575000  0.47252000  0.17344000  1
  O  O151  1  0.94827000  0.52748000  0.82656000  1
  O  O152  1  0.26278000  0.66504000  0.16400000  1
  O  O153  1  0.92782000  0.33496000  0.83600000  1
  O  O154  1  0.30756000  0.89276000  0.17306000  1
  O  O155  1  0.20032000  0.10724000  0.82694000  1
  O  O156  1  0.50001000  0.66912000  0.25116000  1
  O  O157  1  0.16913000  0.33088000  0.74884000  1
  O  O158  1  0.72051000  0.64146000  0.33175000  1
  O  O159  1  0.36197000  0.35854000  0.66825000  1
  O  O160  1  0.74082000  0.42848000  0.33629000  1
  O  O161  1  0.16930000  0.57152000  0.66371000  1
  O  O162  1  0.46809000  0.47356000  0.32409000  1
  O  O163  1  0.94165000  0.52644000  0.67591000  1
  O  O164  1  0.25452000  0.66614000  0.32651000  1
  O  O165  1  0.92066000  0.33386000  0.67349000  1
  O  O166  1  0.29991000  0.89378000  0.32370000  1
  O  O167  1  0.19369000  0.10622000  0.67630000  1
  O  O168  1  0.50047000  0.91330000  0.17202000  1
  O  O169  1  0.41377000  0.08670000  0.82798000  1
  O  O170  1  0.72817000  0.64044000  0.18111000  1
  O  O171  1  0.36861000  0.35956000  0.81889000  1
  O  O172  1  0.74909000  0.42736000  0.17379000  1
  O  O173  1  0.17645000  0.57264000  0.82621000  1
