# generated using pymatgen
data_GdH9C18(NO2)3
_symmetry_space_group_name_H-M   'P 1'
_cell_length_a   9.77324000
_cell_length_b   16.67616000
_cell_length_c   27.45140000
_cell_angle_alpha   96.83936000
_cell_angle_beta   89.87290000
_cell_angle_gamma   89.76129000
_symmetry_Int_Tables_number   1
_chemical_formula_structural   GdH9C18(NO2)3
_chemical_formula_sum   'Gd8 H72 C144 N24 O48'
_cell_volume   4442.13964025
_cell_formula_units_Z   8
loop_
 _symmetry_equiv_pos_site_id
 _symmetry_equiv_pos_as_xyz
  1  'x, y, z'
loop_
 _atom_site_type_symbol
 _atom_site_label
 _atom_site_symmetry_multiplicity
 _atom_site_fract_x
 _atom_site_fract_y
 _atom_site_fract_z
 _atom_site_occupancy
  Gd  Gd0  1  0.38312000  0.30418000  0.24426000  1
  Gd  Gd1  1  0.79669000  0.48567000  0.74904000  1
  Gd  Gd2  1  0.87668000  0.19570000  0.75404000  1
  Gd  Gd3  1  0.30296000  0.01401000  0.25107000  1
  Gd  Gd4  1  0.61689000  0.69583000  0.75574000  1
  Gd  Gd5  1  0.20330000  0.51434000  0.25096000  1
  Gd  Gd6  1  0.12333000  0.80431000  0.24596000  1
  Gd  Gd7  1  0.69705000  0.98600000  0.74893000  1
  H  H8  1  0.61364000  0.36688000  0.09845000  1
  H  H9  1  0.34965000  0.57291000  0.13393000  1
  H  H10  1  0.36412000  0.59599000  0.04416000  1
  H  H11  1  0.45038000  0.62267000  0.39081000  1
  H  H12  1  0.46884000  0.36268000  0.36994000  1
  H  H13  1  0.50668000  0.36750000  0.46173000  1
  H  H14  1  0.00311000  0.43967000  0.13952000  1
  H  H15  1  0.17320000  0.20245000  0.10067000  1
  H  H16  1  0.08498000  0.20817000  0.01391000  1
  H  H17  1  0.01682000  0.23583000  0.87242000  1
  H  H18  1  0.87057000  0.47914000  0.90796000  1
  H  H19  1  0.89166000  0.45980000  0.99727000  1
  H  H20  1  0.13022000  0.23792000  0.61082000  1
  H  H21  1  0.82504000  0.42604000  0.62102000  1
  H  H22  1  0.86292000  0.43445000  0.53043000  1
  H  H23  1  0.16855000  0.23606000  0.46324000  1
  H  H24  1  0.21809000  0.24816000  0.37379000  1
  H  H25  1  0.96227000  0.46012000  0.38755000  1
  H  H26  1  0.10831000  0.13223000  0.90039000  1
  H  H27  1  0.84281000  0.92785000  0.86727000  1
  H  H28  1  0.86125000  0.90506000  0.95689000  1
  H  H29  1  0.94481000  0.87755000  0.60895000  1
  H  H30  1  0.96807000  0.13734000  0.63009000  1
  H  H31  1  0.00763000  0.13226000  0.53835000  1
  H  H32  1  0.49564000  0.06268000  0.85979000  1
  H  H33  1  0.67031000  0.29778000  0.89810000  1
  H  H34  1  0.58726000  0.29175000  0.98556000  1
  H  H35  1  0.52368000  0.26261000  0.12746000  1
  H  H36  1  0.37586000  0.02046000  0.09169000  1
  H  H37  1  0.39288000  0.04124000  0.00246000  1
  H  H38  1  0.63562000  0.26132000  0.38696000  1
  H  H39  1  0.32857000  0.07596000  0.37696000  1
  H  H40  1  0.36414000  0.06761000  0.46767000  1
  H  H41  1  0.66759000  0.26471000  0.53513000  1
  H  H42  1  0.71555000  0.25187000  0.62449000  1
  H  H43  1  0.46187000  0.04033000  0.61005000  1
  H  H44  1  0.38636000  0.63313000  0.90155000  1
  H  H45  1  0.65035000  0.42709000  0.86607000  1
  H  H46  1  0.63588000  0.40402000  0.95584000  1
  H  H47  1  0.54963000  0.37734000  0.60919000  1
  H  H48  1  0.53116000  0.63733000  0.63006000  1
  H  H49  1  0.49332000  0.63251000  0.53827000  1
  H  H50  1  0.99689000  0.56034000  0.86049000  1
  H  H51  1  0.82681000  0.79756000  0.89933000  1
  H  H52  1  0.91502000  0.79184000  0.98609000  1
  H  H53  1  0.98318000  0.76418000  0.12759000  1
  H  H54  1  0.12943000  0.52087000  0.09204000  1
  H  H55  1  0.10834000  0.54021000  0.00273000  1
  H  H56  1  0.86978000  0.76209000  0.38918000  1
  H  H57  1  0.17496000  0.57397000  0.37898000  1
  H  H58  1  0.13708000  0.56556000  0.46957000  1
  H  H59  1  0.83145000  0.76396000  0.53676000  1
  H  H60  1  0.78191000  0.75185000  0.62621000  1
  H  H61  1  0.03774000  0.53989000  0.61245000  1
  H  H62  1  0.89170000  0.86779000  0.09962000  1
  H  H63  1  0.15721000  0.07217000  0.13273000  1
  H  H64  1  0.13875000  0.09496000  0.04311000  1
  H  H65  1  0.05520000  0.12246000  0.39105000  1
  H  H66  1  0.03193000  0.86267000  0.36991000  1
  H  H67  1  0.99237000  0.86775000  0.46165000  1
  H  H68  1  0.50436000  0.93733000  0.14022000  1
  H  H69  1  0.32970000  0.70222000  0.10191000  1
  H  H70  1  0.41274000  0.70826000  0.01444000  1
  H  H71  1  0.47633000  0.73740000  0.87254000  1
  H  H72  1  0.62415000  0.97954000  0.90832000  1
  H  H73  1  0.60712000  0.95877000  0.99754000  1
  H  H74  1  0.36439000  0.73869000  0.61305000  1
  H  H75  1  0.67143000  0.92406000  0.62305000  1
  H  H76  1  0.63586000  0.93240000  0.53233000  1
  H  H77  1  0.33241000  0.73530000  0.46488000  1
  H  H78  1  0.28446000  0.74813000  0.37551000  1
  H  H79  1  0.53813000  0.95967000  0.38995000  1
  C  C80  1  0.49662000  0.49422000  0.02629000  1
  C  C81  1  0.55668000  0.41833000  0.08796000  1
  C  C82  1  0.47758000  0.46709000  0.12273000  1
  C  C83  1  0.41012000  0.53409000  0.10738000  1
  C  C84  1  0.41852000  0.54730000  0.05864000  1
  C  C85  1  0.45209000  0.44839000  0.17371000  1
  C  C86  1  0.49313000  0.49742000  0.47303000  1
  C  C87  1  0.46199000  0.56524000  0.40566000  1
  C  C88  1  0.45523000  0.49252000  0.37397000  1
  C  C89  1  0.47334000  0.41966000  0.39384000  1
  C  C90  1  0.49316000  0.42200000  0.44406000  1
  C  C91  1  0.41227000  0.49406000  0.32249000  1
  C  C92  1  0.00575000  0.32881000  0.03234000  1
  C  C93  1  0.02335000  0.38756000  0.11248000  1
  C  C94  1  0.09711000  0.32137000  0.12605000  1
  C  C95  1  0.11710000  0.25440000  0.09063000  1
  C  C96  1  0.07007000  0.25752000  0.04324000  1
  C  C97  1  0.16372000  0.32241000  0.17449000  1
  C  C98  1  0.97407000  0.33955000  0.98072000  1
  C  C99  1  0.99237000  0.28725000  0.89937000  1
  C  C100  1  0.94720000  0.35972000  0.88321000  1
  C  C101  1  0.90918000  0.42295000  0.91891000  1
  C  C102  1  0.92062000  0.41261000  0.96827000  1
  C  C103  1  0.93726000  0.36629000  0.82964000  1
  C  C104  1  0.01502000  0.33995000  0.52430000  1
  C  C105  1  0.06869000  0.28181000  0.59401000  1
  C  C106  1  0.97377000  0.33044000  0.62269000  1
  C  C107  1  0.89902000  0.38737000  0.59980000  1
  C  C108  1  0.91901000  0.39197000  0.55002000  1
  C  C109  1  0.94774000  0.31796000  0.67477000  1
  C  C110  1  0.04072000  0.34262000  0.47119000  1
  C  C111  1  0.12557000  0.28446000  0.44471000  1
  C  C112  1  0.15267000  0.29140000  0.39571000  1
  C  C113  1  0.09676000  0.35653000  0.37434000  1
  C  C114  1  0.00961000  0.40990000  0.40334000  1
  C  C115  1  0.13550000  0.37034000  0.32345000  1
  C  C116  1  0.99492000  0.00585000  0.97372000  1
  C  C117  1  0.05188000  0.08122000  0.91143000  1
  C  C118  1  0.97136000  0.03299000  0.87720000  1
  C  C119  1  0.90443000  0.96659000  0.89323000  1
  C  C120  1  0.91497000  0.95342000  0.94195000  1
  C  C121  1  0.94483000  0.05175000  0.82620000  1
  C  C122  1  0.99227000  0.00254000  0.52695000  1
  C  C123  1  0.95799000  0.93485000  0.59414000  1
  C  C124  1  0.95201000  0.00750000  0.62589000  1
  C  C125  1  0.97200000  0.08033000  0.60619000  1
  C  C126  1  0.99293000  0.07786000  0.55598000  1
  C  C127  1  0.90874000  0.00600000  0.67737000  1
  C  C128  1  0.50570000  0.17201000  0.96732000  1
  C  C129  1  0.51801000  0.11435000  0.88675000  1
  C  C130  1  0.59154000  0.18008000  0.87282000  1
  C  C131  1  0.61428000  0.24625000  0.90843000  1
  C  C132  1  0.57016000  0.24287000  0.95621000  1
  C  C133  1  0.65530000  0.17871000  0.82374000  1
  C  C134  1  0.47655000  0.16070000  0.01907000  1
  C  C135  1  0.49803000  0.21171000  0.10044000  1
  C  C136  1  0.45307000  0.13936000  0.11656000  1
  C  C137  1  0.41375000  0.07674000  0.08084000  1
  C  C138  1  0.42334000  0.08775000  0.03149000  1
  C  C139  1  0.44463000  0.13260000  0.17018000  1
  C  C140  1  0.51714000  0.16097000  0.47369000  1
  C  C141  1  0.57332000  0.21813000  0.40391000  1
  C  C142  1  0.47887000  0.16989000  0.37525000  1
  C  C143  1  0.40273000  0.11388000  0.39820000  1
  C  C144  1  0.42135000  0.10943000  0.44801000  1
  C  C145  1  0.45361000  0.18222000  0.32321000  1
  C  C146  1  0.54144000  0.15821000  0.52679000  1
  C  C147  1  0.62503000  0.21614000  0.55350000  1
  C  C148  1  0.65116000  0.20870000  0.60246000  1
  C  C149  1  0.59532000  0.14341000  0.62354000  1
  C  C150  1  0.50924000  0.09044000  0.59431000  1
  C  C151  1  0.63248000  0.12933000  0.67452000  1
  C  C152  1  0.50338000  0.50578000  0.97371000  1
  C  C153  1  0.44332000  0.58168000  0.91205000  1
  C  C154  1  0.52242000  0.53292000  0.87727000  1
  C  C155  1  0.58989000  0.46592000  0.89262000  1
  C  C156  1  0.58149000  0.45271000  0.94136000  1
  C  C157  1  0.54790000  0.55163000  0.82629000  1
  C  C158  1  0.50687000  0.50259000  0.52697000  1
  C  C159  1  0.53801000  0.43477000  0.59434000  1
  C  C160  1  0.54477000  0.50749000  0.62603000  1
  C  C161  1  0.52666000  0.58035000  0.60616000  1
  C  C162  1  0.50685000  0.57801000  0.55594000  1
  C  C163  1  0.58774000  0.50595000  0.67752000  1
  C  C164  1  0.99426000  0.67120000  0.96766000  1
  C  C165  1  0.97666000  0.61244000  0.88752000  1
  C  C166  1  0.90289000  0.67863000  0.87395000  1
  C  C167  1  0.88290000  0.74560000  0.90937000  1
  C  C168  1  0.92992000  0.74249000  0.95676000  1
  C  C169  1  0.83627000  0.67759000  0.82551000  1
  C  C170  1  0.02593000  0.66047000  0.01928000  1
  C  C171  1  0.00764000  0.71276000  0.10063000  1
  C  C172  1  0.05280000  0.64029000  0.11680000  1
  C  C173  1  0.09082000  0.57706000  0.08110000  1
  C  C174  1  0.07938000  0.58740000  0.03173000  1
  C  C175  1  0.06275000  0.63372000  0.17036000  1
  C  C176  1  0.98499000  0.66006000  0.47570000  1
  C  C177  1  0.93131000  0.71820000  0.40599000  1
  C  C178  1  0.02623000  0.66957000  0.37731000  1
  C  C179  1  0.10098000  0.61264000  0.40021000  1
  C  C180  1  0.08099000  0.60804000  0.44998000  1
  C  C181  1  0.05226000  0.68205000  0.32523000  1
  C  C182  1  0.95929000  0.65739000  0.52881000  1
  C  C183  1  0.87444000  0.71556000  0.55529000  1
  C  C184  1  0.84733000  0.70861000  0.60429000  1
  C  C185  1  0.90324000  0.64348000  0.62566000  1
  C  C186  1  0.99039000  0.59011000  0.59666000  1
  C  C187  1  0.86450000  0.62966000  0.67655000  1
  C  C188  1  0.00508000  0.99416000  0.02628000  1
  C  C189  1  0.94814000  0.91880000  0.08857000  1
  C  C190  1  0.02866000  0.96703000  0.12280000  1
  C  C191  1  0.09559000  0.03343000  0.10677000  1
  C  C192  1  0.08504000  0.04660000  0.05805000  1
  C  C193  1  0.05517000  0.94827000  0.17380000  1
  C  C194  1  0.00773000  0.99747000  0.47305000  1
  C  C195  1  0.04202000  0.06516000  0.40586000  1
  C  C196  1  0.04800000  0.99251000  0.37411000  1
  C  C197  1  0.02800000  0.91968000  0.39381000  1
  C  C198  1  0.00708000  0.92215000  0.44402000  1
  C  C199  1  0.09126000  0.99401000  0.32263000  1
  C  C200  1  0.49430000  0.82800000  0.03268000  1
  C  C201  1  0.48199000  0.88566000  0.11325000  1
  C  C202  1  0.40847000  0.81993000  0.12718000  1
  C  C203  1  0.38572000  0.75376000  0.09157000  1
  C  C204  1  0.42984000  0.75714000  0.04379000  1
  C  C205  1  0.34471000  0.82130000  0.17626000  1
  C  C206  1  0.52346000  0.83931000  0.98094000  1
  C  C207  1  0.50198000  0.78830000  0.89956000  1
  C  C208  1  0.54693000  0.86065000  0.88344000  1
  C  C209  1  0.58625000  0.92327000  0.91916000  1
  C  C210  1  0.57666000  0.91226000  0.96851000  1
  C  C211  1  0.55538000  0.86742000  0.82983000  1
  C  C212  1  0.48287000  0.83904000  0.52631000  1
  C  C213  1  0.42669000  0.78188000  0.59610000  1
  C  C214  1  0.52114000  0.83012000  0.62475000  1
  C  C215  1  0.59728000  0.88613000  0.60181000  1
  C  C216  1  0.57866000  0.89058000  0.55200000  1
  C  C217  1  0.54640000  0.81778000  0.67680000  1
  C  C218  1  0.45856000  0.84180000  0.47322000  1
  C  C219  1  0.37498000  0.78387000  0.44650000  1
  C  C220  1  0.34884000  0.79131000  0.39754000  1
  C  C221  1  0.40469000  0.85660000  0.37646000  1
  C  C222  1  0.49076000  0.90957000  0.40569000  1
  C  C223  1  0.36752000  0.87068000  0.32548000  1
  N  N224  1  0.56731000  0.43138000  0.04090000  1
  N  N225  1  0.47986000  0.56834000  0.45398000  1
  N  N226  1  0.97881000  0.39195000  0.06680000  1
  N  N227  1  0.00697000  0.27699000  0.94655000  1
  N  N228  1  0.08970000  0.28594000  0.54627000  1
  N  N229  1  0.98089000  0.40345000  0.45039000  1
  N  N230  1  0.06474000  0.06822000  0.95841000  1
  N  N231  1  0.97712000  0.93166000  0.54585000  1
  N  N232  1  0.47612000  0.10976000  0.93276000  1
  N  N233  1  0.51136000  0.22249000  0.05328000  1
  N  N234  1  0.59290000  0.21430000  0.45173000  1
  N  N235  1  0.48155000  0.09730000  0.54729000  1
  N  N236  1  0.43269000  0.56863000  0.95910000  1
  N  N237  1  0.52014000  0.43167000  0.54602000  1
  N  N238  1  0.02119000  0.60806000  0.93320000  1
  N  N239  1  0.99303000  0.72302000  0.05345000  1
  N  N240  1  0.91030000  0.71407000  0.45373000  1
  N  N241  1  0.01911000  0.59656000  0.54961000  1
  N  N242  1  0.93527000  0.93180000  0.04159000  1
  N  N243  1  0.02288000  0.06835000  0.45415000  1
  N  N244  1  0.52388000  0.89025000  0.06724000  1
  N  N245  1  0.48866000  0.77751000  0.94672000  1
  N  N246  1  0.40710000  0.78571000  0.54828000  1
  N  N247  1  0.51845000  0.90271000  0.45271000  1
  O  O248  1  0.40731000  0.42807000  0.29288000  1
  O  O249  1  0.21587000  0.25713000  0.18597000  1
  O  O250  1  0.19890000  0.31326000  0.29751000  1
  O  O251  1  0.48180000  0.37816000  0.18543000  1
  O  O252  1  0.97314000  0.30541000  0.79975000  1
  O  O253  1  0.98106000  0.24957000  0.68820000  1
  O  O254  1  0.89341000  0.43285000  0.81636000  1
  O  O255  1  0.17736000  0.38942000  0.20279000  1
  O  O256  1  0.39418000  0.50410000  0.20255000  1
  O  O257  1  0.36796000  0.56035000  0.30964000  1
  O  O258  1  0.10739000  0.43936000  0.30942000  1
  O  O259  1  0.88776000  0.37331000  0.70314000  1
  O  O260  1  0.90626000  0.07186000  0.70712000  1
  O  O261  1  0.70732000  0.24349000  0.81181000  1
  O  O262  1  0.69344000  0.18662000  0.70073000  1
  O  O263  1  0.97389000  0.12188000  0.81442000  1
  O  O264  1  0.48143000  0.19315000  0.20005000  1
  O  O265  1  0.48752000  0.25029000  0.30969000  1
  O  O266  1  0.39991000  0.06655000  0.18357000  1
  O  O267  1  0.66666667  0.11153000  0.79526000  1
  O  O268  1  0.88702000  0.99608000  0.79757000  1
  O  O269  1  0.86251000  0.94026000  0.69017000  1
  O  O270  1  0.60600000  0.06011000  0.68838000  1
  O  O271  1  0.39364000  0.12704000  0.29498000  1
  O  O272  1  0.59269000  0.57193000  0.70712000  1
  O  O273  1  0.78416000  0.74289000  0.81403000  1
  O  O274  1  0.80110000  0.68675000  0.70249000  1
  O  O275  1  0.51819000  0.62184000  0.81457000  1
  O  O276  1  0.02687000  0.69460000  0.20025000  1
  O  O277  1  0.01894000  0.75045000  0.31181000  1
  O  O278  1  0.10659000  0.56716000  0.18364000  1
  O  O279  1  0.82256000  0.61059000  0.79720000  1
  O  O280  1  0.60581000  0.49591000  0.79745000  1
  O  O281  1  0.63204000  0.43966000  0.69036000  1
  O  O282  1  0.89260000  0.56065000  0.69058000  1
  O  O283  1  0.11224000  0.62669000  0.29686000  1
  O  O284  1  0.09374000  0.92815000  0.29288000  1
  O  O285  1  0.29269000  0.75652000  0.18819000  1
  O  O286  1  0.30656000  0.81339000  0.29927000  1
  O  O287  1  0.02612000  0.87813000  0.18558000  1
  O  O288  1  0.51858000  0.80688000  0.79995000  1
  O  O289  1  0.51249000  0.74973000  0.69031000  1
  O  O290  1  0.60010000  0.93346000  0.81643000  1
  O  O291  1  0.33328000  0.88848000  0.20474000  1
  O  O292  1  0.11297000  0.00394000  0.20244000  1
  O  O293  1  0.13750000  0.05975000  0.30983000  1
  O  O294  1  0.39402000  0.93990000  0.31162000  1
  O  O295  1  0.60637000  0.87296000  0.70502000  1
