# generated using pymatgen
data_CuH6C3IN
_symmetry_space_group_name_H-M   'P 1'
_cell_length_a   15.44269000
_cell_length_b   18.04219000
_cell_length_c   21.79943812
_cell_angle_alpha   65.60841830
_cell_angle_beta   69.26299137
_cell_angle_gamma   89.98457000
_symmetry_Int_Tables_number   1
_chemical_formula_structural   CuH6C3IN
_chemical_formula_sum   'Cu32 H192 C96 I32 N32'
_cell_volume   5096.75553078
_cell_formula_units_Z   32
loop_
 _symmetry_equiv_pos_site_id
 _symmetry_equiv_pos_as_xyz
  1  'x, y, z'
loop_
 _atom_site_type_symbol
 _atom_site_label
 _atom_site_symmetry_multiplicity
 _atom_site_fract_x
 _atom_site_fract_y
 _atom_site_fract_z
 _atom_site_occupancy
  Cu  Cu1  1  0.36779000  0.58313000  0.26545000  1.0
  Cu  Cu2  1  0.63219000  0.41709000  0.73456000  1.0
  Cu  Cu3  1  0.33722000  0.42942000  0.32656000  1.0
  Cu  Cu4  1  0.66236000  0.57265000  0.67480000  1.0
  Cu  Cu5  1  0.60646000  0.87072000  0.78489000  1.0
  Cu  Cu6  1  0.39023000  0.12877000  0.21629000  1.0
  Cu  Cu7  1  0.38608000  0.50614000  0.39149000  1.0
  Cu  Cu8  1  0.77467000  0.49793000  0.61324000  1.0
  Cu  Cu9  1  0.61103000  0.49762000  0.61343000  1.0
  Cu  Cu10  1  0.51571000  0.98005000  0.80097000  1.0
  Cu  Cu11  1  0.31648000  0.01972000  0.19931000  1.0
  Cu  Cu12  1  0.48440000  0.02043000  0.19868000  1.0
  Cu  Cu13  1  0.68366000  0.98009000  0.79980000  1.0
  Cu  Cu14  1  0.86641000  0.15165000  0.26651000  1.0
  Cu  Cu15  1  0.83520000  0.24678000  0.32701000  1.0
  Cu  Cu16  1  0.89194000  0.65504000  0.21538000  1.0
  Cu  Cu17  1  0.72377000  0.11003000  0.38704000  1.0
  Cu  Cu18  1  0.88703000  0.11148000  0.38802000  1.0
  Cu  Cu19  1  0.81755000  0.78052000  0.20052000  1.0
  Cu  Cu20  1  0.13044000  0.84896000  0.73405000  1.0
  Cu  Cu21  1  0.16414000  0.75666000  0.67226000  1.0
  Cu  Cu22  1  0.10816000  0.34563000  0.78384000  1.0
  Cu  Cu23  1  0.18241000  0.21924000  0.79997000  1.0
  Cu  Cu24  1  0.54539000  0.86457000  0.90986000  1.0
  Cu  Cu25  1  0.45459000  0.13571000  0.09006000  1.0
  Cu  Cu26  1  0.22087000  0.50653000  0.39037000  1.0
  Cu  Cu27  1  0.95649000  0.77348000  0.09021000  1.0
  Cu  Cu28  1  0.98270000  0.77899000  0.20174000  1.0
  Cu  Cu29  1  0.04362000  0.22672000  0.90999000  1.0
  Cu  Cu30  1  0.11260000  0.89843000  0.60864000  1.0
  Cu  Cu31  1  0.27744000  0.89822000  0.60915000  1.0
  Cu  Cu32  1  0.01703000  0.22033000  0.79904000  1.0
  H  H1  1  0.55891000  0.68574000  0.15344000  1.0
  H  H2  1  0.71213000  0.31490000  0.84571000  1.0
  H  H3  1  0.44139000  0.31469000  0.84584000  1.0
  H  H4  1  0.28826000  0.68555000  0.15361000  1.0
  H  H5  1  0.48817000  0.75506000  0.17661000  1.0
  H  H6  1  0.66437000  0.24574000  0.82253000  1.0
  H  H7  1  0.51250000  0.24556000  0.82269000  1.0
  H  H8  1  0.33570000  0.75490000  0.17678000  1.0
  H  H9  1  0.55158000  0.85384000  0.05259000  1.0
  H  H10  1  0.60448000  0.14675000  0.94638000  1.0
  H  H11  1  0.44870000  0.14666000  0.94656000  1.0
  H  H12  1  0.39606000  0.85373000  0.05280000  1.0
  H  H13  1  0.62078000  0.78371000  0.02915000  1.0
  H  H14  1  0.65017000  0.21679000  0.96996000  1.0
  H  H15  1  0.37954000  0.21676000  0.97014000  1.0
  H  H16  1  0.35013000  0.78367000  0.02939000  1.0
  H  H17  1  0.38561000  0.25572000  0.38448000  1.0
  H  H18  1  0.76926000  0.74539000  0.61672000  1.0
  H  H19  1  0.61383000  0.74544000  0.61663000  1.0
  H  H20  1  0.22994000  0.25613000  0.38455000  1.0
  H  H21  1  0.48328000  0.31960000  0.30390000  1.0
  H  H22  1  0.78661000  0.68098000  0.69704000  1.0
  H  H23  1  0.51610000  0.68109000  0.69694000  1.0
  H  H24  1  0.21283000  0.32019000  0.30403000  1.0
  H  H25  1  0.49759000  0.78841000  0.73374000  1.0
  H  H26  1  0.23033000  0.21248000  0.26778000  1.0
  H  H27  1  0.50122000  0.21204000  0.26747000  1.0
  H  H28  1  0.76829000  0.78836000  0.73390000  1.0
  H  H29  1  0.59745000  0.85225000  0.65502000  1.0
  H  H30  1  0.25009000  0.14839000  0.34711000  1.0
  H  H31  1  0.40233000  0.14802000  0.34694000  1.0
  H  H32  1  0.74727000  0.85222000  0.65511000  1.0
  H  H33  1  0.38223000  0.59068000  0.12098000  1.0
  H  H34  1  0.50290000  0.40986000  0.87900000  1.0
  H  H35  1  0.61776000  0.40964000  0.87900000  1.0
  H  H36  1  0.49712000  0.59048000  0.12098000  1.0
  H  H37  1  0.55933000  0.68990000  0.99679000  1.0
  H  H38  1  0.55556000  0.31011000  0.00313000  1.0
  H  H39  1  0.44077000  0.31003000  0.00299000  1.0
  H  H40  1  0.44454000  0.68979000  0.99665000  1.0
  H  H41  1  0.34462000  0.40859000  0.19605000  1.0
  H  H42  1  0.53994000  0.59167000  0.80483000  1.0
  H  H43  1  0.65483000  0.59156000  0.80486000  1.0
  H  H44  1  0.45953000  0.40833000  0.19608000  1.0
  H  H45  1  0.63538000  0.69725000  0.84398000  1.0
  H  H46  1  0.47826000  0.30185000  0.15793000  1.0
  H  H47  1  0.36354000  0.30225000  0.15771000  1.0
  H  H48  1  0.52047000  0.69723000  0.84403000  1.0
  H  H49  1  0.78703000  0.15964000  0.15498000  1.0
  H  H50  1  0.05794000  0.15981000  0.15449000  1.0
  H  H51  1  0.83513000  0.06744000  0.17727000  1.0
  H  H52  1  0.98759000  0.06751000  0.17692000  1.0
  H  H53  1  0.89551000  0.09375000  0.05298000  1.0
  H  H54  1  0.05112000  0.09401000  0.05253000  1.0
  H  H55  1  0.84894000  0.18692000  0.03039000  1.0
  H  H56  1  0.11977000  0.18741000  0.02988000  1.0
  H  H57  1  0.72958000  0.36275000  0.38399000  1.0
  H  H58  1  0.88561000  0.36245000  0.38405000  1.0
  H  H59  1  0.71241000  0.37795000  0.30370000  1.0
  H  H60  1  0.98292000  0.37751000  0.30372000  1.0
  H  H61  1  0.00206000  0.52175000  0.26610000  1.0
  H  H62  1  0.73132000  0.52218000  0.26608000  1.0
  H  H63  1  0.90234000  0.50778000  0.34463000  1.0
  H  H64  1  0.75267000  0.50800000  0.34460000  1.0
  H  H65  1  0.69994000  0.02253000  0.12210000  1.0
  H  H66  1  0.67862000  0.85333000  0.12306000  1.0
  H  H67  1  0.62076000  0.98083000  0.09799000  1.0
  H  H68  1  0.78208000  0.91875000  0.09890000  1.0
  H  H69  1  0.58347000  0.92136000  0.31373000  1.0
  H  H70  1  0.60138000  0.76464000  0.31449000  1.0
  H  H71  1  0.65740000  0.01311000  0.23938000  1.0
  H  H72  1  0.60287000  0.74739000  0.23970000  1.0
  H  H73  1  0.50590000  0.84809000  0.20930000  1.0
  H  H74  1  0.78463000  0.94225000  0.20957000  1.0
  H  H75  1  0.47824000  0.84134000  0.29739000  1.0
  H  H76  1  0.72386000  0.86192000  0.29812000  1.0
  H  H77  1  0.99582000  0.28721000  0.12302000  1.0
  H  H78  1  0.88093000  0.28729000  0.12312000  1.0
  H  H79  1  0.94317000  0.31359000  0.99847000  1.0
  H  H80  1  0.05801000  0.31301000  0.99862000  1.0
  H  H81  1  0.95883000  0.39459000  0.19656000  1.0
  H  H82  1  0.84409000  0.39475000  0.19633000  1.0
  H  H83  1  0.86428000  0.53967000  0.15610000  1.0
  H  H84  1  0.97913000  0.53953000  0.15623000  1.0
  H  H85  1  0.94026000  0.83946000  0.84713000  1.0
  H  H86  1  0.21169000  0.83954000  0.84541000  1.0
  H  H87  1  0.01090000  0.93181000  0.82429000  1.0
  H  H88  1  0.16395000  0.93192000  0.82307000  1.0
  H  H89  1  0.94833000  0.90557000  0.94863000  1.0
  H  H90  1  0.10420000  0.90605000  0.94730000  1.0
  H  H91  1  0.87940000  0.81213000  0.97169000  1.0
  H  H92  1  0.15089000  0.81294000  0.96985000  1.0
  H  H93  1  0.11481000  0.63963000  0.61490000  1.0
  H  H94  1  0.27096000  0.63954000  0.61497000  1.0
  H  H95  1  0.01743000  0.62383000  0.69544000  1.0
  H  H96  1  0.28778000  0.62364000  0.69554000  1.0
  H  H97  1  0.26934000  0.47961000  0.73254000  1.0
  H  H98  1  0.99865000  0.47985000  0.73254000  1.0
  H  H99  1  0.24935000  0.49424000  0.65341000  1.0
  H  H100  1  0.09764000  0.49428000  0.65341000  1.0
  H  H101  1  0.30032000  0.97704000  0.87762000  1.0
  H  H102  1  0.32139000  0.14596000  0.87723000  1.0
  H  H103  1  0.37956000  0.01863000  0.90173000  1.0
  H  H104  1  0.21797000  0.08046000  0.90137000  1.0
  H  H105  1  0.41600000  0.07833000  0.68605000  1.0
  H  H106  1  0.39788000  0.23489000  0.68571000  1.0
  H  H107  1  0.34220000  0.98664000  0.76070000  1.0
  H  H108  1  0.39685000  0.25244000  0.76024000  1.0
  H  H109  1  0.49391000  0.15172000  0.79058000  1.0
  H  H110  1  0.21506000  0.05747000  0.79048000  1.0
  H  H111  1  0.52158000  0.15881000  0.70236000  1.0
  H  H112  1  0.27577000  0.13807000  0.70209000  1.0
  H  H113  1  0.11805000  0.71240000  0.87760000  1.0
  H  H114  1  0.00289000  0.71195000  0.87821000  1.0
  H  H115  1  0.94131000  0.68654000  0.00260000  1.0
  H  H116  1  0.05637000  0.68603000  0.00231000  1.0
  H  H117  1  0.15631000  0.60583000  0.80290000  1.0
  H  H118  1  0.04146000  0.60590000  0.80284000  1.0
  H  H119  1  0.02174000  0.46116000  0.84211000  1.0
  H  H120  1  0.13653000  0.46103000  0.84222000  1.0
  H  H121  1  0.17801000  0.02228000  0.12241000  1.0
  H  H122  1  0.19846000  0.85304000  0.12341000  1.0
  H  H123  1  0.28119000  0.98042000  0.09849000  1.0
  H  H124  1  0.11909000  0.91842000  0.09919000  1.0
  H  H125  1  0.10250000  0.92101000  0.31415000  1.0
  H  H126  1  0.08411000  0.76437000  0.31485000  1.0
  H  H127  1  0.10303000  0.01274000  0.23967000  1.0
  H  H128  1  0.15738000  0.74697000  0.24014000  1.0
  H  H129  1  0.28467000  0.84778000  0.20951000  1.0
  H  H130  1  0.00569000  0.94186000  0.20981000  1.0
  H  H131  1  0.22453000  0.84085000  0.29773000  1.0
  H  H132  1  0.97792000  0.86157000  0.29834000  1.0
  H  H133  1  0.82182000  0.97717000  0.87724000  1.0
  H  H134  1  0.80114000  0.14610000  0.87688000  1.0
  H  H135  1  0.71857000  0.01891000  0.90116000  1.0
  H  H136  1  0.88039000  0.08054000  0.90110000  1.0
  H  H137  1  0.89825000  0.07862000  0.68559000  1.0
  H  H138  1  0.91641000  0.23503000  0.68540000  1.0
  H  H139  1  0.89725000  0.98694000  0.76036000  1.0
  H  H140  1  0.84293000  0.25273000  0.75983000  1.0
  H  H141  1  0.71558000  0.15193000  0.79036000  1.0
  H  H142  1  0.99452000  0.05776000  0.79022000  1.0
  H  H143  1  0.77584000  0.15932000  0.70196000  1.0
  H  H144  1  0.02213000  0.13834000  0.70188000  1.0
  H  H145  1  0.34121000  0.42859000  0.55697000  1.0
  H  H146  1  0.42479000  0.37660000  0.51984000  1.0
  H  H147  1  0.15783000  0.98577000  0.44270000  1.0
  H  H148  1  0.07431000  0.89684000  0.47955000  1.0
  H  H149  1  0.05445000  0.37660000  0.52002000  1.0
  H  H150  1  0.10109000  0.42883000  0.55690000  1.0
  H  H151  1  0.44467000  0.89620000  0.48038000  1.0
  H  H152  1  0.39773000  0.98505000  0.44357000  1.0
  H  H153  1  0.86674000  0.44551000  0.49275000  1.0
  H  H154  1  0.88186000  0.55500000  0.45106000  1.0
  H  H155  1  0.63221000  0.93825000  0.50753000  1.0
  H  H156  1  0.61694000  0.00608000  0.54928000  1.0
  H  H157  1  0.66611000  0.55491000  0.45083000  1.0
  H  H158  1  0.63991000  0.44545000  0.49233000  1.0
  H  H159  1  0.83284000  0.00574000  0.54992000  1.0
  H  H160  1  0.85943000  0.93837000  0.50774000  1.0
  H  H161  1  0.47095000  0.63440000  0.42514000  1.0
  H  H162  1  0.36968000  0.57690000  0.50405000  1.0
  H  H163  1  0.02899000  0.05908000  0.57539000  1.0
  H  H164  1  0.12994000  0.08044000  0.49627000  1.0
  H  H165  1  0.99877000  0.97292000  0.40133000  1.0
  H  H166  1  0.08095000  0.06306000  0.36662000  1.0
  H  H167  1  0.56542000  0.45479000  0.41155000  1.0
  H  H168  1  0.58677000  0.56350000  0.37393000  1.0
  H  H169  1  0.93374000  0.86652000  0.58848000  1.0
  H  H170  1  0.91283000  0.93753000  0.62632000  1.0
  H  H171  1  0.03800000  0.56367000  0.37405000  1.0
  H  H172  1  0.02170000  0.45492000  0.41162000  1.0
  H  H173  1  0.46088000  0.93765000  0.62637000  1.0
  H  H174  1  0.47738000  0.86641000  0.58874000  1.0
  H  H175  1  0.94567000  0.63090000  0.49827000  1.0
  H  H176  1  0.97012000  0.57771000  0.57746000  1.0
  H  H177  1  0.55288000  0.12857000  0.50261000  1.0
  H  H178  1  0.52838000  0.15492000  0.42337000  1.0
  H  H179  1  0.45231000  0.57778000  0.57732000  1.0
  H  H180  1  0.55584000  0.63057000  0.49803000  1.0
  H  H181  1  0.04717000  0.15510000  0.42342000  1.0
  H  H182  1  0.94390000  0.12884000  0.50293000  1.0
  H  H183  1  0.12571000  0.57669000  0.50399000  1.0
  H  H184  1  0.10324000  0.63445000  0.42515000  1.0
  H  H185  1  0.37285000  0.08021000  0.49677000  1.0
  H  H186  1  0.39545000  0.05904000  0.57559000  1.0
  H  H187  1  0.94819000  0.42919000  0.63360000  1.0
  H  H188  1  0.90072000  0.37363000  0.59887000  1.0
  H  H189  1  0.55047000  0.06228000  0.36683000  1.0
  H  H190  1  0.59815000  0.97222000  0.40150000  1.0
  H  H191  1  0.49969000  0.37336000  0.59874000  1.0
  H  H192  1  0.41766000  0.42897000  0.63354000  1.0
  C  C1  1  0.44664000  0.63034000  0.10717000  1.0
  C  C2  1  0.55345000  0.36999000  0.89265000  1.0
  C  C3  1  0.48722000  0.69520000  0.02599000  1.0
  C  C4  1  0.51291000  0.30486000  0.97372000  1.0
  C  C5  1  0.50852000  0.72571000  0.13962000  1.0
  C  C6  1  0.64792000  0.27494000  0.85963000  1.0
  C  C7  1  0.49183000  0.27484000  0.85972000  1.0
  C  C8  1  0.35236000  0.72561000  0.13974000  1.0
  C  C9  1  0.54936000  0.79044000  0.05832000  1.0
  C  C10  1  0.60775000  0.21005000  0.94090000  1.0
  C  C11  1  0.45094000  0.20998000  0.94101000  1.0
  C  C12  1  0.39255000  0.79037000  0.05846000  1.0
  C  C13  1  0.39236000  0.36889000  0.21532000  1.0
  C  C14  1  0.60691000  0.63122000  0.78586000  1.0
  C  C15  1  0.59420000  0.70001000  0.81139000  1.0
  C  C16  1  0.40460000  0.29953000  0.19038000  1.0
  C  C17  1  0.41687000  0.42987000  0.53213000  1.0
  C  C18  1  0.05016000  0.42996000  0.53215000  1.0
  C  C19  1  0.91287000  0.50212000  0.47691000  1.0
  C  C20  1  0.60938000  0.50195000  0.47670000  1.0
  C  C21  1  0.44521000  0.57869000  0.47741000  1.0
  C  C22  1  0.07670000  0.57868000  0.47742000  1.0
  C  C23  1  0.94958000  0.42848000  0.58317000  1.0
  C  C24  1  0.46660000  0.42827000  0.58308000  1.0
  C  C25  1  0.55848000  0.50687000  0.42554000  1.0
  C  C26  1  0.01478000  0.50697000  0.42564000  1.0
  C  C27  1  0.97459000  0.57759000  0.52613000  1.0
  C  C28  1  0.49879000  0.57742000  0.52604000  1.0
  C  C29  1  0.41592000  0.27962000  0.32477000  1.0
  C  C30  1  0.74000000  0.72105000  0.67646000  1.0
  C  C31  1  0.58331000  0.72110000  0.67637000  1.0
  C  C32  1  0.25921000  0.27999000  0.32484000  1.0
  C  C33  1  0.57129000  0.79067000  0.70140000  1.0
  C  C34  1  0.27145000  0.20987000  0.30039000  1.0
  C  C35  1  0.42763000  0.20953000  0.30026000  1.0
  C  C36  1  0.72699000  0.79064000  0.70150000  1.0
  C  C37  1  0.94535000  0.26154000  0.10896000  1.0
  C  C38  1  0.98592000  0.27854000  0.02758000  1.0
  C  C39  1  0.85139000  0.13385000  0.14075000  1.0
  C  C40  1  0.00761000  0.13392000  0.14047000  1.0
  C  C41  1  0.89165000  0.15114000  0.05918000  1.0
  C  C42  1  0.04849000  0.15134000  0.05885000  1.0
  C  C43  1  0.89206000  0.41567000  0.21515000  1.0
  C  C44  1  0.90529000  0.51010000  0.18889000  1.0
  C  C45  1  0.44872000  0.96167000  0.46828000  1.0
  C  C46  1  0.58593000  0.97893000  0.52349000  1.0
  C  C47  1  0.42199000  0.05571000  0.52320000  1.0
  C  C48  1  0.54916000  0.01130000  0.41725000  1.0
  C  C49  1  0.48410000  0.93243000  0.57477000  1.0
  C  C50  1  0.52399000  0.10335000  0.47455000  1.0
  C  C51  1  0.65473000  0.96588000  0.13697000  1.0
  C  C52  1  0.70898000  0.89550000  0.13759000  1.0
  C  C53  1  0.63369000  0.94767000  0.25668000  1.0
  C  C54  1  0.60917000  0.79542000  0.25718000  1.0
  C  C55  1  0.53656000  0.85396000  0.24568000  1.0
  C  C56  1  0.71752000  0.90027000  0.24613000  1.0
  C  C57  1  0.75906000  0.39756000  0.32420000  1.0
  C  C58  1  0.91588000  0.39727000  0.32426000  1.0
  C  C59  1  0.92831000  0.49194000  0.29857000  1.0
  C  C60  1  0.77259000  0.49219000  0.29853000  1.0
  C  C61  1  0.05348000  0.73790000  0.89200000  1.0
  C  C62  1  0.01340000  0.72099000  0.97337000  1.0
  C  C63  1  0.99092000  0.86543000  0.86085000  1.0
  C  C64  1  0.14754000  0.86557000  0.85979000  1.0
  C  C65  1  0.95068000  0.84822000  0.94236000  1.0
  C  C66  1  0.10794000  0.84856000  0.94125000  1.0
  C  C67  1  0.10839000  0.58521000  0.78386000  1.0
  C  C68  1  0.09551000  0.49084000  0.80950000  1.0
  C  C69  1  0.34543000  0.03371000  0.86285000  1.0
  C  C70  1  0.29102000  0.10390000  0.86260000  1.0
  C  C71  1  0.36601000  0.05213000  0.74320000  1.0
  C  C72  1  0.39044000  0.20428000  0.74293000  1.0
  C  C73  1  0.46327000  0.14597000  0.75414000  1.0
  C  C74  1  0.28215000  0.09951000  0.75400000  1.0
  C  C75  1  0.08463000  0.60439000  0.67466000  1.0
  C  C76  1  0.24134000  0.60429000  0.67473000  1.0
  C  C77  1  0.22838000  0.50964000  0.69981000  1.0
  C  C78  1  0.07235000  0.50975000  0.69978000  1.0
  C  C79  1  0.20822000  0.96553000  0.13738000  1.0
  C  C80  1  0.15348000  0.89518000  0.13791000  1.0
  C  C81  1  0.10942000  0.94730000  0.25705000  1.0
  C  C82  1  0.13367000  0.79507000  0.25756000  1.0
  C  C83  1  0.21773000  0.85355000  0.24606000  1.0
  C  C84  1  0.03626000  0.89992000  0.24641000  1.0
  C  C85  1  0.79161000  0.03390000  0.86238000  1.0
  C  C86  1  0.84618000  0.10404000  0.86227000  1.0
  C  C87  1  0.89092000  0.05242000  0.74280000  1.0
  C  C88  1  0.86656000  0.20450000  0.74257000  1.0
  C  C89  1  0.78255000  0.14627000  0.75374000  1.0
  C  C90  1  0.96384000  0.09974000  0.75374000  1.0
  C  C91  1  0.08218000  0.96225000  0.46765000  1.0
  C  C92  1  0.88976000  0.97897000  0.52373000  1.0
  C  C93  1  0.05436000  0.05587000  0.52297000  1.0
  C  C94  1  0.03217000  0.01190000  0.41706000  1.0
  C  C95  1  0.94082000  0.93252000  0.57464000  1.0
  C  C96  1  0.00062000  0.10358000  0.47465000  1.0
  I  I1  1  0.32279000  0.65740000  0.35303000  1.0
  I  I2  1  0.67914000  0.34847000  0.64114000  1.0
  I  I3  1  0.26424000  0.35515000  0.47034000  1.0
  I  I4  1  0.73484000  0.64745000  0.52881000  1.0
  I  I5  1  0.52082000  0.50450000  0.26897000  1.0
  I  I6  1  0.79010000  0.49649000  0.73349000  1.0
  I  I7  1  0.47595000  0.49689000  0.73344000  1.0
  I  I8  1  0.21024000  0.50478000  0.26849000  1.0
  I  I9  1  0.41059000  0.82750000  0.86555000  1.0
  I  I10  1  0.27618000  0.17264000  0.13470000  1.0
  I  I11  1  0.58815000  0.17269000  0.13487000  1.0
  I  I12  1  0.72351000  0.82777000  0.86541000  1.0
  I  I13  1  0.81950000  0.98924000  0.36041000  1.0
  I  I14  1  0.76273000  0.17582000  0.47258000  1.0
  I  I15  1  0.95176000  0.91930000  0.09702000  1.0
  I  I16  1  0.83511000  0.69577000  0.32911000  1.0
  I  I17  1  0.70873000  0.22961000  0.26729000  1.0
  I  I18  1  0.77707000  0.69331000  0.13463000  1.0
  I  I19  1  0.17610000  0.01103000  0.64716000  1.0
  I  I20  1  0.23477000  0.82613000  0.52890000  1.0
  I  I21  1  0.04770000  0.08058000  0.90399000  1.0
  I  I22  1  0.16430000  0.30214000  0.67184000  1.0
  I  I23  1  0.28915000  0.77391000  0.73087000  1.0
  I  I24  1  0.22263000  0.30703000  0.86541000  1.0
  I  I25  1  0.54841000  0.01706000  0.90308000  1.0
  I  I26  1  0.45191000  0.98365000  0.09608000  1.0
  I  I27  1  0.66310000  0.02486000  0.67220000  1.0
  I  I28  1  0.33702000  0.97367000  0.32704000  1.0
  I  I29  1  0.02267000  0.22950000  0.26730000  1.0
  I  I30  1  0.08909000  0.69242000  0.13542000  1.0
  I  I31  1  0.97892000  0.77274000  0.73081000  1.0
  I  I32  1  0.91129000  0.30790000  0.86449000  1.0
  N  N1  1  0.42227000  0.67195000  0.15612000  1.0
  N  N2  1  0.57798000  0.32871000  0.84335000  1.0
  N  N3  1  0.35177000  0.33271000  0.29658000  1.0
  N  N4  1  0.64760000  0.66807000  0.70451000  1.0
  N  N5  1  0.62628000  0.78297000  0.74709000  1.0
  N  N6  1  0.37210000  0.21664000  0.25496000  1.0
  N  N7  1  0.45602000  0.50585000  0.46115000  1.0
  N  N8  1  0.91143000  0.50196000  0.54568000  1.0
  N  N9  1  0.54225000  0.50168000  0.54557000  1.0
  N  N10  1  0.92109000  0.17089000  0.15754000  1.0
  N  N11  1  0.85124000  0.37202000  0.29654000  1.0
  N  N12  1  0.87335000  0.52961000  0.25279000  1.0
  N  N13  1  0.58720000  0.04736000  0.45478000  1.0
  N  N14  1  0.58203000  0.94226000  0.21203000  1.0
  N  N15  1  0.70582000  0.84485000  0.21305000  1.0
  N  N16  1  0.07731000  0.82848000  0.84354000  1.0
  N  N17  1  0.14906000  0.62952000  0.70255000  1.0
  N  N18  1  0.12761000  0.47173000  0.74529000  1.0
  N  N19  1  0.41797000  0.05764000  0.78764000  1.0
  N  N20  1  0.29393000  0.15471000  0.78726000  1.0
  N  N21  1  0.20575000  0.94185000  0.21249000  1.0
  N  N22  1  0.79441000  0.05791000  0.78710000  1.0
  N  N23  1  0.95673000  0.04771000  0.45503000  1.0
  N  N24  1  0.48996000  0.78046000  0.02028000  1.0
  N  N25  1  0.51027000  0.21973000  0.97918000  1.0
  N  N26  1  0.08184000  0.50589000  0.46110000  1.0
  N  N27  1  0.98888000  0.19943000  0.02111000  1.0
  N  N28  1  0.41700000  0.96669000  0.53933000  1.0
  N  N29  1  0.01070000  0.80021000  0.97969000  1.0
  N  N30  1  0.08120000  0.84450000  0.21337000  1.0
  N  N31  1  0.91865000  0.15490000  0.78700000  1.0
  N  N32  1  0.04330000  0.96693000  0.53887000  1.0
