# generated using pymatgen
data_Cr3H37C30NO13
_symmetry_space_group_name_H-M   'P 1'
_cell_length_a   11.40943000
_cell_length_b   18.70318000
_cell_length_c   19.63622000
_cell_angle_alpha   90.31057000
_cell_angle_beta   89.98699000
_cell_angle_gamma   89.84957000
_symmetry_Int_Tables_number   1
_chemical_formula_structural   Cr3H37C30NO13
_chemical_formula_sum   'Cr12 H148 C120 N4 O52'
_cell_volume   4190.14837011
_cell_formula_units_Z   4
loop_
 _symmetry_equiv_pos_site_id
 _symmetry_equiv_pos_as_xyz
  1  'x, y, z'
loop_
 _atom_site_type_symbol
 _atom_site_label
 _atom_site_symmetry_multiplicity
 _atom_site_fract_x
 _atom_site_fract_y
 _atom_site_fract_z
 _atom_site_occupancy
  Cr  Cr0  1  0.49286000  0.74531000  0.88569000  1
  Cr  Cr1  1  0.17859000  0.24699000  0.11188000  1
  Cr  Cr2  1  0.67859000  0.75301000  0.38812000  1
  Cr  Cr3  1  0.67859000  0.24699000  0.61188000  1
  Cr  Cr4  1  0.49286000  0.25469000  0.11431000  1
  Cr  Cr5  1  0.99286000  0.74531000  0.38569000  1
  Cr  Cr6  1  0.99286000  0.25469000  0.61431000  1
  Cr  Cr7  1  0.33227000  0.74819000  0.72988000  1
  Cr  Cr8  1  0.33227000  0.25181000  0.27012000  1
  Cr  Cr9  1  0.83227000  0.74819000  0.22988000  1
  Cr  Cr10  1  0.83227000  0.25181000  0.77012000  1
  Cr  Cr11  1  0.17859000  0.75301000  0.88812000  1
  H  H12  1  0.12357000  0.44416000  0.64007000  1
  H  H13  1  0.91068000  0.53478000  0.18835000  1
  H  H14  1  0.02278000  0.94017000  0.54119000  1
  H  H15  1  0.84021000  0.04494000  0.61186000  1
  H  H16  1  0.78478000  0.95556000  0.38501000  1
  H  H17  1  0.35152000  0.03556000  0.10947000  1
  H  H18  1  0.34076000  0.96161000  0.88930000  1
  H  H19  1  0.85056000  0.91992000  0.59965000  1
  H  H20  1  0.82732000  0.07895000  0.39976000  1
  H  H21  1  0.32848000  0.91543000  0.09760000  1
  H  H22  1  0.31967000  0.08388000  0.90190000  1
  H  H23  1  0.19172000  0.07130000  0.95429000  1
  H  H24  1  0.38161000  0.46229000  0.28309000  1
  H  H25  1  0.19460000  0.92818000  0.05051000  1
  H  H26  1  0.69617000  0.07969000  0.45046000  1
  H  H27  1  0.71058000  0.92203000  0.56009000  1
  H  H28  1  0.20080000  0.95219000  0.92766000  1
  H  H29  1  0.20669000  0.04789000  0.07767000  1
  H  H30  1  0.68446000  0.96044000  0.45361000  1
  H  H31  1  0.70257000  0.04434000  0.57070000  1
  H  H32  1  0.10291000  0.56590000  0.64906000  1
  H  H33  1  0.07210000  0.42909000  0.35236000  1
  H  H34  1  0.60292000  0.56590000  0.14906000  1
  H  H35  1  0.41067000  0.53478000  0.68835000  1
  H  H36  1  0.57209000  0.42909000  0.85236000  1
  H  H37  1  0.91436000  0.47230000  0.69445000  1
  H  H38  1  0.87039000  0.53438000  0.27610000  1
  H  H39  1  0.41436000  0.47230000  0.19445000  1
  H  H40  1  0.37039000  0.53437000  0.77611000  1
  H  H41  1  0.92716000  0.59124000  0.70831000  1
  H  H42  1  0.90991000  0.41232000  0.27946000  1
  H  H43  1  0.42716000  0.59124000  0.20831000  1
  H  H44  1  0.40991000  0.41232000  0.77946000  1
  H  H45  1  0.06097000  0.42782000  0.85688000  1
  H  H46  1  0.91371000  0.58187000  0.79853000  1
  H  H47  1  0.08840000  0.56993000  0.14466000  1
  H  H48  1  0.56097000  0.42781000  0.35688000  1
  H  H49  1  0.58840000  0.56993000  0.64466000  1
  H  H50  1  0.20434000  0.42242000  0.81866000  1
  H  H51  1  0.21732000  0.57793000  0.19603000  1
  H  H52  1  0.70434000  0.42242000  0.31866000  1
  H  H53  1  0.71731000  0.57793000  0.69603000  1
  H  H54  1  0.21890000  0.54446000  0.84163000  1
  H  H55  1  0.24069000  0.45636000  0.19603000  1
  H  H56  1  0.71890000  0.54446000  0.34163000  1
  H  H57  1  0.92318000  0.41707000  0.18838000  1
  H  H58  1  0.74069000  0.45636000  0.69603000  1
  H  H59  1  0.23836000  0.13275000  0.65998000  1
  H  H60  1  0.21326000  0.04675000  0.63178000  1
  H  H61  1  0.26051000  0.84642000  0.29572000  1
  H  H62  1  0.25944000  0.92188000  0.34510000  1
  H  H63  1  0.75818000  0.15019000  0.18548000  1
  H  H64  1  0.70861000  0.08124000  0.13543000  1
  H  H65  1  0.73995000  0.86511000  0.83838000  1
  H  H66  1  0.71254000  0.95047000  0.86778000  1
  H  H67  1  0.41371000  0.58187000  0.29853000  1
  H  H68  1  0.42318000  0.41707000  0.68838000  1
  H  H69  1  0.14058000  0.43729000  0.03053000  1
  H  H70  1  0.15009000  0.56103000  0.95329000  1
  H  H71  1  0.64058000  0.43729000  0.53053000  1
  H  H72  1  0.09552000  0.55325000  0.36326000  1
  H  H73  1  0.65009000  0.56103000  0.45329000  1
  H  H74  1  0.17665000  0.43557000  0.94453000  1
  H  H75  1  0.16384000  0.55981000  0.04002000  1
  H  H76  1  0.67665000  0.43557000  0.44453000  1
  H  H77  1  0.66384000  0.55980000  0.54002000  1
  H  H78  1  0.82458000  0.46323000  0.60800000  1
  H  H79  1  0.89229000  0.54062000  0.38354000  1
  H  H80  1  0.32458000  0.46323000  0.10800000  1
  H  H81  1  0.39229000  0.54062000  0.88354000  1
  H  H82  1  0.83844000  0.58367000  0.59816000  1
  H  H83  1  0.62357000  0.44416000  0.14008000  1
  H  H84  1  0.86515000  0.41831000  0.39969000  1
  H  H85  1  0.33843000  0.58367000  0.09817000  1
  H  H86  1  0.36515000  0.41831000  0.89970000  1
  H  H87  1  0.49409000  0.42260000  0.95233000  1
  H  H88  1  0.47941000  0.57470000  0.05931000  1
  H  H89  1  0.99409000  0.42260000  0.45233000  1
  H  H90  1  0.97941000  0.57470000  0.55930000  1
  H  H91  1  0.50189000  0.53936000  0.94840000  1
  H  H92  1  0.47345000  0.45561000  0.08056000  1
  H  H93  1  0.00189000  0.53936000  0.44840000  1
  H  H94  1  0.59552000  0.55325000  0.86326000  1
  H  H95  1  0.97345000  0.45561000  0.58056000  1
  H  H96  1  0.94500000  0.06586000  0.83593000  1
  H  H97  1  0.92018000  0.94154000  0.18191000  1
  H  H98  1  0.44469000  0.06317000  0.33368000  1
  H  H99  1  0.44285000  0.93521000  0.66505000  1
  H  H100  1  0.23350000  0.44002000  0.70149000  1
  H  H101  1  0.21814000  0.55365000  0.31269000  1
  H  H102  1  0.73350000  0.44001000  0.20149000  1
  H  H103  1  0.71813000  0.55365000  0.81269000  1
  H  H104  1  0.09502000  0.06811000  0.85731000  1
  H  H105  1  0.06695000  0.54508000  0.86481000  1
  H  H106  1  0.05422000  0.93007000  0.14137000  1
  H  H107  1  0.59117000  0.07571000  0.35958000  1
  H  H108  1  0.59153000  0.93102000  0.64263000  1
  H  H109  1  0.05102000  0.94942000  0.87054000  1
  H  H110  1  0.05088000  0.04841000  0.13099000  1
  H  H111  1  0.58803000  0.95497000  0.37048000  1
  H  H112  1  0.55359000  0.05020000  0.62935000  1
  H  H113  1  0.93997000  0.94971000  0.81075000  1
  H  H114  1  0.94014000  0.05939000  0.19016000  1
  H  H115  1  0.45881000  0.94683000  0.32925000  1
  H  H116  1  0.12347000  0.45038000  0.13532000  1
  H  H117  1  0.44138000  0.05215000  0.68890000  1
  H  H118  1  0.92013000  0.03713000  0.70424000  1
  H  H119  1  0.94286000  0.95568000  0.33411000  1
  H  H120  1  0.42064000  0.04518000  0.20460000  1
  H  H121  1  0.42003000  0.96490000  0.79560000  1
  H  H122  1  0.95792000  0.91650000  0.69338000  1
  H  H123  1  0.95703000  0.07862000  0.30823000  1
  H  H124  1  0.44046000  0.92230000  0.20935000  1
  H  H125  1  0.46079000  0.08453000  0.80904000  1
  H  H126  1  0.25166000  0.09332000  0.77660000  1
  H  H127  1  0.56695000  0.54508000  0.36481000  1
  H  H128  1  0.22713000  0.91199000  0.19490000  1
  H  H129  1  0.75207000  0.08488000  0.28600000  1
  H  H130  1  0.75001000  0.90490000  0.72252000  1
  H  H131  1  0.25014000  0.97919000  0.80524000  1
  H  H132  1  0.25263000  0.02873000  0.19223000  1
  H  H133  1  0.79456000  0.96408000  0.27455000  1
  H  H134  1  0.75106000  0.01811000  0.69411000  1
  H  H135  1  0.28067000  0.95466000  0.71761000  1
  H  H136  1  0.27801000  0.03718000  0.28275000  1
  H  H137  1  0.74518000  0.96235000  0.18879000  1
  H  H138  1  0.62347000  0.45038000  0.63532000  1
  H  H139  1  0.78219000  0.04331000  0.78171000  1
  H  H140  1  0.02404000  0.05162000  0.64060000  1
  H  H141  1  0.08797000  0.95528000  0.35824000  1
  H  H142  1  0.53139000  0.04819000  0.14308000  1
  H  H143  1  0.52308000  0.94821000  0.85881000  1
  H  H144  1  0.23936000  0.56342000  0.68701000  1
  H  H145  1  0.21862000  0.43252000  0.32672000  1
  H  H146  1  0.73937000  0.56342000  0.18702000  1
  H  H147  1  0.71862000  0.43252000  0.82672000  1
  H  H148  1  0.09381000  0.93329000  0.64969000  1
  H  H149  1  0.88161000  0.46229000  0.78309000  1
  H  H150  1  0.09799000  0.07478000  0.34902000  1
  H  H151  1  0.56383000  0.92620000  0.15421000  1
  H  H152  1  0.59887000  0.06534000  0.84951000  1
  H  H153  1  0.54592000  0.05966000  0.03631000  1
  H  H154  1  0.54664000  0.94001000  0.96235000  1
  H  H155  1  0.04564000  0.05913000  0.53482000  1
  H  H156  1  0.03905000  0.94187000  0.45450000  1
  H  H157  1  0.51372000  0.06009000  0.94907000  1
  H  H158  1  0.51611000  0.94059000  0.04873000  1
  H  H159  1  0.01379000  0.06320000  0.44803000  1
  C  C160  1  0.52327000  0.63901000  0.76133000  1
  C  C161  1  0.05592000  0.56271000  0.25333000  1
  C  C162  1  0.03407000  0.15150000  0.73937000  1
  C  C163  1  0.13348000  0.85913000  0.77438000  1
  C  C164  1  0.13368000  0.14089000  0.22562000  1
  C  C165  1  0.63450000  0.85952000  0.27461000  1
  C  C166  1  0.63454000  0.14053000  0.72532000  1
  C  C167  1  0.35368000  0.85370000  0.96862000  1
  C  C168  1  0.35379000  0.14618000  0.03146000  1
  C  C169  1  0.85365000  0.85428000  0.46793000  1
  C  C170  1  0.85377000  0.14681000  0.53063000  1
  C  C171  1  0.14582000  0.46247000  0.69184000  1
  C  C172  1  0.55989000  0.43590000  0.24742000  1
  C  C173  1  0.12696000  0.53328000  0.31482000  1
  C  C174  1  0.64582000  0.46247000  0.19184000  1
  C  C175  1  0.62696000  0.53328000  0.81482000  1
  C  C176  1  0.15023000  0.54442000  0.69385000  1
  C  C177  1  0.12989000  0.45121000  0.31302000  1
  C  C178  1  0.65023000  0.54442000  0.19385000  1
  C  C179  1  0.62989000  0.45121000  0.81302000  1
  C  C180  1  0.94508000  0.48081000  0.74486000  1
  C  C181  1  0.94001000  0.52001000  0.24010000  1
  C  C182  1  0.44508000  0.48081000  0.24486000  1
  C  C183  1  0.55592000  0.56271000  0.75333000  1
  C  C184  1  0.44001000  0.52001000  0.74010000  1
  C  C185  1  0.09266000  0.57360000  0.76051000  1
  C  C186  1  0.08809000  0.42460000  0.24197000  1
  C  C187  1  0.59266000  0.57360000  0.26051000  1
  C  C188  1  0.58809000  0.42460000  0.74196000  1
  C  C189  1  0.96191000  0.56183000  0.75303000  1
  C  C190  1  0.95761000  0.43883000  0.23728000  1
  C  C191  1  0.46192000  0.56183000  0.25303000  1
  C  C192  1  0.52537000  0.36007000  0.23918000  1
  C  C193  1  0.45761000  0.43883000  0.73728000  1
  C  C194  1  0.13043000  0.53026000  0.82455000  1
  C  C195  1  0.15046000  0.46844000  0.18624000  1
  C  C196  1  0.63042000  0.53026000  0.32455000  1
  C  C197  1  0.65046000  0.46844000  0.68624000  1
  C  C198  1  0.20577000  0.45697000  0.99388000  1
  C  C199  1  0.20578000  0.53965000  0.99279000  1
  C  C200  1  0.70576000  0.45697000  0.49388000  1
  C  C201  1  0.70578000  0.53965000  0.49279000  1
  C  C202  1  0.38458000  0.47395000  0.06800000  1
  C  C203  1  0.02328000  0.63901000  0.26133000  1
  C  C204  1  0.41014000  0.52535000  0.93628000  1
  C  C205  1  0.88458000  0.47395000  0.56800000  1
  C  C206  1  0.91013000  0.52535000  0.43628000  1
  C  C207  1  0.40420000  0.44442000  0.94524000  1
  C  C208  1  0.38764000  0.55507000  0.05747000  1
  C  C209  1  0.90420000  0.44441000  0.44524000  1
  C  C210  1  0.88764000  0.55507000  0.55747000  1
  C  C211  1  0.33202000  0.42992000  0.00835000  1
  C  C212  1  0.33346000  0.56849000  0.98829000  1
  C  C213  1  0.83202000  0.42992000  0.50835000  1
  C  C214  1  0.02537000  0.36007000  0.73918000  1
  C  C215  1  0.83346000  0.56849000  0.48829000  1
  C  C216  1  0.03280000  0.04802000  0.81864000  1
  C  C217  1  0.01254000  0.95499000  0.18698000  1
  C  C218  1  0.53663000  0.04976000  0.32030000  1
  C  C219  1  0.53121000  0.95220000  0.68162000  1
  C  C220  1  0.12220000  0.64910000  0.77434000  1
  C  C221  1  0.11874000  0.34925000  0.22716000  1
  C  C222  1  0.62220000  0.64910000  0.27434000  1
  C  C223  1  0.61874000  0.34925000  0.72716000  1
  C  C224  1  0.02972000  0.96755000  0.81893000  1
  C  C225  1  0.11761000  0.44939000  0.81575000  1
  C  C226  1  0.02483000  0.03459000  0.18322000  1
  C  C227  1  0.54680000  0.96981000  0.32373000  1
  C  C228  1  0.53049000  0.03273000  0.68095000  1
  C  C229  1  0.00932000  0.03008000  0.69158000  1
  C  C230  1  0.02979000  0.96995000  0.31688000  1
  C  C231  1  0.50911000  0.03127000  0.19471000  1
  C  C232  1  0.50938000  0.97037000  0.80824000  1
  C  C233  1  0.20242000  0.06073000  0.73862000  1
  C  C234  1  0.20038000  0.93623000  0.24422000  1
  C  C235  1  0.70524000  0.06185000  0.24142000  1
  C  C236  1  0.13222000  0.54967000  0.19124000  1
  C  C237  1  0.70196000  0.93800000  0.76079000  1
  C  C238  1  0.07126000  0.07537000  0.74670000  1
  C  C239  1  0.06866000  0.92511000  0.25330000  1
  C  C240  1  0.57395000  0.07636000  0.24878000  1
  C  C241  1  0.57053000  0.92455000  0.75322000  1
  C  C242  1  0.10540000  0.93627000  0.75978000  1
  C  C243  1  0.10550000  0.06372000  0.24019000  1
  C  C244  1  0.60846000  0.93712000  0.26041000  1
  C  C245  1  0.60664000  0.06336000  0.73996000  1
  C  C246  1  0.03891000  0.94913000  0.69401000  1
  C  C247  1  0.61761000  0.44939000  0.31575000  1
  C  C248  1  0.04363000  0.05158000  0.30757000  1
  C  C249  1  0.52547000  0.94931000  0.20122000  1
  C  C250  1  0.54106000  0.05088000  0.80616000  1
  C  C251  1  0.21963000  0.98005000  0.75400000  1
  C  C252  1  0.21931000  0.01853000  0.24153000  1
  C  C253  1  0.72248000  0.97906000  0.24132000  1
  C  C254  1  0.72048000  0.01847000  0.74536000  1
  C  C255  1  0.48111000  0.04073000  0.99857000  1
  C  C256  1  0.48143000  0.95943000  0.99948000  1
  C  C257  1  0.98062000  0.04179000  0.49657000  1
  C  C258  1  0.63221000  0.54967000  0.69124000  1
  C  C259  1  0.98056000  0.96081000  0.49428000  1
  C  C260  1  0.29466000  0.02662000  0.06754000  1
  C  C261  1  0.29001000  0.97276000  0.93364000  1
  C  C262  1  0.79474000  0.02783000  0.56730000  1
  C  C263  1  0.77482000  0.97345000  0.43780000  1
  C  C264  1  0.28403000  0.05418000  0.94613000  1
  C  C265  1  0.28756000  0.94532000  0.05506000  1
  C  C266  1  0.78446000  0.05531000  0.44497000  1
  C  C267  1  0.79947000  0.94543000  0.55853000  1
  C  C268  1  0.34238000  0.64468000  0.96830000  1
  C  C269  1  0.05989000  0.43590000  0.74742000  1
  C  C270  1  0.34187000  0.35405000  0.02970000  1
  C  C271  1  0.84238000  0.64468000  0.46830000  1
  C  C272  1  0.84187000  0.35405000  0.52970000  1
  C  C273  1  0.35383000  0.06945000  0.01008000  1
  C  C274  1  0.35365000  0.93035000  0.98978000  1
  C  C275  1  0.85398000  0.07022000  0.50921000  1
  C  C276  1  0.85327000  0.93114000  0.48900000  1
  C  C277  1  0.53334000  0.84863000  0.76074000  1
  C  C278  1  0.53596000  0.15240000  0.24019000  1
  C  C279  1  0.03178000  0.84921000  0.26112000  1
  N  N280  1  0.24784000  0.07851000  0.67070000  1
  N  N281  1  0.27317000  0.90171000  0.29618000  1
  N  N282  1  0.75377000  0.09467000  0.17979000  1
  N  N283  1  0.74797000  0.91958000  0.82842000  1
  O  O284  1  0.44941000  0.66548000  0.95721000  1
  O  O285  1  0.09530000  0.16400000  0.16748000  1
  O  O286  1  0.59530000  0.83600000  0.33252000  1
  O  O287  1  0.59530000  0.16400000  0.66748000  1
  O  O288  1  0.25394000  0.82694000  0.94638000  1
  O  O289  1  0.25394000  0.17306000  0.05362000  1
  O  O290  1  0.75394000  0.82694000  0.44638000  1
  O  O291  1  0.75394000  0.17306000  0.55362000  1
  O  O292  1  0.33457000  0.74884000  0.83456000  1
  O  O293  1  0.33457000  0.25116000  0.16544000  1
  O  O294  1  0.83457000  0.74884000  0.33456000  1
  O  O295  1  0.44941000  0.33452000  0.04279000  1
  O  O296  1  0.83457000  0.25116000  0.66544000  1
  O  O297  1  0.54124000  0.66825000  0.82073000  1
  O  O298  1  0.54124000  0.33175000  0.17927000  1
  O  O299  1  0.04124000  0.66825000  0.32073000  1
  O  O300  1  0.04124000  0.33175000  0.67927000  1
  O  O301  1  0.45506000  0.66371000  0.71424000  1
  O  O302  1  0.45506000  0.33629000  0.28576000  1
  O  O303  1  0.95506000  0.66371000  0.21424000  1
  O  O304  1  0.95506000  0.33629000  0.78576000  1
  O  O305  1  0.20487000  0.67591000  0.73678000  1
  O  O306  1  0.94941000  0.66548000  0.45721000  1
  O  O307  1  0.20487000  0.32409000  0.26322000  1
  O  O308  1  0.70487000  0.67591000  0.23678000  1
  O  O309  1  0.70487000  0.32409000  0.76322000  1
  O  O310  1  0.08759000  0.67349000  0.83307000  1
  O  O311  1  0.08759000  0.32651000  0.16693000  1
  O  O312  1  0.58759000  0.67349000  0.33307000  1
  O  O313  1  0.58759000  0.32651000  0.66693000  1
  O  O314  1  0.24680000  0.67630000  0.94689000  1
  O  O315  1  0.24680000  0.32370000  0.05311000  1
  O  O316  1  0.74680000  0.67630000  0.44689000  1
  O  O317  1  0.94941000  0.33452000  0.54279000  1
  O  O318  1  0.74680000  0.32370000  0.55311000  1
  O  O319  1  0.45712000  0.82798000  0.95665000  1
  O  O320  1  0.45712000  0.17202000  0.04335000  1
  O  O321  1  0.95712000  0.82798000  0.45665000  1
  O  O322  1  0.95712000  0.17202000  0.54335000  1
  O  O323  1  0.54839000  0.81889000  0.82022000  1
  O  O324  1  0.54839000  0.18111000  0.17978000  1
  O  O325  1  0.04839000  0.81889000  0.32022000  1
  O  O326  1  0.04839000  0.18111000  0.67978000  1
  O  O327  1  0.46277000  0.82621000  0.71368000  1
  O  O328  1  0.21201000  0.82656000  0.73626000  1
  O  O329  1  0.46277000  0.17379000  0.28632000  1
  O  O330  1  0.96277000  0.82621000  0.21368000  1
  O  O331  1  0.96277000  0.17379000  0.78632000  1
  O  O332  1  0.21201000  0.17344000  0.26374000  1
  O  O333  1  0.71201000  0.82656000  0.23626000  1
  O  O334  1  0.71201000  0.17344000  0.76374000  1
  O  O335  1  0.09530000  0.83600000  0.83252000  1
