# generated using pymatgen
data_H8C18N5O8
_symmetry_space_group_name_H-M   'P 1'
_cell_length_a   21.99840000
_cell_length_b   40.46420000
_cell_length_c   40.46420000
_cell_angle_alpha   90.00000000
_cell_angle_beta   90.00000000
_cell_angle_gamma   90.00000000
_symmetry_Int_Tables_number   1
_chemical_formula_structural   H8C18N5O8
_chemical_formula_sum   'H128 C288 N80 O128'
_cell_volume   36019.11283371
_cell_formula_units_Z   16
loop_
 _symmetry_equiv_pos_site_id
 _symmetry_equiv_pos_as_xyz
  1  'x, y, z'
loop_
 _atom_site_type_symbol
 _atom_site_label
 _atom_site_symmetry_multiplicity
 _atom_site_fract_x
 _atom_site_fract_y
 _atom_site_fract_z
 _atom_site_occupancy
  C  1  1  0.13031700  0.12322100  0.10446500  1
  C  2  1  0.15866500  0.10657000  0.13096200  1
  C  3  1  0.17221200  0.07233000  0.12931300  1
  C  4  1  0.15771500  0.05461000  0.09969300  1
  C  5  1  0.12160300  0.07034000  0.07509600  1
  C  6  1  0.10952400  0.10440400  0.07742700  1
  C  9  1  0.11761600  0.15767100  0.10488200  1
  C  10  1  0.08629200  0.17295800  0.13117400  1
  C  11  1  0.06674000  0.20630500  0.12924600  1
  C  12  1  0.07803500  0.22435200  0.09939200  1
  C  13  1  0.11743400  0.21053600  0.07509700  1
  C  14  1  0.13551800  0.17726700  0.07777900  1
  C  23  1  0.61753500  0.65584900  0.10635400  1
  C  24  1  0.64260900  0.67521700  0.08079700  1
  C  25  1  0.64994400  0.70985500  0.08389900  1
  C  26  1  0.63085600  0.72532600  0.11400600  1
  C  27  1  0.59720400  0.70647700  0.13758000  1
  C  28  1  0.59293000  0.67188600  0.13416600  1
  C  31  1  0.62299600  0.62092700  0.10503800  1
  C  32  1  0.60072900  0.60277500  0.07796500  1
  C  33  1  0.61480700  0.56899000  0.07438400  1
  C  34  1  0.65568800  0.55345800  0.09692200  1
  C  35  1  0.67261600  0.57047800  0.12657300  1
  C  36  1  0.65572400  0.60411500  0.12984700  1
  C  45  1  0.62644000  0.15846700  0.60846900  1
  C  46  1  0.60018800  0.17504500  0.63556200  1
  C  47  1  0.58667600  0.20922100  0.63424500  1
  C  48  1  0.59938200  0.22703900  0.60446800  1
  C  49  1  0.63360600  0.21126500  0.57902300  1
  C  50  1  0.64513900  0.17705700  0.58086400  1
  C  53  1  0.63086000  0.12352800  0.60808400  1
  C  54  1  0.66113400  0.10591300  0.63319700  1
  C  55  1  0.66267000  0.07100100  0.63306600  1
  C  56  1  0.63122400  0.05289000  0.60800700  1
  C  57  1  0.60018400  0.07093400  0.58283400  1
  C  58  1  0.60094700  0.10576000  0.58296000  1
  C  67  1  0.12011100  0.62319100  0.60905700  1
  C  68  1  0.09076400  0.60585700  0.58343000  1
  C  69  1  0.09045500  0.57094500  0.58273800  1
  C  70  1  0.12217100  0.55256800  0.60749800  1
  C  71  1  0.15239100  0.57032400  0.63317000  1
  C  72  1  0.15035600  0.60513500  0.63386400  1
  C  75  1  0.12339700  0.65817700  0.60943500  1
  C  76  1  0.14893700  0.67561300  0.58267600  1
  C  77  1  0.16145600  0.70986800  0.58473500  1
  C  78  1  0.14843200  0.72687500  0.61494600  1
  C  79  1  0.11464800  0.71024800  0.64003800  1
  C  80  1  0.10423000  0.67598300  0.63746000  1
  C  89  1  0.38207500  0.89117400  0.34154700  1
  C  90  1  0.35827900  0.91734500  0.32248000  1
  C  91  1  0.35053700  0.91488300  0.28780500  1
  C  92  1  0.36724700  0.88461700  0.27181600  1
  C  93  1  0.39814500  0.85983700  0.29047700  1
  C  94  1  0.40414100  0.86302300  0.32497900  1
  C  97  1  0.37915800  0.89240900  0.37665900  1
  C  98  1  0.39900000  0.92040700  0.39432200  1
  C  99  1  0.38860300  0.92319900  0.42856900  1
  C  100  1  0.35521100  0.89829800  0.44566600  1
  C  101  1  0.34103200  0.86818800  0.42880900  1
  C  102  1  0.35288300  0.86605000  0.39449500  1
  C  111  1  0.87088800  0.89416100  0.87673400  1
  C  112  1  0.84372800  0.86826400  0.89479400  1
  C  113  1  0.83249600  0.87086400  0.92920000  1
  C  114  1  0.84864700  0.90091100  0.94576500  1
  C  115  1  0.88258100  0.92526100  0.92824100  1
  C  116  1  0.89241400  0.92196900  0.89403300  1
  C  119  1  0.87841300  0.89226800  0.84195000  1
  C  120  1  0.90789700  0.86522700  0.82699300  1
  C  121  1  0.91570400  0.86382800  0.79240500  1
  C  122  1  0.89233600  0.88947600  0.77172700  1
  C  123  1  0.86170000  0.91657400  0.78697500  1
  C  124  1  0.85575200  0.91778700  0.82167500  1
  C  133  1  0.87048200  0.39083000  0.37501800  1
  C  134  1  0.89718000  0.41651200  0.39360300  1
  C  135  1  0.89373200  0.41702600  0.42844600  1
  C  136  1  0.86212800  0.39149000  0.44569800  1
  C  137  1  0.83516900  0.36555500  0.42682700  1
  C  138  1  0.83968300  0.36546400  0.39207300  1
  C  141  1  0.87368500  0.39059700  0.33985400  1
  C  142  1  0.85878400  0.41896800  0.32142500  1
  C  143  1  0.85847500  0.41901300  0.28647100  1
  C  144  1  0.87548800  0.38943800  0.26918400  1
  C  145  1  0.89179600  0.36049900  0.28769200  1
  C  146  1  0.88993800  0.36171300  0.32258700  1
  C  155  1  0.36948800  0.39290300  0.84030900  1
  C  156  1  0.39432100  0.36538700  0.82373100  1
  C  157  1  0.40811900  0.36642000  0.78958000  1
  C  158  1  0.39737600  0.39637500  0.77169800  1
  C  159  1  0.36534800  0.42256400  0.78756800  1
  C  160  1  0.35315100  0.42095300  0.82170700  1
  C  163  1  0.36183700  0.39268100  0.87512500  1
  C  164  1  0.33015900  0.36710500  0.89133200  1
  C  165  1  0.32560000  0.36639300  0.92612500  1
  C  166  1  0.35442400  0.39123000  0.94569300  1
  C  167  1  0.38672100  0.41689000  0.92910100  1
  C  168  1  0.38963600  0.41751000  0.89430500  1
  C  177  1  0.08767200  0.05199500  0.05155800  1
  C  178  1  0.09655600  0.05569800  0.01727100  1
  C  179  1  0.06173100  0.03722800  0.99437600  1
  C  180  1  0.01615300  0.01539400  0.00625800  1
  C  181  1  0.00559400  0.01223300  0.04084100  1
  C  182  1  0.04156500  0.03061600  0.06292600  1
  C  184  1  0.98466100  0.99448700  0.98388300  1
  C  185  1  0.00880000  0.96268100  0.97707400  1
  C  186  1  0.97435600  0.94043200  0.95784000  1
  C  187  1  0.91720600  0.94950400  0.94499700  1
  C  188  1  0.89525900  0.98177000  0.95027000  1
  C  189  1  0.92849400  0.00452300  0.96977400  1
  C  205  1  0.56358100  0.72187100  0.16329000  1
  C  206  1  0.57953200  0.71824500  0.19682700  1
  C  207  1  0.55029400  0.73715800  0.22161600  1
  C  208  1  0.50344900  0.75953400  0.21250200  1
  C  209  1  0.48532800  0.76231900  0.17881100  1
  C  210  1  0.51550000  0.74328500  0.15478500  1
  C  212  1  0.48069800  0.78251200  0.23600700  1
  C  213  1  0.51073600  0.81338100  0.23955000  1
  C  214  1  0.48347800  0.83829200  0.25895700  1
  C  215  1  0.42767500  0.83278900  0.27511500  1
  C  216  1  0.40028700  0.80136100  0.27323200  1
  C  217  1  0.42623500  0.77599800  0.25367400  1
  C  233  1  0.66275200  0.22958100  0.55359100  1
  C  234  1  0.64982800  0.22446700  0.51985000  1
  C  235  1  0.67752100  0.24415500  0.49514900  1
  C  236  1  0.71961000  0.26900600  0.50462700  1
  C  237  1  0.73427500  0.27376100  0.53858800  1
  C  238  1  0.70580000  0.25383400  0.56247500  1
  C  240  1  0.74432800  0.29072600  0.48058300  1
  C  241  1  0.71377800  0.32082700  0.47353500  1
  C  242  1  0.74338500  0.34493200  0.45407300  1
  C  243  1  0.80238400  0.33939900  0.44172400  1
  C  244  1  0.83038400  0.30850700  0.44689200  1
  C  245  1  0.80183200  0.28388100  0.46622500  1
  C  261  1  0.18811200  0.55462400  0.65776500  1
  C  262  1  0.16774800  0.55303700  0.69073900  1
  C  263  1  0.20055000  0.53505900  0.71481500  1
  C  264  1  0.25528100  0.51890600  0.70557700  1
  C  265  1  0.27759900  0.52160000  0.67262700  1
  C  266  1  0.24392200  0.53977900  0.64927300  1
  C  268  1  0.28184200  0.49580200  0.72769300  1
  C  269  1  0.26023200  0.46274300  0.72730800  1
  C  270  1  0.28826500  0.43912400  0.74790400  1
  C  271  1  0.33660100  0.44786300  0.76903600  1
  C  272  1  0.35561100  0.48109500  0.77045900  1
  C  273  1  0.32872600  0.50532600  0.74985100  1
  C  289  1  0.42876600  0.33678900  0.77376400  1
  C  290  1  0.40227400  0.32658000  0.74365000  1
  C  291  1  0.42758500  0.30100200  0.72456900  1
  C  292  1  0.47697900  0.28234900  0.73767000  1
  C  293  1  0.49936700  0.28961700  0.76990300  1
  C  294  1  0.47563200  0.31701600  0.78716600  1
  C  296  1  0.51013200  0.26113700  0.71627600  1
  C  297  1  0.48893200  0.22886200  0.70885700  1
  C  298  1  0.51526800  0.21146900  0.68208500  1
  C  299  1  0.56334500  0.22504600  0.66327600  1
  C  300  1  0.58825800  0.25544300  0.67382800  1
  C  301  1  0.56069000  0.27441300  0.69893200  1
  C  317  1  0.31837200  0.83945900  0.44557200  1
  C  318  1  0.34464600  0.82934400  0.47578100  1
  C  319  1  0.31885000  0.80413100  0.49517600  1
  C  320  1  0.26891000  0.78571000  0.48236700  1
  C  321  1  0.24610700  0.79302700  0.45024300  1
  C  322  1  0.27036800  0.82010800  0.43270600  1
  C  324  1  0.23657900  0.76408300  0.50373200  1
  C  325  1  0.25827100  0.73172400  0.51034800  1
  C  326  1  0.23246200  0.71361600  0.53679600  1
  C  327  1  0.18438000  0.72653900  0.55605700  1
  C  328  1  0.15899600  0.75709000  0.54628600  1
  C  329  1  0.18604800  0.77674600  0.52153300  1
  C  345  1  0.84095600  0.44921700  0.27041900  1
  C  346  1  0.87614400  0.46313800  0.24475600  1
  C  347  1  0.85196100  0.48742600  0.22351800  1
  C  348  1  0.79453800  0.50191300  0.23105900  1
  C  349  1  0.76307000  0.49191900  0.26004200  1
  C  350  1  0.78595800  0.46521400  0.27882200  1
  C  352  1  0.76262000  0.52042100  0.20661800  1
  C  353  1  0.77647400  0.55403800  0.20013800  1
  C  354  1  0.74754000  0.57015400  0.17332400  1
  C  355  1  0.70255000  0.55439700  0.15385700  1
  C  356  1  0.68520800  0.52212400  0.16333900  1
  C  357  1  0.71634600  0.50437000  0.18811700  1
  C  373  1  0.56487600  0.05546800  0.55793600  1
  C  374  1  0.58541000  0.05460100  0.52496800  1
  C  375  1  0.55317600  0.03677800  0.50055900  1
  C  376  1  0.49884200  0.02006000  0.50946600  1
  C  377  1  0.47630600  0.02204000  0.54242600  1
  C  378  1  0.50942000  0.04007800  0.56612300  1
  C  380  1  0.47316300  0.99699600  0.48702100  1
  C  381  1  0.49578100  0.96412900  0.48708500  1
  C  382  1  0.46794200  0.94036300  0.46658300  1
  C  383  1  0.41880700  0.94880700  0.44589600  1
  C  384  1  0.39882300  0.98187400  0.44471900  1
  C  385  1  0.42558100  0.00625100  0.46519700  1
  C  401  1  0.08536000  0.72773500  0.66601900  1
  C  402  1  0.09835500  0.72166800  0.69959900  1
  C  403  1  0.07090400  0.74072700  0.72486800  1
  C  404  1  0.02893200  0.76591000  0.71614700  1
  C  405  1  0.01418100  0.77161800  0.68233500  1
  C  406  1  0.04232900  0.75225300  0.65787800  1
  C  408  1  0.00528600  0.78739000  0.74072900  1
  C  409  1  0.03711400  0.81699700  0.74819300  1
  C  410  1  0.00818200  0.84140100  0.76756800  1
  C  411  1  0.94852000  0.83671600  0.77934100  1
  C  412  1  0.91931100  0.80619500  0.77394600  1
  C  413  1  0.94725400  0.78122700  0.75477400  1
  C  429  1  0.14597300  0.23027500  0.05050800  1
  C  430  1  0.13775800  0.22446000  0.01644600  1
  C  431  1  0.16646500  0.24466600  0.99251000  1
  C  432  1  0.20502700  0.27074600  0.00308700  1
  C  433  1  0.21487800  0.27629400  0.03744300  1
  C  434  1  0.18513100  0.25597700  0.06056100  1
  C  436  1  0.23190500  0.29231500  0.97953800  1
  C  437  1  0.20129500  0.32191900  0.97068300  1
  C  438  1  0.23202500  0.34568100  0.95128800  1
  C  439  1  0.29212500  0.34023900  0.94057300  1
  C  440  1  0.32059500  0.30987400  0.94771000  1
  C  441  1  0.29097900  0.28563500  0.96708300  1
  C  457  1  0.90812200  0.32946400  0.27294300  1
  C  458  1  0.87214000  0.31488400  0.24798500  1
  C  459  1  0.89511600  0.28938200  0.22781000  1
  C  460  1  0.95204300  0.27456900  0.23583500  1
  C  461  1  0.98411800  0.28542500  0.26431300  1
  C  462  1  0.96240800  0.31314600  0.28202200  1
  C  464  1  0.98369800  0.25559400  0.21165100  1
  C  465  1  0.96975100  0.22188800  0.20560500  1
  C  466  1  0.99728000  0.20564000  0.17840400  1
  C  467  1  0.04031100  0.22163500  0.15790900  1
  C  468  1  0.05845400  0.25386900  0.16706400  1
  C  469  1  0.02892400  0.27162300  0.19238200  1
  C  485  1  0.80957800  0.84240200  0.94644500  1
  C  486  1  0.83576600  0.83253900  0.97678300  1
  C  487  1  0.80982600  0.80762800  0.99652900  1
  C  488  1  0.75997400  0.78900200  0.98393500  1
  C  489  1  0.73741600  0.79590400  0.95165700  1
  C  490  1  0.76159500  0.82284900  0.93384100  1
  C  492  1  0.72829300  0.76702900  0.00531200  1
  C  493  1  0.75114000  0.73492200  0.01197100  1
  C  494  1  0.72498200  0.71624100  0.03790900  1
  C  495  1  0.67485500  0.72797200  0.05645500  1
  C  496  1  0.64891000  0.75839200  0.04665300  1
  C  497  1  0.67655300  0.77882200  0.02268400  1
  C  513  1  0.58096400  0.55035100  0.05105300  1
  C  514  1  0.58865600  0.55419200  0.01669900  1
  C  515  1  0.55639200  0.53399800  0.99412900  1
  C  516  1  0.51490900  0.51006600  0.00641800  1
  C  517  1  0.50558800  0.50665800  0.04108100  1
  C  518  1  0.53887500  0.52684900  0.06282600  1
  C  520  1  0.48497800  0.48819200  0.98431300  1
  C  521  1  0.51223200  0.45730800  0.97667100  1
  C  522  1  0.47926100  0.43409000  0.95772900  1
  C  523  1  0.42030200  0.44131400  0.94622700  1
  C  524  1  0.39507300  0.47270700  0.95240800  1
  C  525  1  0.42689300  0.49640500  0.97141200  1
  C  541  1  0.69725900  0.05509900  0.65805100  1
  C  542  1  0.67627400  0.05410900  0.69094500  1
  C  543  1  0.70576800  0.03439700  0.71495600  1
  C  544  1  0.75754500  0.01559200  0.70569600  1
  C  545  1  0.78051700  0.01747200  0.67282000  1
  C  546  1  0.75043300  0.03758500  0.64960200  1
  C  548  1  0.78143300  0.99179100  0.72801900  1
  C  549  1  0.75540400  0.95967100  0.72878800  1
  C  550  1  0.78179700  0.93523000  0.74916400  1
  C  551  1  0.83350200  0.94217900  0.76852200  1
  C  552  1  0.85680700  0.97464500  0.76892000  1
  C  553  1  0.83124100  0.99969600  0.74885800  1
  C  569  1  0.32793200  0.94327200  0.27024600  1
  C  570  1  0.35538800  0.95348500  0.24037100  1
  C  571  1  0.32996300  0.97845800  0.22046600  1
  C  572  1  0.27927700  0.99682500  0.23248400  1
  C  573  1  0.25512200  0.98944600  0.26430300  1
  C  574  1  0.27879100  0.96242900  0.28218300  1
  C  576  1  0.24747500  0.01834000  0.21067700  1
  C  577  1  0.26877300  0.05080400  0.20408700  1
  C  578  1  0.24298000  0.06888200  0.17756200  1
  C  579  1  0.19519000  0.05585200  0.15816500  1
  C  580  1  0.17005500  0.02523900  0.16802000  1
  C  581  1  0.19720500  0.00557600  0.19273700  1
  C  597  1  0.05688000  0.55531100  0.55718900  1
  C  598  1  0.07855400  0.55526900  0.52441200  1
  C  599  1  0.05014900  0.53585900  0.49977300  1
  C  600  1  0.99877200  0.51640000  0.50828400  1
  C  601  1  0.97511800  0.51729000  0.54106400  1
  C  602  1  0.00410300  0.53713000  0.56491700  1
  C  604  1  0.97607900  0.49286800  0.48532600  1
  C  605  1  0.00294500  0.46096300  0.48417200  1
  C  606  1  0.97657000  0.43641100  0.46392600  1
  C  607  1  0.92401400  0.44307300  0.44516200  1
  C  608  1  0.90008700  0.47539600  0.44492700  1
  C  609  1  0.92570700  0.50056400  0.46481100  1
  H  7  1  0.16942300  0.11973100  0.15176500  1
  H  16  1  0.16281600  0.16716400  0.05987000  1
  H  17  1  0.01557400  0.26106800  0.10630800  1
  H  18  1  0.05344800  0.26445900  0.07154300  1
  H  19  1  0.17340200  0.01270600  0.07262100  1
  H  20  1  0.21145500  0.01416700  0.10749000  1
  H  21  1  0.08315000  0.11551000  0.05968700  1
  H  22  1  0.07694100  0.15926400  0.15182200  1
  H  29  1  0.65783300  0.66348300  0.05995200  1
  H  38  1  0.66867500  0.61710600  0.15038200  1
  H  39  1  0.67249300  0.51326100  0.06749900  1
  H  40  1  0.71531500  0.51486800  0.10061300  1
  H  41  1  0.63888600  0.76666800  0.14305900  1
  H  42  1  0.67838900  0.76842500  0.10882500  1
  H  43  1  0.57131100  0.65817200  0.15194100  1
  H  44  1  0.57312500  0.61423000  0.06105600  1
  H  51  1  0.58941000  0.16169500  0.65626200  1
  H  60  1  0.57698600  0.11844400  0.56526300  1
  H  61  1  0.64851400  0.00623500  0.62581300  1
  H  62  1  0.61094200  0.00637900  0.59076200  1
  H  63  1  0.58104100  0.26912700  0.57801800  1
  H  64  1  0.54622100  0.26754300  0.61376000  1
  H  65  1  0.66819800  0.16551800  0.56209500  1
  H  66  1  0.68361000  0.11876800  0.65130200  1
  H  73  1  0.06809100  0.61889600  0.56553000  1
  H  82  1  0.08159600  0.66382200  0.65598800  1
  H  83  1  0.20108900  0.76769400  0.60667000  1
  H  84  1  0.16638400  0.76820300  0.64251200  1
  H  85  1  0.14357300  0.50587000  0.62380900  1
  H  86  1  0.10643900  0.50616900  0.58862200  1
  H  87  1  0.17378500  0.61763800  0.65189300  1
  H  88  1  0.16000700  0.66282600  0.56167200  1
  H  95  1  0.34476000  0.93840300  0.33443200  1
  H  104  1  0.34102300  0.84502900  0.38196000  1
  H  105  1  0.34063700  0.92558900  0.48762900  1
  H  106  1  0.30479700  0.89006600  0.48729800  1
  H  107  1  0.35928700  0.85705500  0.22947500  1
  H  108  1  0.32222700  0.89214700  0.22824900  1
  H  109  1  0.42473400  0.84458400  0.33828700  1
  H  110  1  0.42203900  0.93875100  0.38211800  1
  H  117  1  0.83189600  0.84714000  0.88243000  1
  H  126  1  0.83268200  0.93707300  0.83235400  1
  H  127  1  0.91853800  0.86970000  0.72711500  1
  H  128  1  0.88625900  0.90611800  0.72382600  1
  H  129  1  0.83839000  0.92841100  0.98801200  1
  H  130  1  0.79982300  0.89374900  0.98813300  1
  H  131  1  0.91699300  0.93962600  0.88166600  1
  H  132  1  0.92553000  0.84685800  0.84158900  1
  H  139  1  0.92098200  0.43468800  0.38158000  1
  H  148  1  0.90052300  0.34094600  0.33591700  1
  H  149  1  0.85567700  0.40525700  0.22209500  1
  H  150  1  0.89649600  0.37157300  0.22298900  1
  H  151  1  0.83718000  0.37447900  0.49164200  1
  H  152  1  0.87308000  0.41002000  0.49264300  1
  H  153  1  0.81880400  0.34701600  0.37890100  1
  H  154  1  0.84677600  0.44001900  0.33392000  1
  H  161  1  0.40316100  0.34436100  0.83699200  1
  H  170  1  0.41460600  0.43557100  0.88276600  1
  H  171  1  0.33054100  0.37300400  0.99130700  1
  H  172  1  0.37032500  0.40735800  0.99307600  1
  H  173  1  0.41597400  0.42210700  0.72918800  1
  H  174  1  0.44855800  0.38570400  0.73086900  1
  H  175  1  0.33064200  0.44004100  0.83304800  1
  H  176  1  0.30957700  0.34901200  0.87755400  1
  H  183  1  0.03385100  0.02836700  0.08782000  1
  H  190  1  0.99092800  0.91711500  0.95377200  1
  H  191  1  0.85391800  0.98851400  0.94081300  1
  H  192  1  0.12965000  0.07133600  0.00879300  1
  H  211  1  0.50368100  0.74607000  0.13042600  1
  H  218  1  0.50377000  0.86104300  0.26029700  1
  H  219  1  0.35966100  0.79726800  0.28487700  1
  H  220  1  0.61496600  0.70313100  0.20319300  1
  H  239  1  0.71606200  0.25746000  0.58693200  1
  H  246  1  0.72271500  0.36729300  0.45027000  1
  H  247  1  0.87317200  0.30429600  0.43784900  1
  H  248  1  0.61853000  0.20699200  0.51312800  1
  H  267  1  0.25909500  0.54108100  0.62535300  1
  H  274  1  0.27340400  0.41513800  0.74708100  1
  H  275  1  0.39042800  0.48764900  0.78591000  1
  H  276  1  0.12724300  0.56376300  0.69711100  1
  H  295  1  0.49476200  0.32339500  0.80933800  1
  H  302  1  0.49714600  0.18911900  0.67554800  1
  H  303  1  0.62444900  0.26539800  0.66141000  1
  H  304  1  0.36690800  0.33988800  0.73391100  1
  H  323  1  0.25112600  0.82640300  0.41054100  1
  H  330  1  0.25103000  0.69122100  0.54277900  1
  H  331  1  0.12278400  0.76659700  0.55902800  1
  H  332  1  0.38085000  0.84222400  0.48517200  1
  H  351  1  0.75999000  0.45627300  0.29781400  1
  H  358  1  0.76030200  0.59384900  0.16795500  1
  H  359  1  0.65066000  0.51041000  0.15110400  1
  H  360  1  0.91695800  0.45250900  0.23877000  1
  H  379  1  0.49416700  0.04084400  0.59005000  1
  H  386  1  0.48307300  0.91642600  0.46742300  1
  H  387  1  0.36311500  0.98814100  0.42975300  1
  H  388  1  0.62568100  0.06572000  0.51883700  1
  H  407  1  0.03207800  0.75661800  0.63354100  1
  H  414  1  0.02955400  0.86358100  0.77129200  1
  H  415  1  0.87590200  0.80266300  0.78238100  1
  H  416  1  0.12970400  0.70403000  0.70580000  1
  H  435  1  0.19233600  0.26000300  0.08527500  1
  H  442  1  0.21118300  0.36776000  0.94630400  1
  H  443  1  0.36436900  0.30583800  0.94009600  1
  H  444  1  0.10956000  0.20581600  0.00886300  1
  H  463  1  0.98879800  0.32259200  0.30059700  1
  H  470  1  0.98441600  0.18191100  0.17322600  1
  H  471  1  0.09163200  0.26572400  0.15386500  1
  H  472  1  0.83177300  0.32577700  0.24158100  1
  H  491  1  0.74248200  0.82879200  0.91154700  1
  H  498  1  0.74441200  0.69404900  0.04379900  1
  H  499  1  0.61118400  0.76711100  0.05862100  1
  H  500  1  0.87220800  0.84535300  0.98597600  1
  H  519  1  0.53257400  0.52414500  0.08779400  1
  H  526  1  0.49819900  0.41148000  0.95288500  1
  H  527  1  0.35252500  0.47822100  0.94374400  1
  H  528  1  0.61937100  0.57105800  0.00794400  1
  H  547  1  0.76559600  0.03801600  0.62564700  1
  H  554  1  0.76384500  0.91187300  0.74914200  1
  H  555  1  0.89380700  0.98005500  0.78329000  1
  H  556  1  0.63729300  0.06643300  0.69723200  1
  H  575  1  0.25840700  0.95615200  0.30404400  1
  H  582  1  0.26117200  0.09139800  0.17169300  1
  H  583  1  0.13379000  0.01565600  0.15538100  1
  H  584  1  0.39243200  0.94088400  0.23161100  1
  H  603  1  0.98848000  0.53686000  0.58878500  1
  H  610  1  0.99452600  0.41305700  0.46405500  1
  H  611  1  0.86218400  0.48050900  0.43115200  1
  H  612  1  0.11727600  0.56807800  0.51864900  1
  N  8  1  0.17952100  0.02350300  0.09382500  1
  N  15  1  0.04959800  0.25371300  0.09292500  1
  N  30  1  0.64750300  0.75701300  0.12158700  1
  N  37  1  0.68041000  0.52353200  0.08878900  1
  N  52  1  0.57661400  0.25805500  0.59919700  1
  N  59  1  0.63040200  0.01909200  0.60813300  1
  N  74  1  0.12399900  0.51879200  0.60663000  1
  N  81  1  0.17052000  0.75791700  0.62092700  1
  N  96  1  0.35142300  0.87833500  0.23972600  1
  N  103  1  0.33507400  0.90422200  0.47710900  1
  N  118  1  0.83046600  0.90729400  0.97744500  1
  N  125  1  0.89937100  0.88826000  0.73815700  1
  N  140  1  0.85741600  0.39192900  0.47940900  1
  N  147  1  0.87600400  0.38873400  0.23539000  1
  N  162  1  0.41936200  0.40095500  0.74040600  1
  N  169  1  0.35159800  0.39043400  0.97944200  1
  N  193  1  0.90652600  0.03690500  0.97567100  1
  N  194  1  0.06634800  0.95345800  0.98992800  1
  N  195  1  0.07186800  0.03996900  0.95990800  1
  N  196  1  0.96105800  0.99183800  0.05581800  1
  N  221  1  0.39849100  0.74450800  0.25105200  1
  N  222  1  0.56649500  0.81920900  0.22292300  1
  N  223  1  0.56823100  0.73490400  0.25516600  1
  N  224  1  0.43977500  0.78374000  0.16637300  1
  N  249  1  0.83012800  0.25294500  0.47200800  1
  N  250  1  0.65516700  0.32672100  0.48687800  1
  N  251  1  0.66341100  0.23980200  0.46127200  1
  N  252  1  0.77527200  0.29757200  0.55136900  1
  N  277  1  0.34765100  0.53876800  0.75092600  1
  N  278  1  0.21142700  0.45369300  0.70623700  1
  N  279  1  0.17872200  0.53215500  0.74764400  1
  N  280  1  0.33132300  0.50665100  0.66042400  1
  N  305  1  0.58111900  0.30705200  0.70553800  1
  N  306  1  0.44181200  0.21473000  0.72814500  1
  N  307  1  0.40233300  0.29784100  0.69249200  1
  N  308  1  0.54481800  0.27137600  0.78671300  1
  N  333  1  0.16505500  0.80941500  0.51566900  1
  N  334  1  0.30536100  0.71819300  0.49060200  1
  N  335  1  0.34439500  0.80098500  0.52718700  1
  N  336  1  0.20010000  0.77498700  0.43366300  1
  N  361  1  0.70271200  0.47055500  0.19384000  1
  N  362  1  0.81719500  0.57120400  0.22118600  1
  N  363  1  0.88620000  0.49292200  0.19439300  1
  N  364  1  0.70771900  0.50764700  0.26878100  1
  N  389  1  0.40560100  0.03952100  0.46444800  1
  N  390  1  0.54504100  0.95534900  0.50795600  1
  N  391  1  0.57521600  0.03455600  0.46771700  1
  N  392  1  0.42296500  0.00646100  0.55434500  1
  N  417  1  0.91770400  0.75070900  0.74863500  1
  N  418  1  0.09604500  0.82230000  0.73500800  1
  N  419  1  0.08530900  0.73550500  0.75858500  1
  N  420  1  0.97373800  0.79604000  0.67019300  1
  N  445  1  0.31975700  0.25526000  0.97480800  1
  N  446  1  0.14125800  0.32763100  0.98208900  1
  N  447  1  0.15720100  0.23942100  0.95826500  1
  N  448  1  0.25286800  0.30097500  0.05127000  1
  N  473  1  0.04266100  0.30551200  0.19762100  1
  N  474  1  0.92986400  0.20491500  0.22725200  1
  N  475  1  0.86028200  0.28298900  0.19907600  1
  N  476  1  0.03912000  0.26956900  0.27343400  1
  N  501  1  0.65463300  0.81133500  0.01701200  1
  N  502  1  0.79939100  0.72205900  0.99259400  1
  N  503  1  0.83512300  0.80497900  0.02863600  1
  N  504  1  0.69199000  0.77743600  0.93507400  1
  N  529  1  0.40166100  0.52797100  0.97790500  1
  N  530  1  0.57153800  0.45005200  0.98833400  1
  N  531  1  0.56532700  0.53697100  0.95958500  1
  N  532  1  0.46519400  0.48414400  0.05648600  1
  N  557  1  0.85437900  0.03237500  0.74925500  1
  N  558  1  0.70400500  0.95237600  0.70892100  1
  N  559  1  0.68326400  0.03229200  0.74770600  1
  N  560  1  0.83088200  0.99956100  0.66036400  1
  N  585  1  0.17650300  0.97281600  0.19843200  1
  N  586  1  0.31537900  0.06449800  0.22404300  1
  N  587  1  0.35675600  0.98154700  0.18876500  1
  N  588  1  0.20844600  0.00746800  0.28035400  1
  N  613  1  0.90173500  0.53306700  0.46477200  1
  N  614  1  0.05472000  0.45387600  0.50382300  1
  N  615  1  0.07336900  0.53468500  0.46712400  1
  N  616  1  0.92518000  0.49858700  0.55286400  1
  O  197  1  0.90225300  0.05291700  0.94917100  1
  O  198  1  0.96948600  0.96164800  0.05048600  1
  O  199  1  0.12503000  0.03152700  0.95231900  1
  O  200  1  0.06296100  0.92841600  0.00820700  1
  O  201  1  0.85535800  0.03661300  0.98947000  1
  O  202  1  0.90806900  0.99951100  0.04729700  1
  O  203  1  0.06281700  0.06895400  0.94991900  1
  O  204  1  0.10347100  0.94755900  0.96708800  1
  O  225  1  0.39713300  0.73024800  0.27861700  1
  O  226  1  0.45191200  0.81375200  0.17049600  1
  O  227  1  0.62294900  0.74296100  0.25898000  1
  O  228  1  0.56292200  0.84307400  0.20314900  1
  O  229  1  0.34506400  0.74642300  0.24023100  1
  O  230  1  0.38834100  0.77763400  0.17826500  1
  O  231  1  0.56074600  0.70616300  0.26617900  1
  O  232  1  0.60866600  0.82487300  0.24307700  1
  O  253  1  0.83686400  0.23727500  0.44545600  1
  O  254  1  0.75910000  0.32673800  0.54561800  1
  O  255  1  0.60796200  0.24476400  0.45570900  1
  O  256  1  0.65422600  0.35183500  0.50513800  1
  O  257  1  0.88130400  0.25607600  0.48544700  1
  O  258  1  0.82864400  0.29339800  0.54131300  1
  O  259  1  0.67702100  0.21124500  0.45158200  1
  O  260  1  0.61649200  0.33044300  0.46434400  1
  O  281  1  0.33794200  0.55116900  0.77889400  1
  O  282  1  0.32948600  0.47566800  0.66129600  1
  O  283  1  0.12747600  0.51846900  0.74859300  1
  O  284  1  0.22658700  0.43157700  0.68605400  1
  O  285  1  0.40323300  0.54170100  0.74439700  1
  O  286  1  0.37782500  0.51649900  0.67543700  1
  O  287  1  0.17501500  0.55991800  0.76140400  1
  O  288  1  0.16647300  0.44364900  0.72254800  1
  O  309  1  0.57404100  0.32555200  0.68089100  1
  O  310  1  0.52972400  0.24165400  0.79021500  1
  O  311  1  0.43992500  0.30322900  0.66978000  1
  O  312  1  0.39727800  0.20566500  0.71094000  1
  O  313  1  0.63624500  0.30771400  0.71366300  1
  O  314  1  0.59592400  0.27263400  0.77307400  1
  O  315  1  0.37694900  0.27054100  0.68786300  1
  O  316  1  0.46109000  0.18991500  0.74357900  1
  O  337  1  0.17206500  0.82740900  0.54069100  1
  O  338  1  0.21462400  0.74519300  0.43006700  1
  O  339  1  0.30705200  0.80668400  0.54994100  1
  O  340  1  0.35025500  0.70900000  0.50746100  1
  O  341  1  0.10982900  0.80998800  0.50774100  1
  O  342  1  0.14924500  0.77651200  0.44753900  1
  O  343  1  0.36925700  0.77355800  0.53191700  1
  O  344  1  0.28629800  0.69360600  0.47473400  1
  O  365  1  0.71489000  0.45322600  0.16893700  1
  O  366  1  0.66402900  0.48770100  0.27035800  1
  O  367  1  0.85756100  0.48578800  0.16850100  1
  O  368  1  0.85943200  0.58506600  0.20551600  1
  O  369  1  0.64779200  0.46620700  0.20121600  1
  O  370  1  0.71253300  0.52184900  0.29626200  1
  O  371  1  0.90637200  0.52177500  0.19240500  1
  O  372  1  0.78938600  0.59309300  0.23719600  1
  O  393  1  0.41435100  0.05215400  0.43649000  1
  O  394  1  0.42557400  0.97551200  0.55295300  1
  O  395  1  0.62680600  0.02126900  0.46662800  1
  O  396  1  0.53064000  0.93310000  0.52815600  1
  O  397  1  0.35006600  0.04193300  0.47131300  1
  O  398  1  0.37620700  0.01621300  0.53951400  1
  O  399  1  0.57828200  0.06255800  0.45440700  1
  O  400  1  0.59000400  0.94563900  0.49145700  1
  O  421  1  0.90984400  0.73499600  0.77506600  1
  O  422  1  0.99059800  0.82494700  0.67663300  1
  O  423  1  0.14082700  0.74026200  0.76411800  1
  O  424  1  0.09805100  0.84741100  0.71676700  1
  O  425  1  0.86688200  0.75455100  0.73498600  1
  O  426  1  0.92025400  0.79199900  0.68010500  1
  O  427  1  0.07167600  0.70672600  0.76757800  1
  O  428  1  0.13465700  0.82558700  0.75764100  1
  O  449  1  0.32992100  0.23877100  0.94909100  1
  O  450  1  0.23577400  0.32975300  0.04448400  1
  O  451  1  0.10220100  0.24270000  0.95056200  1
  O  452  1  0.13762700  0.35336200  0.99936300  1
  O  453  1  0.36924700  0.25949100  0.98973200  1
  O  454  1  0.30752600  0.29758700  0.04311200  1
  O  455  1  0.17473700  0.21116600  0.94960800  1
  O  456  1  0.10478400  0.33013700  0.95833400  1
  O  477  1  0.02888300  0.32269500  0.17286100  1
  O  478  1  0.08346400  0.28914200  0.27385200  1
  O  479  1  0.88858200  0.28884100  0.17275700  1
  O  480  1  0.88679100  0.19114200  0.21219000  1
  O  481  1  0.09794800  0.30999800  0.20403700  1
  O  482  1  0.03442400  0.25665400  0.30154800  1
  O  483  1  0.83933700  0.25423500  0.19839900  1
  O  484  1  0.95818900  0.18298400  0.24292600  1
  O  505  1  0.66005600  0.82898300  0.04239300  1
  O  506  1  0.70711600  0.74769100  0.93181200  1
  O  507  1  0.79738600  0.81074900  0.05118100  1
  O  508  1  0.84392400  0.71302600  0.00982400  1
  O  509  1  0.59971100  0.81150300  0.00846300  1
  O  510  1  0.64090000  0.77880800  0.94869600  1
  O  511  1  0.86043900  0.77775700  0.03379400  1
  O  512  1  0.78167800  0.69750600  0.97621400  1
  O  533  1  0.39399100  0.54392800  0.95159700  1
  O  534  1  0.47866600  0.45450800  0.05109500  1
  O  535  1  0.61947600  0.53101800  0.95169600  1
  O  536  1  0.57233000  0.42473600  0.00631300  1
  O  537  1  0.35150500  0.52593200  0.99262100  1
  O  538  1  0.41084100  0.48904500  0.04848500  1
  O  539  1  0.55148200  0.56535200  0.94948900  1
  O  540  1  0.60781000  0.44574500  0.96474200  1
  O  561  1  0.84812000  0.04524800  0.77730500  1
  O  562  1  0.82296800  0.96885500  0.66120700  1
  O  563  1  0.62993100  0.02119000  0.74842300  1
  O  564  1  0.71472800  0.92952400  0.68872300  1
  O  565  1  0.90972600  0.03328200  0.74162600  1
  O  566  1  0.87936300  0.00663200  0.67506100  1
  O  567  1  0.68407000  0.06000600  0.76169900  1
  O  568  1  0.65911300  0.94427000  0.72632200  1
  O  589  1  0.18413400  0.95493100  0.17338500  1
  O  590  1  0.22273700  0.03727800  0.28409100  1
  O  591  1  0.32030000  0.97562600  0.16564100  1
  O  592  1  0.36031700  0.07395100  0.20736500  1
  O  593  1  0.12116100  0.97197300  0.20610400  1
  O  594  1  0.15804100  0.00588300  0.26602100  1
  O  595  1  0.38138200  0.00906700  0.18420400  1
  O  596  1  0.29571500  0.08894500  0.23991100  1
  O  617  1  0.90707800  0.54612300  0.43675400  1
  O  618  1  0.93407600  0.46798700  0.55135200  1
  O  619  1  0.12703000  0.52405100  0.46649700  1
  O  620  1  0.04468300  0.43091900  0.52401400  1
  O  621  1  0.84652400  0.53355300  0.47272900  1
  O  622  1  0.87662800  0.50553900  0.53819000  1
  O  623  1  0.07204900  0.56269800  0.45375700  1
  O  624  1  0.09950200  0.44604200  0.48622000  1
