# generated using pymatgen
data_PrH15(C9O2)3
_symmetry_space_group_name_H-M   'P 1'
_cell_length_a   16.43930000
_cell_length_b   16.43930000
_cell_length_c   23.77700000
_cell_angle_alpha   90.00000000
_cell_angle_beta   90.00000000
_cell_angle_gamma   120.00000000
_symmetry_Int_Tables_number   1
_chemical_formula_structural   PrH15(C9O2)3
_chemical_formula_sum   'Pr6 H90 C162 O36'
_cell_volume   5564.86113399
_cell_formula_units_Z   6
loop_
 _symmetry_equiv_pos_site_id
 _symmetry_equiv_pos_as_xyz
  1  'x, y, z'
loop_
 _atom_site_type_symbol
 _atom_site_label
 _atom_site_symmetry_multiplicity
 _atom_site_fract_x
 _atom_site_fract_y
 _atom_site_fract_z
 _atom_site_occupancy
  Pr  Pr1  1  0.08433000  0.08433000  1.00000000  1.0
  Pr  Pr2  1  0.00000000  0.91567000  0.66666667  1.0
  Pr  Pr3  1  0.91567000  0.00000000  0.33333333  1.0
  Pr  Pr4  1  0.91567000  0.91567000  0.50000000  1.0
  Pr  Pr5  1  0.00000000  0.08433000  0.16667000  1.0
  Pr  Pr6  1  0.08433000  1.00000000  0.83333000  1.0
  H  H1  1  0.11040000  0.81270000  0.90840000  1.0
  H  H2  1  0.17710000  0.72100000  0.89410000  1.0
  H  H3  1  0.38820000  0.88530000  0.99820000  1.0
  H  H4  1  0.32480000  0.98290000  0.00900000  1.0
  H  H5  1  0.47150000  0.85100000  0.94190000  1.0
  H  H6  1  0.61110000  0.87690000  0.98520000  1.0
  H  H7  1  0.77290000  0.96130000  0.98370000  1.0
  H  H8  1  0.70230000  0.88960000  0.57507000  1.0
  H  H9  1  0.54390000  0.82290000  0.56077000  1.0
  H  H10  1  0.49710000  0.61180000  0.66487000  1.0
  H  H11  1  0.65810000  0.67520000  0.67567000  1.0
  H  H12  1  0.37950000  0.52850000  0.60857000  1.0
  H  H13  1  0.26580000  0.38890000  0.65187000  1.0
  H  H14  1  0.18840000  0.22710000  0.65037000  1.0
  H  H15  1  0.18730000  0.29770000  0.24173000  1.0
  H  H16  1  0.27900000  0.45610000  0.22743000  1.0
  H  H17  1  0.11470000  0.50290000  0.33153000  1.0
  H  H18  1  0.01710000  0.34190000  0.34233000  1.0
  H  H19  1  0.14900000  0.62050000  0.27523000  1.0
  H  H20  1  0.12310000  0.73420000  0.31853000  1.0
  H  H21  1  0.03870000  0.81160000  0.31703000  1.0
  H  H22  1  0.88960000  0.18730000  0.40840000  1.0
  H  H23  1  0.82290000  0.27900000  0.39410000  1.0
  H  H24  1  0.61180000  0.11470000  0.49820000  1.0
  H  H25  1  0.67520000  0.01710000  0.50900000  1.0
  H  H26  1  0.52850000  0.14900000  0.44190000  1.0
  H  H27  1  0.38890000  0.12310000  0.48520000  1.0
  H  H28  1  0.22710000  0.03870000  0.48370000  1.0
  H  H29  1  0.29770000  0.11040000  0.07507000  1.0
  H  H30  1  0.45610000  0.17710000  0.06077000  1.0
  H  H31  1  0.50290000  0.38820000  0.16487000  1.0
  H  H32  1  0.34190000  0.32480000  0.17567000  1.0
  H  H33  1  0.62050000  0.47150000  0.10857000  1.0
  H  H34  1  0.73420000  0.61110000  0.15187000  1.0
  H  H35  1  0.81160000  0.77290000  0.15037000  1.0
  H  H36  1  0.81270000  0.70230000  0.74173000  1.0
  H  H37  1  0.72100000  0.54390000  0.72743000  1.0
  H  H38  1  0.88530000  0.49710000  0.83153000  1.0
  H  H39  1  0.98290000  0.65810000  0.84233000  1.0
  H  H40  1  0.85100000  0.37950000  0.77523000  1.0
  H  H41  1  0.87690000  0.26580000  0.81853000  1.0
  H  H42  1  0.96130000  0.18840000  0.81703000  1.0
  H  H43  1  0.29770000  0.18730000  0.75827000  1.0
  H  H44  1  0.45610000  0.27900000  0.77257000  1.0
  H  H45  1  0.50290000  0.11470000  0.66847000  1.0
  H  H46  1  0.34190000  0.01710000  0.65767000  1.0
  H  H47  1  0.62050000  0.14900000  0.72477000  1.0
  H  H48  1  0.73420000  0.12310000  0.68147000  1.0
  H  H49  1  0.81160000  0.03870000  0.68297000  1.0
  H  H50  1  0.81270000  0.11040000  0.09160000  1.0
  H  H51  1  0.72100000  0.17710000  0.10590000  1.0
  H  H52  1  0.88530000  0.38820000  0.00180000  1.0
  H  H53  1  0.98290000  0.32480000  0.99100000  1.0
  H  H54  1  0.85100000  0.47150000  0.05810000  1.0
  H  H55  1  0.87690000  0.61110000  0.01480000  1.0
  H  H56  1  0.96130000  0.77290000  0.01630000  1.0
  H  H57  1  0.88960000  0.70230000  0.42493000  1.0
  H  H58  1  0.82290000  0.54390000  0.43923000  1.0
  H  H59  1  0.61180000  0.49710000  0.33513000  1.0
  H  H60  1  0.67520000  0.65810000  0.32433000  1.0
  H  H61  1  0.52850000  0.37950000  0.39143000  1.0
  H  H62  1  0.38890000  0.26580000  0.34813000  1.0
  H  H63  1  0.22710000  0.18840000  0.34963000  1.0
  H  H64  1  0.70230000  0.81270000  0.25827000  1.0
  H  H65  1  0.54390000  0.72100000  0.27257000  1.0
  H  H66  1  0.49710000  0.88530000  0.16847000  1.0
  H  H67  1  0.65810000  0.98290000  0.15767000  1.0
  H  H68  1  0.37950000  0.85100000  0.22477000  1.0
  H  H69  1  0.26580000  0.87690000  0.18147000  1.0
  H  H70  1  0.18840000  0.96130000  0.18297000  1.0
  H  H71  1  0.18730000  0.88960000  0.59160000  1.0
  H  H72  1  0.27900000  0.82290000  0.60590000  1.0
  H  H73  1  0.11470000  0.61180000  0.50180000  1.0
  H  H74  1  0.01710000  0.67520000  0.49100000  1.0
  H  H75  1  0.14900000  0.52850000  0.55810000  1.0
  H  H76  1  0.12310000  0.38890000  0.51480000  1.0
  H  H77  1  0.03870000  0.22710000  0.51630000  1.0
  H  H78  1  0.11040000  0.29770000  0.92493000  1.0
  H  H79  1  0.17710000  0.45610000  0.93923000  1.0
  H  H80  1  0.38820000  0.50290000  0.83513000  1.0
  H  H81  1  0.32480000  0.34190000  0.82433000  1.0
  H  H82  1  0.47150000  0.62050000  0.89143000  1.0
  H  H83  1  0.61110000  0.73420000  0.84813000  1.0
  H  H84  1  0.77290000  0.81160000  0.84963000  1.0
  H  H85  1  0.22800000  0.61400000  0.91667000  1.0
  H  H86  1  0.38600000  0.77200000  0.58333000  1.0
  H  H87  1  0.38600000  0.61400000  0.25000000  1.0
  H  H88  1  0.77200000  0.38600000  0.41667000  1.0
  H  H89  1  0.61400000  0.22800000  0.08333000  1.0
  H  H90  1  0.61400000  0.38600000  0.75000000  1.0
  C  C1  1  0.17420000  0.97550000  0.96260000  1.0
  C  C2  1  0.21170000  0.90840000  0.95800000  1.0
  C  C3  1  0.16760000  0.82900000  0.92520000  1.0
  C  C4  1  0.20720000  0.77350000  0.91720000  1.0
  C  C5  1  0.29340000  0.79490000  0.94340000  1.0
  C  C6  1  0.33380000  0.87180000  0.97870000  1.0
  C  C7  1  0.29520000  0.93010000  0.98590000  1.0
  C  C8  1  0.34260000  0.74350000  0.92960000  1.0
  C  C9  1  0.43870000  0.78840000  0.93090000  1.0
  C  C10  1  0.64370000  0.86500000  0.95740000  1.0
  C  C11  1  0.74060000  0.91470000  0.95700000  1.0
  C  C12  1  0.80130000  0.82580000  0.62927000  1.0
  C  C13  1  0.69670000  0.78830000  0.62467000  1.0
  C  C14  1  0.66140000  0.83240000  0.59187000  1.0
  C  C15  1  0.56630000  0.79280000  0.58387000  1.0
  C  C16  1  0.50150000  0.70660000  0.61007000  1.0
  C  C17  1  0.53800000  0.66620000  0.64537000  1.0
  C  C18  1  0.63490000  0.70480000  0.65257000  1.0
  C  C19  1  0.40090000  0.65740000  0.59627000  1.0
  C  C20  1  0.34970000  0.56130000  0.59757000  1.0
  C  C21  1  0.22130000  0.35630000  0.62407000  1.0
  C  C22  1  0.17410000  0.25940000  0.62367000  1.0
  C  C23  1  0.02450000  0.19870000  0.29593000  1.0
  C  C24  1  0.09160000  0.30330000  0.29133000  1.0
  C  C25  1  0.17100000  0.33860000  0.25853000  1.0
  C  C26  1  0.22650000  0.43370000  0.25053000  1.0
  C  C27  1  0.20510000  0.49850000  0.27673000  1.0
  C  C28  1  0.12820000  0.46200000  0.31203000  1.0
  C  C29  1  0.06990000  0.36510000  0.31923000  1.0
  C  C30  1  0.25650000  0.59910000  0.26293000  1.0
  C  C31  1  0.21160000  0.65030000  0.26423000  1.0
  C  C32  1  0.13500000  0.77870000  0.29073000  1.0
  C  C33  1  0.08530000  0.82590000  0.29033000  1.0
  C  C34  1  0.82580000  0.02450000  0.46260000  1.0
  C  C35  1  0.78830000  0.09160000  0.45800000  1.0
  C  C36  1  0.83240000  0.17100000  0.42520000  1.0
  C  C37  1  0.79280000  0.22650000  0.41720000  1.0
  C  C38  1  0.70660000  0.20510000  0.44340000  1.0
  C  C39  1  0.66620000  0.12820000  0.47870000  1.0
  C  C40  1  0.70480000  0.06990000  0.48590000  1.0
  C  C41  1  0.65740000  0.25650000  0.42960000  1.0
  C  C42  1  0.56130000  0.21160000  0.43090000  1.0
  C  C43  1  0.35630000  0.13500000  0.45740000  1.0
  C  C44  1  0.25940000  0.08530000  0.45700000  1.0
  C  C45  1  0.19870000  0.17420000  0.12927000  1.0
  C  C46  1  0.30330000  0.21170000  0.12467000  1.0
  C  C47  1  0.33860000  0.16760000  0.09187000  1.0
  C  C48  1  0.43370000  0.20720000  0.08387000  1.0
  C  C49  1  0.49850000  0.29340000  0.11007000  1.0
  C  C50  1  0.46200000  0.33380000  0.14537000  1.0
  C  C51  1  0.36510000  0.29520000  0.15257000  1.0
  C  C52  1  0.59910000  0.34260000  0.09627000  1.0
  C  C53  1  0.65030000  0.43870000  0.09757000  1.0
  C  C54  1  0.77870000  0.64370000  0.12407000  1.0
  C  C55  1  0.82590000  0.74060000  0.12367000  1.0
  C  C56  1  0.97550000  0.80130000  0.79593000  1.0
  C  C57  1  0.90840000  0.69670000  0.79133000  1.0
  C  C58  1  0.82900000  0.66140000  0.75853000  1.0
  C  C59  1  0.77350000  0.56630000  0.75053000  1.0
  C  C60  1  0.79490000  0.50150000  0.77673000  1.0
  C  C61  1  0.87180000  0.53800000  0.81203000  1.0
  C  C62  1  0.93010000  0.63490000  0.81923000  1.0
  C  C63  1  0.74350000  0.40090000  0.76293000  1.0
  C  C64  1  0.78840000  0.34970000  0.76423000  1.0
  C  C65  1  0.86500000  0.22130000  0.79073000  1.0
  C  C66  1  0.91470000  0.17410000  0.79033000  1.0
  C  C67  1  0.19870000  0.02450000  0.70407000  1.0
  C  C68  1  0.30330000  0.09160000  0.70867000  1.0
  C  C69  1  0.33860000  0.17100000  0.74147000  1.0
  C  C70  1  0.43370000  0.22650000  0.74947000  1.0
  C  C71  1  0.49850000  0.20510000  0.72327000  1.0
  C  C72  1  0.46200000  0.12820000  0.68797000  1.0
  C  C73  1  0.36510000  0.06990000  0.68077000  1.0
  C  C74  1  0.59910000  0.25650000  0.73707000  1.0
  C  C75  1  0.65030000  0.21160000  0.73577000  1.0
  C  C76  1  0.77870000  0.13500000  0.70927000  1.0
  C  C77  1  0.82590000  0.08530000  0.70967000  1.0
  C  C78  1  0.97550000  0.17420000  0.03740000  1.0
  C  C79  1  0.90840000  0.21170000  0.04200000  1.0
  C  C80  1  0.82900000  0.16760000  0.07480000  1.0
  C  C81  1  0.77350000  0.20720000  0.08280000  1.0
  C  C82  1  0.79490000  0.29340000  0.05660000  1.0
  C  C83  1  0.87180000  0.33380000  0.02130000  1.0
  C  C84  1  0.93010000  0.29520000  0.01410000  1.0
  C  C85  1  0.74350000  0.34260000  0.07040000  1.0
  C  C86  1  0.78840000  0.43870000  0.06910000  1.0
  C  C87  1  0.86500000  0.64370000  0.04260000  1.0
  C  C88  1  0.91470000  0.74060000  0.04300000  1.0
  C  C89  1  0.82580000  0.80130000  0.37073000  1.0
  C  C90  1  0.78830000  0.69670000  0.37533000  1.0
  C  C91  1  0.83240000  0.66140000  0.40813000  1.0
  C  C92  1  0.79280000  0.56630000  0.41613000  1.0
  C  C93  1  0.70660000  0.50150000  0.38993000  1.0
  C  C94  1  0.66620000  0.53800000  0.35463000  1.0
  C  C95  1  0.70480000  0.63490000  0.34743000  1.0
  C  C96  1  0.65740000  0.40090000  0.40373000  1.0
  C  C97  1  0.56130000  0.34970000  0.40243000  1.0
  C  C98  1  0.35630000  0.22130000  0.37593000  1.0
  C  C99  1  0.25940000  0.17410000  0.37633000  1.0
  C  C100  1  0.80130000  0.97550000  0.20407000  1.0
  C  C101  1  0.69670000  0.90840000  0.20867000  1.0
  C  C102  1  0.66140000  0.82900000  0.24147000  1.0
  C  C103  1  0.56630000  0.77350000  0.24947000  1.0
  C  C104  1  0.50150000  0.79490000  0.22327000  1.0
  C  C105  1  0.53800000  0.87180000  0.18797000  1.0
  C  C106  1  0.63490000  0.93010000  0.18077000  1.0
  C  C107  1  0.40090000  0.74350000  0.23707000  1.0
  C  C108  1  0.34970000  0.78840000  0.23577000  1.0
  C  C109  1  0.22130000  0.86500000  0.20927000  1.0
  C  C110  1  0.17410000  0.91470000  0.20967000  1.0
  C  C111  1  0.02450000  0.82580000  0.53740000  1.0
  C  C112  1  0.09160000  0.78830000  0.54200000  1.0
  C  C113  1  0.17100000  0.83240000  0.57480000  1.0
  C  C114  1  0.22650000  0.79280000  0.58280000  1.0
  C  C115  1  0.20510000  0.70660000  0.55660000  1.0
  C  C116  1  0.12820000  0.66620000  0.52130000  1.0
  C  C117  1  0.06990000  0.70480000  0.51410000  1.0
  C  C118  1  0.25650000  0.65740000  0.57040000  1.0
  C  C119  1  0.21160000  0.56130000  0.56910000  1.0
  C  C120  1  0.13500000  0.35630000  0.54260000  1.0
  C  C121  1  0.08530000  0.25940000  0.54300000  1.0
  C  C122  1  0.17420000  0.19870000  0.87073000  1.0
  C  C123  1  0.21170000  0.30330000  0.87533000  1.0
  C  C124  1  0.16760000  0.33860000  0.90813000  1.0
  C  C125  1  0.20720000  0.43370000  0.91613000  1.0
  C  C126  1  0.29340000  0.49850000  0.88993000  1.0
  C  C127  1  0.33380000  0.46200000  0.85463000  1.0
  C  C128  1  0.29520000  0.36510000  0.84743000  1.0
  C  C129  1  0.34260000  0.59910000  0.90373000  1.0
  C  C130  1  0.43870000  0.65030000  0.90243000  1.0
  C  C131  1  0.64370000  0.77870000  0.87593000  1.0
  C  C132  1  0.74060000  0.82590000  0.87633000  1.0
  C  C133  1  0.29330000  0.64665000  0.91667000  1.0
  C  C134  1  0.48920000  0.74460000  0.91667000  1.0
  C  C135  1  0.59450000  0.79725000  0.91667000  1.0
  C  C136  1  0.79050000  0.89525000  0.91667000  1.0
  C  C137  1  0.89590000  0.94795000  0.91667000  1.0
  C  C138  1  0.35335000  0.70670000  0.58333000  1.0
  C  C139  1  0.25540000  0.51080000  0.58333000  1.0
  C  C140  1  0.20275000  0.40550000  0.58333000  1.0
  C  C141  1  0.10475000  0.20950000  0.58333000  1.0
  C  C142  1  0.05205000  0.10410000  0.58333000  1.0
  C  C143  1  0.35335000  0.64665000  0.25000000  1.0
  C  C144  1  0.25540000  0.74460000  0.25000000  1.0
  C  C145  1  0.20275000  0.79725000  0.25000000  1.0
  C  C146  1  0.10475000  0.89525000  0.25000000  1.0
  C  C147  1  0.05205000  0.94795000  0.25000000  1.0
  C  C148  1  0.70670000  0.35335000  0.41667000  1.0
  C  C149  1  0.51080000  0.25540000  0.41667000  1.0
  C  C150  1  0.40550000  0.20275000  0.41667000  1.0
  C  C151  1  0.20950000  0.10475000  0.41667000  1.0
  C  C152  1  0.10410000  0.05205000  0.41667000  1.0
  C  C153  1  0.64665000  0.29330000  0.08333000  1.0
  C  C154  1  0.74460000  0.48920000  0.08333000  1.0
  C  C155  1  0.79725000  0.59450000  0.08333000  1.0
  C  C156  1  0.89525000  0.79050000  0.08333000  1.0
  C  C157  1  0.94795000  0.89590000  0.08333000  1.0
  C  C158  1  0.64665000  0.35335000  0.75000000  1.0
  C  C159  1  0.74460000  0.25540000  0.75000000  1.0
  C  C160  1  0.79725000  0.20275000  0.75000000  1.0
  C  C161  1  0.89525000  0.10475000  0.75000000  1.0
  C  C162  1  0.94795000  0.05205000  0.75000000  1.0
  O  O1  1  0.10860000  0.96700000  0.93120000  1.0
  O  O2  1  0.21000000  0.04050000  0.99840000  1.0
  O  O3  1  0.93580000  0.00630000  0.95490000  1.0
  O  O4  1  0.85840000  0.89140000  0.59787000  1.0
  O  O5  1  0.83050000  0.79000000  0.66507000  1.0
  O  O6  1  0.07050000  0.06420000  0.62157000  1.0
  O  O7  1  0.03300000  0.14160000  0.26453000  1.0
  O  O8  1  0.95950000  0.16950000  0.33173000  1.0
  O  O9  1  0.99370000  0.92950000  0.28823000  1.0
  O  O10  1  0.89140000  0.03300000  0.43120000  1.0
  O  O11  1  0.79000000  0.95950000  0.49840000  1.0
  O  O12  1  0.06420000  0.99370000  0.45490000  1.0
  O  O13  1  0.14160000  0.10860000  0.09787000  1.0
  O  O14  1  0.16950000  0.21000000  0.16507000  1.0
  O  O15  1  0.92950000  0.93580000  0.12157000  1.0
  O  O16  1  0.96700000  0.85840000  0.76453000  1.0
  O  O17  1  0.04050000  0.83050000  0.83173000  1.0
  O  O18  1  0.00630000  0.07050000  0.78823000  1.0
  O  O19  1  0.14160000  0.03300000  0.73547000  1.0
  O  O20  1  0.16950000  0.95950000  0.66827000  1.0
  O  O21  1  0.92950000  0.99370000  0.71177000  1.0
  O  O22  1  0.96700000  0.10860000  0.06880000  1.0
  O  O23  1  0.04050000  0.21000000  0.00160000  1.0
  O  O24  1  0.00630000  0.93580000  0.04510000  1.0
  O  O25  1  0.89140000  0.85840000  0.40213000  1.0
  O  O26  1  0.79000000  0.83050000  0.33493000  1.0
  O  O27  1  0.06420000  0.07050000  0.37843000  1.0
  O  O28  1  0.85840000  0.96700000  0.23547000  1.0
  O  O29  1  0.83050000  0.04050000  0.16827000  1.0
  O  O30  1  0.07050000  0.00630000  0.21177000  1.0
  O  O31  1  0.03300000  0.89140000  0.56880000  1.0
  O  O32  1  0.95950000  0.79000000  0.50160000  1.0
  O  O33  1  0.99370000  0.06420000  0.54510000  1.0
  O  O34  1  0.10860000  0.14160000  0.90213000  1.0
  O  O35  1  0.21000000  0.16950000  0.83493000  1.0
  O  O36  1  0.93580000  0.92950000  0.87843000  1.0
