# generated using pymatgen
data_EuH2C6N2O5
_symmetry_space_group_name_H-M   'P 1'
_cell_length_a   7.44913000
_cell_length_b   15.89429000
_cell_length_c   17.31832000
_cell_angle_alpha   90.64716000
_cell_angle_beta   94.54443000
_cell_angle_gamma   90.62219000
_symmetry_Int_Tables_number   1
_chemical_formula_structural   EuH2C6N2O5
_chemical_formula_sum   'Eu8 H16 C48 N16 O40'
_cell_volume   2043.74664932
_cell_formula_units_Z   8
loop_
 _symmetry_equiv_pos_site_id
 _symmetry_equiv_pos_as_xyz
  1  'x, y, z'
loop_
 _atom_site_type_symbol
 _atom_site_label
 _atom_site_symmetry_multiplicity
 _atom_site_fract_x
 _atom_site_fract_y
 _atom_site_fract_z
 _atom_site_occupancy
  Eu  Eu0  1  0.64704000  0.89096000  0.54784000  1
  Eu  Eu1  1  0.84114000  0.05918000  0.39195000  1
  Eu  Eu2  1  0.37760000  0.39054000  0.95820000  1
  Eu  Eu3  1  0.13634000  0.55159000  0.10021000  1
  Eu  Eu4  1  0.35440000  0.10951000  0.44957000  1
  Eu  Eu5  1  0.16015000  0.94153000  0.60735000  1
  Eu  Eu6  1  0.63217000  0.60948000  0.04595000  1
  Eu  Eu7  1  0.85816000  0.44613000  0.90442000  1
  H  H8  1  0.20615000  0.69876000  0.32276000  1
  H  H9  1  0.83309000  0.76410000  0.41264000  1
  H  H10  1  0.20253000  0.82406000  0.20788000  1
  H  H11  1  0.61150000  0.92968000  0.26328000  1
  H  H12  1  0.79556000  0.19792000  0.17860000  1
  H  H13  1  0.17415000  0.26687000  0.08860000  1
  H  H14  1  0.79790000  0.32380000  0.29305000  1
  H  H15  1  0.38793000  0.43056000  0.23549000  1
  H  H16  1  0.79213000  0.30121000  0.67714000  1
  H  H17  1  0.16589000  0.23561000  0.58656000  1
  H  H18  1  0.79942000  0.17691000  0.79336000  1
  H  H19  1  0.39049000  0.07192000  0.73686000  1
  H  H20  1  0.21011000  0.80101000  0.82445000  1
  H  H21  1  0.83506000  0.73532000  0.91012000  1
  H  H22  1  0.19838000  0.67470000  0.70949000  1
  H  H23  1  0.60271000  0.57030000  0.76412000  1
  C  C24  1  0.25177000  0.81236000  0.45409000  1
  C  C25  1  0.38987000  0.76942000  0.40583000  1
  C  C26  1  0.34543000  0.71512000  0.34254000  1
  C  C27  1  0.49006000  0.68420000  0.30387000  1
  C  C28  1  0.46113000  0.63411000  0.22775000  1
  C  C29  1  0.69337000  0.75099000  0.39090000  1
  C  C30  1  0.21225000  0.95511000  0.31890000  1
  C  C31  1  0.05280000  0.91152000  0.27452000  1
  C  C32  1  0.07038000  0.84795000  0.21957000  1
  C  C33  1  0.91008000  0.81735000  0.18096000  1
  C  C34  1  0.91357000  0.74609000  0.12235000  1
  C  C35  1  0.74303000  0.90615000  0.25014000  1
  C  C36  1  0.75927000  0.30741000  0.04872000  1
  C  C37  1  0.61749000  0.26719000  0.09616000  1
  C  C38  1  0.65688000  0.21382000  0.15888000  1
  C  C39  1  0.50744000  0.18419000  0.19550000  1
  C  C40  1  0.53119000  0.13069000  0.26708000  1
  C  C41  1  0.31178000  0.25218000  0.11043000  1
  C  C42  1  0.78758000  0.45108000  0.18180000  1
  C  C43  1  0.94860000  0.41102000  0.22604000  1
  C  C44  1  0.92991000  0.34834000  0.28089000  1
  C  C45  1  0.08995000  0.31948000  0.31907000  1
  C  C46  1  0.08490000  0.24979000  0.37796000  1
  C  C47  1  0.25676000  0.40702000  0.24942000  1
  C  C48  1  0.74742000  0.18718000  0.54628000  1
  C  C49  1  0.60922000  0.23038000  0.59414000  1
  C  C50  1  0.65272000  0.28474000  0.65755000  1
  C  C51  1  0.50743000  0.31508000  0.69634000  1
  C  C52  1  0.53486000  0.36411000  0.77304000  1
  C  C53  1  0.30561000  0.24878000  0.60842000  1
  C  C54  1  0.78921000  0.04448000  0.68291000  1
  C  C55  1  0.94977000  0.08898000  0.72698000  1
  C  C56  1  0.93151000  0.15301000  0.78156000  1
  C  C57  1  0.09211000  0.18439000  0.81983000  1
  C  C58  1  0.08673000  0.25695000  0.87779000  1
  C  C59  1  0.25917000  0.09542000  0.75023000  1
  C  C60  1  0.25055000  0.68998000  0.95045000  1
  C  C61  1  0.39240000  0.73179000  0.90385000  1
  C  C62  1  0.35027000  0.78578000  0.84216000  1
  C  C63  1  0.49728000  0.81593000  0.80422000  1
  C  C64  1  0.47103000  0.86915000  0.73202000  1
  C  C65  1  0.69682000  0.74883000  0.88927000  1
  C  C66  1  0.20647000  0.54728000  0.82160000  1
  C  C67  1  0.04482000  0.58891000  0.77694000  1
  C  C68  1  0.06552000  0.65115000  0.72142000  1
  C  C69  1  0.90697000  0.68075000  0.68216000  1
  C  C70  1  0.91246000  0.74960000  0.62176000  1
  C  C71  1  0.73599000  0.59305000  0.75187000  1
  N  N72  1  0.56327000  0.78798000  0.42839000  1
  N  N73  1  0.66210000  0.70120000  0.32883000  1
  N  N74  1  0.88873000  0.93811000  0.29171000  1
  N  N75  1  0.74790000  0.84790000  0.19428000  1
  N  N76  1  0.44546000  0.28677000  0.07340000  1
  N  N77  1  0.33593000  0.20201000  0.17163000  1
  N  N78  1  0.11177000  0.43804000  0.20853000  1
  N  N79  1  0.25279000  0.34985000  0.30502000  1
  N  N80  1  0.43572000  0.21130000  0.57153000  1
  N  N81  1  0.33540000  0.29884000  0.67036000  1
  N  N82  1  0.11287000  0.06260000  0.70940000  1
  N  N83  1  0.25295000  0.15421000  0.80547000  1
  N  N84  1  0.56369000  0.71351000  0.92641000  1
  N  N85  1  0.66824000  0.79789000  0.82768000  1
  N  N86  1  0.88127000  0.56232000  0.79352000  1
  N  N87  1  0.74466000  0.65051000  0.69657000  1
  O  O88  1  0.31836000  0.84135000  0.52081000  1
  O  O89  1  0.09375000  0.81736000  0.42626000  1
  O  O90  1  0.32404000  0.58486000  0.22170000  1
  O  O91  1  0.57136000  0.64850000  0.17859000  1
  O  O92  1  0.16681000  0.01611000  0.36343000  1
  O  O93  1  0.36699000  0.93048000  0.31084000  1
  O  O94  1  0.03845000  0.69335000  0.13654000  1
  O  O95  1  0.79373000  0.74430000  0.06642000  1
  O  O96  1  0.95550000  0.96264000  0.49578000  1
  O  O97  1  0.56374000  0.99361000  0.44684000  1
  O  O98  1  0.69653000  0.34118000  0.98430000  1
  O  O99  1  0.91858000  0.30599000  0.07435000  1
  O  O100  1  0.66586000  0.08174000  0.27042000  1
  O  O101  1  0.42122000  0.14019000  0.31776000  1
  O  O102  1  0.82655000  0.51118000  0.13624000  1
  O  O103  1  0.63665000  0.42203000  0.19238000  1
  O  O104  1  0.95541000  0.19678000  0.36532000  1
  O  O105  1  0.20545000  0.24651000  0.43320000  1
  O  O106  1  0.08988000  0.42756000  0.00587000  1
  O  O107  1  0.42335000  0.49511000  0.05964000  1
  O  O108  1  0.68116000  0.15780000  0.47967000  1
  O  O109  1  0.90532000  0.18205000  0.57426000  1
  O  O110  1  0.67012000  0.41387000  0.78060000  1
  O  O111  1  0.42462000  0.34937000  0.82288000  1
  O  O112  1  0.83182000  0.98449000  0.63718000  1
  O  O113  1  0.63613000  0.06939000  0.69375000  1
  O  O114  1  0.95813000  0.30707000  0.86184000  1
  O  O115  1  0.20597000  0.26130000  0.93343000  1
  O  O116  1  0.04249000  0.03775000  0.50413000  1
  O  O117  1  0.43268000  0.00617000  0.55011000  1
  O  O118  1  0.31344000  0.65111000  0.01153000  1
  O  O119  1  0.08939000  0.69532000  0.92658000  1
  O  O120  1  0.33687000  0.91802000  0.72964000  1
  O  O121  1  0.57897000  0.85885000  0.68075000  1
  O  O122  1  0.16908000  0.49154000  0.87146000  1
  O  O123  1  0.35876000  0.57050000  0.80588000  1
  O  O124  1  0.04069000  0.80329000  0.63535000  1
  O  O125  1  0.79436000  0.75043000  0.56557000  1
  O  O126  1  0.91106000  0.56172000  0.99763000  1
  O  O127  1  0.58436000  0.50547000  0.94908000  1
