# generated using pymatgen
data_EuH3C7NO4
_symmetry_space_group_name_H-M   'P 1'
_cell_length_a   17.14964126
_cell_length_b   17.14964126
_cell_length_c   17.14964126
_cell_angle_alpha   109.47122063
_cell_angle_beta   109.47122063
_cell_angle_gamma   109.47122063
_symmetry_Int_Tables_number   1
_chemical_formula_structural   EuH3C7NO4
_chemical_formula_sum   'Eu12 H36 C84 N12 O48'
_cell_volume   3882.78397852
_cell_formula_units_Z   12
loop_
 _symmetry_equiv_pos_site_id
 _symmetry_equiv_pos_as_xyz
  1  'x, y, z'
loop_
 _atom_site_type_symbol
 _atom_site_label
 _atom_site_symmetry_multiplicity
 _atom_site_fract_x
 _atom_site_fract_y
 _atom_site_fract_z
 _atom_site_occupancy
  C  C1  1  0.21490000  0.41330000  0.08960000  1.0
  C  C2  1  0.28780000  0.51200000  0.17180000  1.0
  C  C3  1  0.35640000  0.58040000  0.16880000  1.0
  C  C7  1  0.28510000  0.87470000  0.69840000  1.0
  C  C8  1  0.21220000  0.88400000  0.72420000  1.0
  C  C9  1  0.14360000  0.81240000  0.72400000  1.0
  C  C13  1  0.17630000  0.08670000  0.80160000  1.0
  C  C14  1  0.15980000  0.98800000  0.77580000  1.0
  C  C15  1  0.08840000  0.91960000  0.77600000  1.0
  C  C19  1  0.32370000  0.62530000  0.41040000  1.0
  C  C20  1  0.34020000  0.61600000  0.32820000  1.0
  C  C21  1  0.41160000  0.68760000  0.33120000  1.0
  C  C25  1  0.12530000  0.91040000  0.32370000  1.0
  C  C26  1  0.11600000  0.82820000  0.34020000  1.0
  C  C27  1  0.18760000  0.83120000  0.41160000  1.0
  C  C31  1  0.58670000  0.30160000  0.17630000  1.0
  C  C32  1  0.48800000  0.27580000  0.15980000  1.0
  C  C33  1  0.41960000  0.27600000  0.08840000  1.0
  C  C37  1  0.37470000  0.19840000  0.28510000  1.0
  C  C38  1  0.38400000  0.22420000  0.21220000  1.0
  C  C39  1  0.31240000  0.22400000  0.14360000  1.0
  C  C43  1  0.91330000  0.58960000  0.21490000  1.0
  C  C44  1  0.01200000  0.67180000  0.28780000  1.0
  C  C45  1  0.08040000  0.66880000  0.35640000  1.0
  C  C49  1  0.80160000  0.67630000  0.58670000  1.0
  C  C50  1  0.77580000  0.65980000  0.48800000  1.0
  C  C51  1  0.77600000  0.58840000  0.41960000  1.0
  C  C55  1  0.41040000  0.82370000  0.12530000  1.0
  C  C56  1  0.32820000  0.84020000  0.11600000  1.0
  C  C57  1  0.33120000  0.91160000  0.18760000  1.0
  C  C61  1  0.08960000  0.71490000  0.91330000  1.0
  C  C62  1  0.17180000  0.78780000  0.01200000  1.0
  C  C63  1  0.16880000  0.85640000  0.08040000  1.0
  C  C67  1  0.69840000  0.78510000  0.37470000  1.0
  C  C68  1  0.72420000  0.71220000  0.38400000  1.0
  C  C69  1  0.72400000  0.64360000  0.31240000  1.0
  C  C73  1  0.78510000  0.58670000  0.91040000  1.0
  C  C74  1  0.71220000  0.48800000  0.82820000  1.0
  C  C75  1  0.64360000  0.41960000  0.83120000  1.0
  C  C79  1  0.71490000  0.12530000  0.30160000  1.0
  C  C80  1  0.78780000  0.11600000  0.27580000  1.0
  C  C81  1  0.85640000  0.18760000  0.27600000  1.0
  C  C85  1  0.82370000  0.91330000  0.19840000  1.0
  C  C86  1  0.84020000  0.01200000  0.22420000  1.0
  C  C87  1  0.91160000  0.08040000  0.22400000  1.0
  C  C91  1  0.67630000  0.37470000  0.58960000  1.0
  C  C92  1  0.65980000  0.38400000  0.67180000  1.0
  C  C93  1  0.58840000  0.31240000  0.66880000  1.0
  C  C97  1  0.87470000  0.08960000  0.67630000  1.0
  C  C98  1  0.88400000  0.17180000  0.65980000  1.0
  C  C99  1  0.81240000  0.16880000  0.58840000  1.0
  C  C103  1  0.41330000  0.69840000  0.82370000  1.0
  C  C104  1  0.51200000  0.72420000  0.84020000  1.0
  C  C105  1  0.58040000  0.72400000  0.91160000  1.0
  C  C109  1  0.62530000  0.80160000  0.71490000  1.0
  C  C110  1  0.61600000  0.77580000  0.78780000  1.0
  C  C111  1  0.68760000  0.77600000  0.85640000  1.0
  C  C115  1  0.08670000  0.41040000  0.78510000  1.0
  C  C116  1  0.98800000  0.32820000  0.71220000  1.0
  C  C117  1  0.91960000  0.33120000  0.64360000  1.0
  C  C121  1  0.19840000  0.32370000  0.41330000  1.0
  C  C122  1  0.22420000  0.34020000  0.51200000  1.0
  C  C123  1  0.22400000  0.41160000  0.58040000  1.0
  C  C127  1  0.58960000  0.17630000  0.87470000  1.0
  C  C128  1  0.67180000  0.15980000  0.88400000  1.0
  C  C129  1  0.66880000  0.08840000  0.81240000  1.0
  C  C133  1  0.91040000  0.28510000  0.08670000  1.0
  C  C134  1  0.82820000  0.21220000  0.98800000  1.0
  C  C135  1  0.83120000  0.14360000  0.91960000  1.0
  C  C139  1  0.30160000  0.21490000  0.62530000  1.0
  C  C140  1  0.27580000  0.28780000  0.61600000  1.0
  C  C141  1  0.27600000  0.35640000  0.68760000  1.0
  C  C145  1  0.41850000  0.66850000  0.25000000  1.0
  C  C146  1  0.08150000  0.83150000  0.75000000  1.0
  C  C149  1  0.16850000  0.75000000  0.41850000  1.0
  C  C150  1  0.33150000  0.25000000  0.08150000  1.0
  C  C153  1  0.75000000  0.58150000  0.33150000  1.0
  C  C154  1  0.25000000  0.91850000  0.16850000  1.0
  C  C157  1  0.58150000  0.33150000  0.75000000  1.0
  C  C158  1  0.91850000  0.16850000  0.25000000  1.0
  C  C161  1  0.83150000  0.25000000  0.58150000  1.0
  C  C162  1  0.66850000  0.75000000  0.91850000  1.0
  C  C165  1  0.25000000  0.41850000  0.66850000  1.0
  C  C166  1  0.75000000  0.08150000  0.83150000  1.0
  Eu  Eu1  1  0.15219000  0.40219000  0.25000000  1.0
  Eu  Eu2  1  0.34781000  0.09781000  0.75000000  1.0
  Eu  Eu5  1  0.90219000  0.75000000  0.15219000  1.0
  Eu  Eu6  1  0.59781000  0.25000000  0.34781000  1.0
  Eu  Eu9  1  0.75000000  0.84781000  0.59781000  1.0
  Eu  Eu10  1  0.25000000  0.65219000  0.90219000  1.0
  Eu  Eu13  1  0.84781000  0.59781000  0.75000000  1.0
  Eu  Eu14  1  0.65219000  0.90219000  0.25000000  1.0
  Eu  Eu17  1  0.09781000  0.25000000  0.84781000  1.0
  Eu  Eu18  1  0.40219000  0.75000000  0.65219000  1.0
  Eu  Eu21  1  0.25000000  0.15219000  0.40219000  1.0
  Eu  Eu22  1  0.75000000  0.34781000  0.09781000  1.0
  H  H1  1  0.36030000  0.56710000  0.11340000  1.0
  H  H3  1  0.13970000  0.75310000  0.70680000  1.0
  H  H5  1  0.04630000  0.93290000  0.79320000  1.0
  H  H7  1  0.45370000  0.74690000  0.38660000  1.0
  H  H9  1  0.24690000  0.88660000  0.45370000  1.0
  H  H11  1  0.43290000  0.29320000  0.04630000  1.0
  H  H13  1  0.25310000  0.20680000  0.13970000  1.0
  H  H15  1  0.06710000  0.61340000  0.36030000  1.0
  H  H17  1  0.79320000  0.54630000  0.43290000  1.0
  H  H19  1  0.38660000  0.95370000  0.24690000  1.0
  H  H21  1  0.11340000  0.86030000  0.06710000  1.0
  H  H23  1  0.70680000  0.63970000  0.25310000  1.0
  H  H25  1  0.63970000  0.43290000  0.88660000  1.0
  H  H27  1  0.86030000  0.24690000  0.29320000  1.0
  H  H29  1  0.95370000  0.06710000  0.20680000  1.0
  H  H31  1  0.54630000  0.25310000  0.61340000  1.0
  H  H33  1  0.75310000  0.11340000  0.54630000  1.0
  H  H35  1  0.56710000  0.70680000  0.95370000  1.0
  H  H37  1  0.74690000  0.79320000  0.86030000  1.0
  H  H39  1  0.93290000  0.38660000  0.63970000  1.0
  H  H41  1  0.20680000  0.45370000  0.56710000  1.0
  H  H43  1  0.61340000  0.04630000  0.75310000  1.0
  H  H45  1  0.88660000  0.13970000  0.93290000  1.0
  H  H47  1  0.29320000  0.36030000  0.74690000  1.0
  H  H49  1  0.46550000  0.71550000  0.25000000  1.0
  H  H50  1  0.03450000  0.78450000  0.75000000  1.0
  H  H53  1  0.21550000  0.75000000  0.46550000  1.0
  H  H54  1  0.28450000  0.25000000  0.03450000  1.0
  H  H57  1  0.75000000  0.53450000  0.28450000  1.0
  H  H58  1  0.25000000  0.96550000  0.21550000  1.0
  H  H61  1  0.53450000  0.28450000  0.75000000  1.0
  H  H62  1  0.96550000  0.21550000  0.25000000  1.0
  H  H65  1  0.78450000  0.25000000  0.53450000  1.0
  H  H66  1  0.71550000  0.75000000  0.96550000  1.0
  H  H69  1  0.25000000  0.46550000  0.71550000  1.0
  H  H70  1  0.75000000  0.03450000  0.78450000  1.0
  N  N1  1  0.27950000  0.52950000  0.25000000  1.0
  N  N2  1  0.22050000  0.97050000  0.75000000  1.0
  N  N5  1  0.02950000  0.75000000  0.27950000  1.0
  N  N6  1  0.47050000  0.25000000  0.22050000  1.0
  N  N9  1  0.75000000  0.72050000  0.47050000  1.0
  N  N10  1  0.25000000  0.77950000  0.02950000  1.0
  N  N13  1  0.72050000  0.47050000  0.75000000  1.0
  N  N14  1  0.77950000  0.02950000  0.25000000  1.0
  N  N17  1  0.97050000  0.25000000  0.72050000  1.0
  N  N18  1  0.52950000  0.75000000  0.77950000  1.0
  N  N21  1  0.25000000  0.27950000  0.52950000  1.0
  N  N22  1  0.75000000  0.22050000  0.97050000  1.0
  O  O1  1  0.16086000  0.35860000  0.10674000  1.0
  O  O2  1  0.21020000  0.39040000  0.01040000  1.0
  O  O5  1  0.33914000  0.94588000  0.69774000  1.0
  O  O6  1  0.28980000  0.80020000  0.68020000  1.0
  O  O9  1  0.24814000  0.14140000  0.80226000  1.0
  O  O10  1  0.12000000  0.10960000  0.81980000  1.0
  O  O13  1  0.25186000  0.55412000  0.39326000  1.0
  O  O14  1  0.38000000  0.69980000  0.48960000  1.0
  O  O17  1  0.05412000  0.89326000  0.25186000  1.0
  O  O18  1  0.19980000  0.98960000  0.38000000  1.0
  O  O21  1  0.64140000  0.30226000  0.24814000  1.0
  O  O22  1  0.60960000  0.31980000  0.12000000  1.0
  O  O25  1  0.44588000  0.19774000  0.33914000  1.0
  O  O26  1  0.30020000  0.18020000  0.28980000  1.0
  O  O29  1  0.85860000  0.60674000  0.16086000  1.0
  O  O30  1  0.89040000  0.51040000  0.21020000  1.0
  O  O33  1  0.80226000  0.74814000  0.64140000  1.0
  O  O34  1  0.81980000  0.62000000  0.60960000  1.0
  O  O37  1  0.39326000  0.75186000  0.05412000  1.0
  O  O38  1  0.48960000  0.88000000  0.19980000  1.0
  O  O41  1  0.10674000  0.66086000  0.85860000  1.0
  O  O42  1  0.01040000  0.71020000  0.89040000  1.0
  O  O45  1  0.69774000  0.83914000  0.44588000  1.0
  O  O46  1  0.68020000  0.78980000  0.30020000  1.0
  O  O49  1  0.83914000  0.64140000  0.89326000  1.0
  O  O50  1  0.78980000  0.60960000  0.98960000  1.0
  O  O53  1  0.66086000  0.05412000  0.30226000  1.0
  O  O54  1  0.71020000  0.19980000  0.31980000  1.0
  O  O57  1  0.75186000  0.85860000  0.19774000  1.0
  O  O58  1  0.88000000  0.89040000  0.18020000  1.0
  O  O61  1  0.74814000  0.44588000  0.60674000  1.0
  O  O62  1  0.62000000  0.30020000  0.51040000  1.0
  O  O65  1  0.94588000  0.10674000  0.74814000  1.0
  O  O66  1  0.80020000  0.01040000  0.62000000  1.0
  O  O69  1  0.35860000  0.69774000  0.75186000  1.0
  O  O70  1  0.39040000  0.68020000  0.88000000  1.0
  O  O73  1  0.55412000  0.80226000  0.66086000  1.0
  O  O74  1  0.69980000  0.81980000  0.71020000  1.0
  O  O77  1  0.14140000  0.39326000  0.83914000  1.0
  O  O78  1  0.10960000  0.48960000  0.78980000  1.0
  O  O81  1  0.19774000  0.25186000  0.35860000  1.0
  O  O82  1  0.18020000  0.38000000  0.39040000  1.0
  O  O85  1  0.60674000  0.24814000  0.94588000  1.0
  O  O86  1  0.51040000  0.12000000  0.80020000  1.0
  O  O89  1  0.89326000  0.33914000  0.14140000  1.0
  O  O90  1  0.98960000  0.28980000  0.10960000  1.0
  O  O93  1  0.30226000  0.16086000  0.55412000  1.0
  O  O94  1  0.31980000  0.21020000  0.69980000  1.0
