# generated using pymatgen
data_H16(C4N)5
_symmetry_space_group_name_H-M   'P 1'
_cell_length_a   17.81045000
_cell_length_b   29.16030000
_cell_length_c   29.16030000
_cell_angle_alpha   120.00000000
_cell_angle_beta   90.00000000
_cell_angle_gamma   90.00000000
_symmetry_Int_Tables_number   1
_chemical_formula_structural   H16(C4N)5
_chemical_formula_sum   'H96 C120 N30'
_cell_volume   13115.64036162
_cell_formula_units_Z   6
loop_
 _symmetry_equiv_pos_site_id
 _symmetry_equiv_pos_as_xyz
  1  'x, y, z'
loop_
 _atom_site_type_symbol
 _atom_site_label
 _atom_site_symmetry_multiplicity
 _atom_site_fract_x
 _atom_site_fract_y
 _atom_site_fract_z
 _atom_site_occupancy
  C  1  1  0.00102900  0.43673700  0.48941800  1
  C  2  1  0.06472100  0.43661700  0.51820800  1
  C  3  1  0.06569900  0.40828400  0.54578800  1
  C  4  1  0.99973100  0.38243700  0.54865600  1
  C  5  1  0.93478300  0.38331500  0.52083200  1
  C  6  1  0.93710500  0.40846900  0.49020400  1
  C  9  1  0.00105100  0.46419500  0.46027700  1
  C  10  1  0.06473900  0.46425000  0.43144900  1
  C  11  1  0.06576100  0.49255600  0.40384200  1
  C  12  1  0.99982100  0.51842500  0.40097500  1
  C  13  1  0.93487900  0.51762000  0.42884300  1
  C  14  1  0.93718100  0.49252400  0.45952500  1
  C  31  1  0.66773300  0.97873300  0.48856700  1
  C  32  1  0.73140300  0.00761700  0.48860300  1
  C  33  1  0.73240900  0.06353000  0.51691600  1
  C  34  1  0.66647500  0.09226600  0.54280100  1
  C  35  1  0.60154100  0.06358600  0.54200200  1
  C  36  1  0.60385500  0.00780600  0.51689900  1
  C  39  1  0.66772100  0.92213500  0.46111300  1
  C  40  1  0.73140300  0.89324000  0.46104200  1
  C  41  1  0.73239700  0.83732700  0.43271300  1
  C  42  1  0.66644700  0.80860000  0.40683700  1
  C  43  1  0.60151300  0.83729400  0.40767000  1
  C  44  1  0.60382100  0.89307400  0.43281200  1
  C  61  1  0.33445900  0.43580500  0.94652600  1
  C  62  1  0.39813100  0.40695100  0.91764400  1
  C  63  1  0.39915300  0.37936100  0.86172900  1
  C  64  1  0.33321300  0.37649500  0.83298900  1
  C  65  1  0.26826900  0.40435500  0.86166500  1
  C  66  1  0.27055900  0.43501100  0.91744600  1
  C  69  1  0.33446500  0.46499200  0.00312300  1
  C  70  1  0.39815300  0.49383700  0.03199500  1
  C  71  1  0.39918100  0.52143300  0.08790800  1
  C  72  1  0.33324100  0.52432200  0.11665500  1
  C  73  1  0.26828500  0.49647300  0.08798600  1
  C  74  1  0.27057500  0.46579400  0.03221000  1
  C  91  1  0.76064900  0.51129200  0.36189800  1
  C  92  1  0.79706700  0.50929300  0.31791200  1
  C  94  1  0.68138700  0.51972000  0.28309400  1
  C  95  1  0.64119700  0.52199100  0.32629000  1
  C  96  1  0.68195700  0.51851300  0.36598200  1
  C  98  1  0.64248500  0.52019000  0.24123400  1
  C  99  1  0.64564700  0.51426500  0.15654300  1
  C  100  1  0.56651700  0.51292600  0.15332300  1
  C  101  1  0.52565500  0.51650500  0.19656800  1
  C  104  1  0.56279300  0.52109600  0.24138300  1
  C  105  1  0.52311500  0.52421600  0.28476700  1
  C  106  1  0.56208700  0.52526500  0.32721600  1
  C  111  1  0.52707700  0.50178000  0.10407200  1
  C  114  1  0.80374700  0.50043900  0.39887200  1
  C  117  1  0.42728500  0.77663800  0.41391500  1
  C  118  1  0.46371300  0.73463000  0.41586500  1
  C  120  1  0.34802100  0.68939500  0.40545300  1
  C  121  1  0.30783700  0.73031500  0.40317100  1
  C  122  1  0.34859500  0.77350300  0.40669400  1
  C  124  1  0.30912900  0.64704600  0.40494800  1
  C  125  1  0.31226700  0.56828300  0.41087800  1
  C  126  1  0.23313500  0.56638500  0.41219100  1
  C  127  1  0.19229300  0.60604500  0.40858200  1
  C  130  1  0.22943900  0.64627200  0.40400000  1
  C  131  1  0.18976100  0.68651900  0.40085100  1
  C  132  1  0.22873300  0.72794500  0.39985100  1
  C  137  1  0.19367900  0.52832700  0.42339800  1
  C  140  1  0.47037100  0.82448400  0.42481200  1
  C  143  1  0.09405500  0.56342300  0.14862800  1
  C  144  1  0.13045500  0.60737800  0.19066300  1
  C  146  1  0.01474300  0.64212100  0.23589100  1
  C  147  1  0.97458070  0.59893000  0.19493800  1
  C  148  1  0.01537100  0.55929800  0.15174200  1
  C  150  1  0.97580470  0.68394600  0.27823500  1
  C  151  1  0.97888070  0.76864900  0.35698600  1
  C  152  1  0.89974870  0.77184500  0.35883600  1
  C  153  1  0.85892870  0.72856500  0.31918300  1
  C  156  1  0.89611070  0.68376800  0.27896400  1
  C  157  1  0.85647070  0.64037600  0.23868000  1
  C  158  1  0.89548070  0.59793900  0.19729300  1
  C  163  1  0.86029470  0.82110600  0.39690700  1
  C  166  1  0.13717100  0.52646800  0.10079900  1
  C  169  1  0.76058900  0.38966400  0.58780100  1
  C  170  1  0.79701100  0.39163000  0.63176700  1
  C  172  1  0.68134900  0.38112400  0.66655400  1
  C  173  1  0.64114900  0.37887400  0.62337000  1
  C  174  1  0.68189100  0.38246900  0.58374100  1
  C  176  1  0.64246100  0.38059300  0.70838700  1
  C  177  1  0.64562100  0.38651700  0.79307800  1
  C  178  1  0.56649100  0.38784000  0.79629000  1
  C  179  1  0.52562500  0.38422600  0.75303200  1
  C  182  1  0.56276700  0.37967600  0.70823400  1
  C  183  1  0.52308500  0.37654600  0.66484700  1
  C  184  1  0.56204900  0.37551800  0.62240700  1
  C  189  1  0.52704700  0.39900000  0.84554700  1
  C  192  1  0.80365700  0.40051400  0.55081400  1
  C  195  1  0.42727300  0.12419400  0.53573600  1
  C  196  1  0.46367300  0.16617200  0.53370900  1
  C  198  1  0.34797700  0.21141500  0.54416700  1
  C  199  1  0.30781500  0.17049900  0.54647400  1
  C  200  1  0.34859500  0.12733700  0.54299800  1
  C  202  1  0.30905100  0.25372900  0.54462300  1
  C  203  1  0.31216100  0.33245500  0.53862600  1
  C  204  1  0.23302700  0.33433000  0.53731300  1
  C  205  1  0.19219100  0.29469000  0.54095300  1
  C  208  1  0.22936100  0.25448400  0.54556100  1
  C  209  1  0.18971100  0.21423900  0.54872800  1
  C  210  1  0.22870500  0.17285000  0.54978300  1
  C  215  1  0.19355100  0.37239900  0.52613100  1
  C  218  1  0.47038300  0.07636700  0.52487400  1
  C  221  1  0.09402700  0.33746100  0.80099600  1
  C  222  1  0.13043900  0.29351300  0.75896500  1
  C  224  1  0.01473100  0.25871200  0.71375300  1
  C  225  1  0.97456470  0.30190600  0.75469400  1
  C  226  1  0.01533300  0.34155500  0.79788300  1
  C  228  1  0.97582070  0.21688100  0.67140000  1
  C  229  1  0.97893270  0.13220400  0.59261500  1
  C  230  1  0.89979870  0.12900000  0.59073700  1
  C  231  1  0.85896870  0.17225700  0.63041500  1
  C  234  1  0.89612670  0.21705900  0.67064700  1
  C  235  1  0.85646470  0.26045000  0.71091800  1
  C  236  1  0.89545870  0.30285900  0.75234100  1
  C  241  1  0.86033270  0.07974200  0.55267800  1
  C  244  1  0.13713700  0.37439100  0.84883900  1
  H  7  1  0.11235700  0.45628200  0.51830200  1
  H  16  1  0.89021900  0.49394000  0.48041600  1
  H  17  1  0.04159500  0.54228000  0.35083600  1
  H  18  1  0.95517900  0.56283300  0.37110400  1
  H  19  1  0.95504700  0.33800500  0.57848600  1
  H  20  1  0.04149900  0.35848500  0.59872000  1
  H  21  1  0.89016700  0.40705400  0.46929400  1
  H  22  1  0.11233900  0.44454700  0.43133900  1
  H  24  1  0.85004700  0.57030800  0.45968800  1
  H  26  1  0.15416900  0.46262000  0.35406700  1
  H  28  1  0.84992100  0.33065500  0.48995400  1
  H  30  1  0.15418100  0.43810600  0.59551100  1
  H  37  1  0.77901100  0.98802500  0.46890800  1
  H  46  1  0.55688700  0.91256600  0.43138400  1
  H  47  1  0.70823100  0.73458900  0.38289400  1
  H  48  1  0.62180500  0.73433000  0.36236500  1
  H  49  1  0.62184500  0.16654300  0.58724800  1
  H  50  1  0.70825500  0.16626500  0.56668800  1
  H  51  1  0.55691100  0.98832200  0.51832300  1
  H  52  1  0.77902100  0.91282200  0.48071900  1
  H  54  1  0.51669900  0.81549800  0.35497500  1
  H  56  1  0.82082270  0.81744300  0.46260000  1
  H  58  1  0.51675900  0.08542000  0.59472300  1
  H  60  1  0.82081070  0.08338900  0.48698800  1
  H  67  1  0.44576700  0.40690200  0.93723600  1
  H  76  1  0.22362500  0.44487700  0.01273800  1
  H  77  1  0.37508700  0.57438100  0.19065100  1
  H  78  1  0.28864900  0.55415200  0.19094200  1
  H  79  1  0.28861500  0.34669600  0.75871000  1
  H  80  1  0.37503700  0.32643700  0.75899000  1
  H  81  1  0.22363100  0.45595300  0.93692300  1
  H  82  1  0.44578300  0.49387800  0.01239500  1
  H  84  1  0.18344700  0.46563900  0.10983800  1
  H  86  1  0.48766300  0.57115000  0.10774000  1
  H  88  1  0.18345900  0.43523600  0.83984500  1
  H  90  1  0.48762300  0.32963500  0.84188800  1
  H  97  1  0.65376500  0.51844900  0.39655200  1
  H  102  1  0.85346900  0.50255900  0.31224400  1
  H  107  1  0.46564500  0.52479000  0.28535700  1
  H  108  1  0.53217100  0.52632200  0.35770300  1
  H  109  1  0.46838300  0.51379100  0.19457900  1
  H  110  1  0.67796300  0.51038400  0.12584600  1
  H  112  1  0.50300700  0.46207100  0.08783700  1
  H  113  1  0.56621900  0.50011100  0.07431200  1
  H  115  1  0.82483100  0.45983500  0.37552900  1
  H  116  1  0.76772500  0.50149800  0.42981900  1
  H  123  1  0.32041900  0.80411900  0.40670800  1
  H  128  1  0.52008900  0.73574600  0.42270700  1
  H  133  1  0.13229500  0.68651400  0.40023600  1
  H  134  1  0.19881100  0.75734900  0.39874800  1
  H  135  1  0.13501700  0.60677100  0.41128400  1
  H  136  1  0.34456300  0.54151500  0.41485400  1
  H  138  1  0.16966100  0.55183800  0.46311600  1
  H  139  1  0.23280900  0.50023000  0.42506700  1
  H  141  1  0.49144900  0.84171800  0.46541700  1
  H  142  1  0.43435300  0.85438100  0.42377500  1
  H  149  1  0.98722469  0.52869200  0.12111200  1
  H  154  1  0.18684900  0.61307500  0.18959600  1
  H  159  1  0.79900500  0.63977100  0.23864200  1
  H  160  1  0.86557670  0.56748900  0.16780900  1
  H  161  1  0.80166500  0.73054800  0.31840200  1
  H  162  1  0.01117100  0.79936700  0.38380000  1
  H  164  1  0.83625270  0.83731600  0.37340300  1
  H  165  1  0.89941670  0.85087900  0.42500500  1
  H  167  1  0.15827100  0.54983700  0.08356800  1
  H  168  1  0.10116500  0.49553100  0.07088800  1
  H  175  1  0.65370700  0.38241700  0.55310800  1
  H  180  1  0.85341500  0.39836400  0.63743500  1
  H  185  1  0.46561300  0.37598600  0.66427000  1
  H  186  1  0.53211300  0.37455100  0.59196700  1
  H  187  1  0.46835700  0.38697300  0.75503000  1
  H  188  1  0.67793700  0.39042000  0.82378500  1
  H  190  1  0.50298300  0.43870700  0.86177200  1
  H  191  1  0.56618700  0.40067300  0.87530800  1
  H  193  1  0.82476100  0.44111400  0.57415700  1
  H  194  1  0.76761300  0.39947000  0.51988200  1
  H  201  1  0.32041500  0.09670800  0.54295400  1
  H  206  1  0.52006700  0.16510400  0.52695200  1
  H  211  1  0.13223900  0.21422100  0.54932300  1
  H  212  1  0.19880500  0.14342900  0.55086900  1
  H  213  1  0.13491700  0.29396000  0.53825900  1
  H  214  1  0.34445700  0.35925700  0.53470500  1
  H  216  1  0.16945900  0.34889200  0.48643400  1
  H  217  1  0.23267300  0.40047600  0.52441800  1
  H  219  1  0.49143100  0.05910000  0.48426000  1
  H  220  1  0.43437500  0.04648600  0.52595500  1
  H  227  1  0.98717469  0.37215100  0.82851500  1
  H  232  1  0.18681700  0.28777900  0.76006100  1
  H  237  1  0.79899900  0.26105900  0.71092500  1
  H  238  1  0.86554870  0.33333333  0.78173433  1
  H  239  1  0.80169900  0.17028400  0.63115400  1
  H  240  1  0.01121700  0.10146500  0.56583200  1
  H  242  1  0.83631870  0.06352700  0.57618400  1
  H  243  1  0.89945070  0.04997600  0.52457100  1
  H  245  1  0.15821500  0.35100200  0.86605500  1
  H  246  1  0.10113100  0.40532300  0.87875000  1
  N  8  1  0.99887300  0.35721900  0.57733900  1
  N  15  1  0.99897900  0.54359700  0.37224900  1
  N  23  1  0.86618700  0.53920100  0.42368300  1
  N  25  1  0.13454100  0.49874100  0.38302500  1
  N  27  1  0.86607500  0.36173800  0.52597400  1
  N  29  1  0.13447900  0.40201500  0.56654900  1
  N  38  1  0.66562100  0.14616200  0.56797200  1
  N  45  1  0.66559300  0.75470100  0.38163500  1
  N  53  1  0.53282300  0.81056300  0.38606300  1
  N  55  1  0.80117100  0.81030600  0.42649300  1
  N  57  1  0.53285700  0.09032400  0.56361200  1
  N  59  1  0.80118900  0.09054100  0.52310600  1
  N  68  1  0.33237700  0.34777400  0.77909200  1
  N  75  1  0.33241500  0.55305500  0.17055300  1
  N  83  1  0.19960100  0.50164300  0.11474100  1
  N  85  1  0.46799300  0.54219600  0.11489200  1
  N  87  1  0.19958900  0.39922000  0.83492100  1
  N  89  1  0.46795700  0.35859000  0.83473700  1
  N  93  1  0.75708300  0.51350600  0.28074100  1
  N  103  1  0.68026500  0.51693200  0.19919300  1
  N  119  1  0.42371900  0.69326100  0.41168300  1
  N  129  1  0.34689300  0.60828100  0.40824400  1
  N  145  1  0.09043500  0.64451400  0.23205200  1
  N  155  1  0.01354100  0.72601000  0.31702000  1
  N  171  1  0.75704100  0.38737200  0.66892000  1
  N  181  1  0.68023700  0.38386600  0.75043600  1
  N  197  1  0.42366900  0.20755100  0.53792100  1
  N  207  1  0.34680300  0.29249500  0.54131700  1
  N  223  1  0.09042900  0.25634200  0.71759600  1
  N  233  1  0.01356900  0.17482800  0.63261700  1
