# generated using pymatgen
data_BaCd3H32C52N4ClO12
_symmetry_space_group_name_H-M   'P 1'
_cell_length_a   10.04741000
_cell_length_b   18.56195000
_cell_length_c   20.94775000
_cell_angle_alpha   89.32599000
_cell_angle_beta   84.67667000
_cell_angle_gamma   87.19592000
_symmetry_Int_Tables_number   1
_chemical_formula_structural   BaCd3H32C52N4ClO12
_chemical_formula_sum   'Ba2 Cd6 H64 C104 N8 Cl2 O24'
_cell_volume   3885.13551690
_cell_formula_units_Z   2
loop_
 _symmetry_equiv_pos_site_id
 _symmetry_equiv_pos_as_xyz
  1  'x, y, z'
loop_
 _atom_site_type_symbol
 _atom_site_label
 _atom_site_symmetry_multiplicity
 _atom_site_fract_x
 _atom_site_fract_y
 _atom_site_fract_z
 _atom_site_occupancy
  Ba  Ba1  1  0.95967000  0.18284000  0.59220000  1.0
  Ba  Ba2  1  0.04033000  0.81717000  0.40780000  1.0
  Cd  Cd1  1  0.61382000  0.45155000  0.03891000  1.0
  Cd  Cd2  1  0.88515000  0.99652000  0.47460000  1.0
  Cd  Cd3  1  0.38617000  0.54845000  0.96109000  1.0
  Cd  Cd4  1  0.11485000  0.00348000  0.52540000  1.0
  Cd  Cd5  1  0.37739000  0.96170000  0.00938000  1.0
  Cd  Cd6  1  0.62261000  0.03830000  0.99062000  1.0
  H  H1  1  0.12992000  0.25280000  0.40395000  1.0
  H  H2  1  0.19754000  0.32140000  0.30431000  1.0
  H  H3  1  0.93923000  0.19688000  0.20113000  1.0
  H  H4  1  0.87476000  0.12772000  0.30018000  1.0
  H  H5  1  0.30198000  0.32836000  0.19460000  1.0
  H  H6  1  0.12520000  0.45096000  0.04704000  1.0
  H  H7  1  0.88004000  0.31458000  0.17077000  1.0
  H  H8  1  0.41241000  0.40542000  0.79264000  1.0
  H  H9  1  0.42003000  0.31389000  0.70524000  1.0
  H  H10  1  0.65812000  0.16916000  0.81655000  1.0
  H  H11  1  0.65575000  0.26213000  0.89996000  1.0
  H  H12  1  0.33503000  0.20340000  0.68401000  1.0
  H  H13  1  0.53838000  0.03062000  0.57417000  1.0
  H  H14  1  0.74279000  0.13908000  0.71344000  1.0
  H  H15  1  0.87007000  0.74720000  0.59605000  1.0
  H  H16  1  0.80246000  0.67860000  0.69569000  1.0
  H  H17  1  0.06077000  0.80313000  0.79887000  1.0
  H  H18  1  0.12524000  0.87228000  0.69981000  1.0
  H  H19  1  0.69802000  0.67164000  0.80540000  1.0
  H  H20  1  0.87480000  0.54904000  0.95296000  1.0
  H  H21  1  0.11996000  0.68542000  0.82923000  1.0
  H  H22  1  0.58758000  0.59458000  0.20736000  1.0
  H  H23  1  0.57997000  0.68611000  0.29476000  1.0
  H  H24  1  0.34188000  0.83084000  0.18345000  1.0
  H  H25  1  0.34424000  0.73787000  0.10003000  1.0
  H  H26  1  0.66496000  0.79660000  0.31598000  1.0
  H  H27  1  0.46161000  0.96938000  0.42582000  1.0
  H  H28  1  0.25720000  0.86092000  0.28656000  1.0
  H  H29  1  0.99675000  0.55411000  0.06946000  1.0
  H  H30  1  0.14288000  0.60830000  0.06563000  1.0
  H  H31  1  0.03588000  0.60216000  0.13845000  1.0
  H  H32  1  0.79105000  0.60422000  0.05763000  1.0
  H  H33  1  0.64519000  0.71020000  0.02919000  1.0
  H  H34  1  0.97852000  0.84549000  0.04909000  1.0
  H  H35  1  0.11536000  0.73394000  0.07096000  1.0
  H  H36  1  0.73421000  0.82595000  0.16053000  1.0
  H  H37  1  0.61467000  0.93189000  0.23447000  1.0
  H  H38  1  0.76682000  0.76416000  0.91562000  1.0
  H  H39  1  0.64141000  0.81167000  0.81638000  1.0
  H  H40  1  0.29105000  0.10256000  0.24592000  1.0
  H  H41  1  0.29920000  0.13182000  0.35924000  1.0
  H  H42  1  0.43631000  0.08510000  0.45622000  1.0
  H  H43  1  0.46299000  0.17771000  0.43745000  1.0
  H  H44  1  0.60370000  0.11573000  0.44247000  1.0
  H  H45  1  0.70752000  0.07612000  0.35223000  1.0
  H  H46  1  0.71539000  0.04349000  0.23725000  1.0
  H  H47  1  0.00325000  0.44589000  0.93054000  1.0
  H  H48  1  0.85712000  0.39170000  0.93437000  1.0
  H  H49  1  0.96412000  0.39784000  0.86155000  1.0
  H  H50  1  0.20895000  0.39578000  0.94237000  1.0
  H  H51  1  0.35480000  0.28980000  0.97081000  1.0
  H  H52  1  0.02148000  0.15451000  0.95091000  1.0
  H  H53  1  0.88464000  0.26606000  0.92903000  1.0
  H  H54  1  0.26579000  0.17405000  0.83947000  1.0
  H  H55  1  0.38533000  0.06811000  0.76553000  1.0
  H  H56  1  0.23317000  0.23584000  0.08438000  1.0
  H  H57  1  0.35859000  0.18833000  0.18361000  1.0
  H  H58  1  0.70895000  0.89744000  0.75408000  1.0
  H  H59  1  0.70080000  0.86818000  0.64075000  1.0
  H  H60  1  0.56369000  0.91490000  0.54378000  1.0
  H  H61  1  0.53701000  0.82229000  0.56255000  1.0
  H  H62  1  0.39630000  0.88427000  0.55753000  1.0
  H  H63  1  0.29248000  0.92388000  0.64777000  1.0
  H  H64  1  0.28461000  0.95652000  0.76275000  1.0
  C  C1  1  0.93905000  0.15488000  0.42090000  1.0
  C  C2  1  0.99415000  0.18762000  0.35938000  1.0
  C  C3  1  0.08952000  0.24054000  0.35915000  1.0
  C  C4  1  0.12745000  0.27866000  0.30333000  1.0
  C  C5  1  0.06846000  0.26619000  0.24631000  1.0
  C  C6  1  0.98086000  0.20929000  0.24563000  1.0
  C  C7  1  0.94467000  0.17040000  0.30116000  1.0
  C  C8  1  0.08847000  0.31497000  0.19034000  1.0
  C  C9  1  0.21274000  0.34351000  0.17085000  1.0
  C  C10  1  0.22650000  0.39050000  0.11814000  1.0
  C  C11  1  0.11398000  0.41314000  0.08705000  1.0
  C  C12  1  0.98892000  0.38625000  0.10670000  1.0
  C  C13  1  0.97774000  0.33564000  0.15676000  1.0
  C  C14  1  0.86587000  0.41188000  0.07608000  1.0
  C  C15  1  0.36240000  0.41459000  0.09391000  1.0
  C  C16  1  0.52870000  0.39620000  0.90308000  1.0
  C  C17  1  0.53537000  0.34005000  0.85098000  1.0
  C  C18  1  0.46698000  0.35371000  0.79632000  1.0
  C  C19  1  0.47038000  0.30225000  0.74829000  1.0
  C  C20  1  0.54052000  0.23532000  0.75410000  1.0
  C  C21  1  0.60803000  0.22158000  0.80921000  1.0
  C  C22  1  0.60591000  0.27366000  0.85680000  1.0
  C  C23  1  0.54067000  0.18031000  0.70375000  1.0
  C  C24  1  0.42624000  0.17072000  0.67150000  1.0
  C  C25  1  0.42458000  0.11631000  0.62587000  1.0
  C  C26  1  0.53934000  0.07214000  0.61012000  1.0
  C  C27  1  0.65535000  0.08169000  0.64035000  1.0
  C  C28  1  0.65436000  0.13471000  0.68759000  1.0
  C  C29  1  0.78078000  0.03678000  0.61994000  1.0
  C  C30  1  0.29886000  0.10231000  0.59585000  1.0
  C  C31  1  0.06095000  0.84512000  0.57909000  1.0
  C  C32  1  0.00584000  0.81238000  0.64062000  1.0
  C  C33  1  0.91048000  0.75947000  0.64085000  1.0
  C  C34  1  0.87254000  0.72134000  0.69667000  1.0
  C  C35  1  0.93154000  0.73381000  0.75369000  1.0
  C  C36  1  0.01914000  0.79071000  0.75437000  1.0
  C  C37  1  0.05533000  0.82960000  0.69883000  1.0
  C  C38  1  0.91153000  0.68503000  0.80966000  1.0
  C  C39  1  0.78726000  0.65649000  0.82914000  1.0
  C  C40  1  0.77350000  0.60951000  0.88186000  1.0
  C  C41  1  0.88602000  0.58686000  0.91295000  1.0
  C  C42  1  0.01108000  0.61375000  0.89330000  1.0
  C  C43  1  0.02226000  0.66436000  0.84324000  1.0
  C  C44  1  0.13413000  0.58812000  0.92391000  1.0
  C  C45  1  0.63759000  0.58541000  0.90609000  1.0
  C  C46  1  0.47130000  0.60380000  0.09692000  1.0
  C  C47  1  0.46463000  0.65995000  0.14902000  1.0
  C  C48  1  0.53302000  0.64629000  0.20368000  1.0
  C  C49  1  0.52962000  0.69775000  0.25171000  1.0
  C  C50  1  0.45947000  0.76468000  0.24589000  1.0
  C  C51  1  0.39196000  0.77842000  0.19079000  1.0
  C  C52  1  0.39409000  0.72634000  0.14320000  1.0
  C  C53  1  0.45933000  0.81969000  0.29625000  1.0
  C  C54  1  0.57376000  0.82928000  0.32849000  1.0
  C  C55  1  0.57542000  0.88369000  0.37412000  1.0
  C  C56  1  0.46066000  0.92786000  0.38988000  1.0
  C  C57  1  0.34464000  0.91831000  0.35964000  1.0
  C  C58  1  0.34564000  0.86529000  0.31241000  1.0
  C  C59  1  0.21921000  0.96322000  0.38006000  1.0
  C  C60  1  0.70114000  0.89769000  0.40415000  1.0
  C  C61  1  0.03929000  0.60313000  0.08598000  1.0
  C  C62  1  0.82778000  0.65851000  0.05410000  1.0
  C  C63  1  0.74789000  0.71822000  0.03897000  1.0
  C  C64  1  0.79826000  0.78754000  0.03788000  1.0
  C  C65  1  0.93255000  0.79351000  0.05022000  1.0
  C  C66  1  0.01011000  0.73244000  0.06310000  1.0
  C  C67  1  0.68039000  0.89812000  0.07987000  1.0
  C  C68  1  0.69272000  0.87734000  0.14470000  1.0
  C  C69  1  0.63090000  0.93194000  0.18273000  1.0
  C  C70  1  0.58334000  0.98689000  0.14114000  1.0
  C  C71  1  0.71275000  0.85327000  0.02613000  1.0
  C  C72  1  0.67018000  0.86259000  0.96489000  1.0
  C  C73  1  0.70419000  0.81309000  0.91349000  1.0
  C  C74  1  0.64174000  0.83853000  0.86184000  1.0
  C  C75  1  0.57201000  0.90601000  0.87963000  1.0
  C  C76  1  0.50554000  0.05127000  0.16164000  1.0
  C  C77  1  0.50421000  0.07098000  0.22824000  1.0
  C  C78  1  0.38695000  0.09797000  0.26606000  1.0
  C  C79  1  0.38887000  0.11450000  0.32951000  1.0
  C  C80  1  0.50155000  0.12213000  0.42836000  1.0
  C  C81  1  0.61940000  0.08027000  0.32574000  1.0
  C  C82  1  0.62093000  0.06262000  0.26233000  1.0
  C  C83  1  0.96071000  0.39687000  0.91402000  1.0
  C  C84  1  0.17222000  0.34149000  0.94590000  1.0
  C  C85  1  0.25211000  0.28178000  0.96102000  1.0
  C  C86  1  0.20174000  0.21246000  0.96212000  1.0
  C  C87  1  0.06745000  0.20649000  0.94978000  1.0
  C  C88  1  0.98989000  0.26756000  0.93690000  1.0
  C  C89  1  0.31961000  0.10188000  0.92013000  1.0
  C  C90  1  0.30728000  0.12267000  0.85530000  1.0
  C  C91  1  0.36910000  0.06806000  0.81726000  1.0
  C  C92  1  0.41666000  0.01311000  0.85886000  1.0
  C  C93  1  0.28725000  0.14674000  0.97387000  1.0
  C  C94  1  0.32982000  0.13741000  0.03511000  1.0
  C  C95  1  0.29580000  0.18691000  0.08651000  1.0
  C  C96  1  0.35825000  0.16147000  0.13816000  1.0
  C  C97  1  0.42799000  0.09400000  0.12036000  1.0
  C  C98  1  0.49445000  0.94873000  0.83836000  1.0
  C  C99  1  0.49579000  0.92902000  0.77176000  1.0
  C  C100  1  0.61305000  0.90203000  0.73394000  1.0
  C  C101  1  0.61113000  0.88550000  0.67049000  1.0
  C  C102  1  0.49845000  0.87787000  0.57164000  1.0
  C  C103  1  0.38060000  0.91973000  0.67426000  1.0
  C  C104  1  0.37907000  0.93738000  0.73767000  1.0
  N  N1  1  0.58764000  0.92016000  0.94378000  1.0
  N  N2  1  0.61324000  0.96568000  0.07826000  1.0
  N  N3  1  0.95671000  0.66631000  0.06639000  1.0
  N  N4  1  0.50412000  0.10648000  0.35980000  1.0
  N  N5  1  0.41236000  0.07984000  0.05621000  1.0
  N  N6  1  0.38676000  0.03432000  0.92174000  1.0
  N  N7  1  0.04329000  0.33369000  0.93361000  1.0
  N  N8  1  0.49588000  0.89353000  0.64019000  1.0
  Cl  Cl1  1  0.23191000  0.88263000  0.06947000  1.0
  Cl  Cl2  1  0.76809000  0.11737000  0.93053000  1.0
  O  O1  1  0.85263000  0.10697000  0.41961000  1.0
  O  O2  1  0.97932000  0.17858000  0.47309000  1.0
  O  O3  1  0.77206000  0.36806000  0.07510000  1.0
  O  O4  1  0.85916000  0.47602000  0.05359000  1.0
  O  O5  1  0.37327000  0.44369000  0.03764000  1.0
  O  O6  1  0.45984000  0.40321000  0.12722000  1.0
  O  O7  1  0.61790000  0.38937000  0.94274000  1.0
  O  O8  1  0.43346000  0.44358000  0.90173000  1.0
  O  O9  1  0.89223000  0.06138000  0.63489000  1.0
  O  O10  1  0.77088000  0.98129000  0.58712000  1.0
  O  O11  1  0.29856000  0.04357000  0.56488000  1.0
  O  O12  1  0.20072000  0.14887000  0.60365000  1.0
  O  O13  1  0.14737000  0.89303000  0.58039000  1.0
  O  O14  1  0.02068000  0.82142000  0.52691000  1.0
  O  O15  1  0.22794000  0.63194000  0.92490000  1.0
  O  O16  1  0.14084000  0.52398000  0.94641000  1.0
  O  O17  1  0.62673000  0.55631000  0.96236000  1.0
  O  O18  1  0.54015000  0.59679000  0.87278000  1.0
  O  O19  1  0.38210000  0.61063000  0.05726000  1.0
  O  O20  1  0.56654000  0.55642000  0.09827000  1.0
  O  O21  1  0.10777000  0.93862000  0.36511000  1.0
  O  O22  1  0.22911000  0.01871000  0.41288000  1.0
  O  O23  1  0.70144000  0.95643000  0.43512000  1.0
  O  O24  1  0.79928000  0.85113000  0.39635000  1.0
