# generated using pymatgen
data_H28C39(N4O)2
_symmetry_space_group_name_H-M   'P 1'
_cell_length_a   27.38040000
_cell_length_b   37.21060000
_cell_length_c   37.21060000
_cell_angle_alpha   90.00000000
_cell_angle_beta   90.00000000
_cell_angle_gamma   90.00000000
_symmetry_Int_Tables_number   1
_chemical_formula_structural   H28C39(N4O)2
_chemical_formula_sum   'H224 C312 N64 O16'
_cell_volume   37911.68909112
_cell_formula_units_Z   8
loop_
 _symmetry_equiv_pos_site_id
 _symmetry_equiv_pos_as_xyz
  1  'x, y, z'
loop_
 _atom_site_type_symbol
 _atom_site_label
 _atom_site_symmetry_multiplicity
 _atom_site_fract_x
 _atom_site_fract_y
 _atom_site_fract_z
 _atom_site_occupancy
  H  26  1  0.89514300  0.93018400  0.40244500  1
  H  27  1  0.95918500  0.94047400  0.36039500  1
  H  28  1  0.89021200  0.04086500  0.42590800  1
  H  29  1  0.95292900  0.05153600  0.38307400  1
  H  30  1  0.04813600  0.07177500  0.35962100  1
  H  31  1  0.11528200  0.08097200  0.39945600  1
  H  32  1  0.11804600  0.97027800  0.42293600  1
  H  33  1  0.05247500  0.96063000  0.38231100  1
  H  34  1  0.09537500  0.98798000  0.31342700  1
  H  35  1  0.12035700  0.94457000  0.27134800  1
  H  36  1  0.97361900  0.91596000  0.25305200  1
  H  37  1  0.94808200  0.95958700  0.29621100  1
  H  38  1  0.90934600  0.02508000  0.31454800  1
  H  39  1  0.05646100  0.05236600  0.29519800  1
  H  40  1  0.03038200  0.09652700  0.25277600  1
  H  45  1  0.88383500  0.06906400  0.27300600  1
  H  71  1  0.39515800  0.08439500  0.61207900  1
  H  72  1  0.45914900  0.07415600  0.65417900  1
  H  73  1  0.39030800  0.97369100  0.58871400  1
  H  74  1  0.45298000  0.96307500  0.63159200  1
  H  75  1  0.54814700  0.94289300  0.65505000  1
  H  76  1  0.61530100  0.93370200  0.61521700  1
  H  77  1  0.61805800  0.04440200  0.59175100  1
  H  78  1  0.55247500  0.05404100  0.63236600  1
  H  79  1  0.59532700  0.02675100  0.70129500  1
  H  80  1  0.62018400  0.07018700  0.74340100  1
  H  81  1  0.47337500  0.09869900  0.76153900  1
  H  82  1  0.44797300  0.05504900  0.71836800  1
  H  83  1  0.40932900  0.98958400  0.70009400  1
  H  84  1  0.55643700  0.96231500  0.71948600  1
  H  85  1  0.53034200  0.91816900  0.76192300  1
  H  90  1  0.38380700  0.94561800  0.74164600  1
  H  116  1  0.14521500  0.61215900  0.93020300  1
  H  117  1  0.20922500  0.65423300  0.94049300  1
  H  118  1  0.14023200  0.58874900  0.04089300  1
  H  119  1  0.20291800  0.63160800  0.05156200  1
  H  120  1  0.29810300  0.65504200  0.07178800  1
  H  121  1  0.36525000  0.61520700  0.08098300  1
  H  122  1  0.36808800  0.59179900  0.97027200  1
  H  123  1  0.30251100  0.63242000  0.96063000  1
  H  124  1  0.34531500  0.70136800  0.98806000  1
  H  125  1  0.37026800  0.74348500  0.94467200  1
  H  126  1  0.22352700  0.76160300  0.91596000  1
  H  127  1  0.19803300  0.71841700  0.95956800  1
  H  128  1  0.15933100  0.70016900  0.02499200  1
  H  129  1  0.30637900  0.71947800  0.05245400  1
  H  130  1  0.28022700  0.76190100  0.09659200  1
  H  135  1  0.13373600  0.74171100  0.06893900  1
  H  161  1  0.64512500  0.40249000  0.08447000  1
  H  162  1  0.70916000  0.36043500  0.07419800  1
  H  163  1  0.64020500  0.42591400  0.97377900  1
  H  164  1  0.70292200  0.38307600  0.96312900  1
  H  165  1  0.79812500  0.35964000  0.94291400  1
  H  166  1  0.86526400  0.39948000  0.93372100  1
  H  167  1  0.86805400  0.42292800  0.04442200  1
  H  168  1  0.80248200  0.38230500  0.05406700  1
  H  169  1  0.84534800  0.31342700  0.02672000  1
  H  170  1  0.87030400  0.27134500  0.07013700  1
  H  171  1  0.72355300  0.25309600  0.09874300  1
  H  172  1  0.69804200  0.29625200  0.05510600  1
  H  173  1  0.65933900  0.31455300  0.98960600  1
  H  174  1  0.80646300  0.29522000  0.96232600  1
  H  175  1  0.78039700  0.25278700  0.91816900  1
  H  180  1  0.63384300  0.27300000  0.94562600  1
  H  187  1  0.84365400  0.19121900  0.23126600  1
  H  190  1  0.90393400  0.11503900  0.06742900  1
  H  191  1  0.84877000  0.13143600  0.08586000  1
  H  192  1  0.88355400  0.09829200  0.10927500  1
  H  194  1  0.86554100  0.20656300  0.09047000  1
  H  196  1  0.88630100  0.13869100  0.25831700  1
  H  203  1  0.34358700  0.82350200  0.78347100  1
  H  206  1  0.40391300  0.89976000  0.94726000  1
  H  207  1  0.34874100  0.88338000  0.92882700  1
  H  208  1  0.38356600  0.91649200  0.90540100  1
  H  210  1  0.36538500  0.80821100  0.92432300  1
  H  212  1  0.38624300  0.87593900  0.75641600  1
  H  219  1  0.09370900  0.78341100  0.19125100  1
  H  222  1  0.15352100  0.94726800  0.11492700  1
  H  223  1  0.09846100  0.92881100  0.13147700  1
  H  224  1  0.13308900  0.90541400  0.09823200  1
  H  226  1  0.11570600  0.92418900  0.20660400  1
  H  228  1  0.13638600  0.75631400  0.13882400  1
  H  235  1  0.59335100  0.23126000  0.82364700  1
  H  238  1  0.65423400  0.06744600  0.89957200  1
  H  239  1  0.59897900  0.08585800  0.88332700  1
  H  240  1  0.63390900  0.10928100  0.91637900  1
  H  242  1  0.61551300  0.09052100  0.80803100  1
  H  244  1  0.63632700  0.25833800  0.87599800  1
  H  251  1  0.82811700  0.99740400  0.54461700  1
  H  254  1  0.62636000  0.94333100  0.44544600  1
  H  255  1  0.65012100  0.92969500  0.48744700  1
  H  256  1  0.68769200  0.92877100  0.44823500  1
  H  258  1  0.63909100  0.00440800  0.53254500  1
  H  260  1  0.87409900  0.99935500  0.48691300  1
  H  267  1  0.32808100  0.01721900  0.47000100  1
  H  270  1  0.12642100  0.07117400  0.56935400  1
  H  271  1  0.15013500  0.08487600  0.52735800  1
  H  272  1  0.18775000  0.08574500  0.56655400  1
  H  274  1  0.13905800  0.01034100  0.48216400  1
  H  276  1  0.37422300  0.01556100  0.52754300  1
  H  283  1  0.07810300  0.47003800  0.99749000  1
  H  286  1  0.87643600  0.56922500  0.94326700  1
  H  287  1  0.90019000  0.52720800  0.92966600  1
  H  288  1  0.93777900  0.56641400  0.92873600  1
  H  290  1  0.88908400  0.48216400  0.00440800  1
  H  292  1  0.12410700  0.52773200  0.99942800  1
  H  299  1  0.57808100  0.54463300  0.01725900  1
  H  302  1  0.37634200  0.44541400  0.07128200  1
  H  303  1  0.40010000  0.48740700  0.08494700  1
  H  304  1  0.43767700  0.44819500  0.08583900  1
  H  306  1  0.38905900  0.53255800  0.01027000  1
  H  308  1  0.62403700  0.48698000  0.01530400  1
  H  334  1  0.96818800  0.93018400  0.80555600  1
  H  335  1  0.03223000  0.94047400  0.76350600  1
  H  336  1  0.96325700  0.04086500  0.82901900  1
  H  337  1  0.02597400  0.05153600  0.78618500  1
  H  338  1  0.12118100  0.07177500  0.76273200  1
  H  339  1  0.18832700  0.08097200  0.80256700  1
  H  340  1  0.19109100  0.97027800  0.82604700  1
  H  341  1  0.12552000  0.96063000  0.78542200  1
  H  342  1  0.16842000  0.98798000  0.71653800  1
  H  343  1  0.19340200  0.94457000  0.67445900  1
  H  344  1  0.04666400  0.91596000  0.65616300  1
  H  345  1  0.02112700  0.95958700  0.69932200  1
  H  346  1  0.98239100  0.02508000  0.71765900  1
  H  347  1  0.12950600  0.05236600  0.69830900  1
  H  348  1  0.10342700  0.09652700  0.65588700  1
  H  353  1  0.95688000  0.06906400  0.67611700  1
  H  379  1  0.46820300  0.08439500  0.01518990  1
  H  380  1  0.53219400  0.07415600  0.05728990  1
  H  381  1  0.46335300  0.97369100  0.99182500  1
  H  382  1  0.52602500  0.96307500  0.03470290  1
  H  383  1  0.62119200  0.94289300  0.05816090  1
  H  384  1  0.68834600  0.93370200  0.01832790  1
  H  385  1  0.69110300  0.04440200  0.99486200  1
  H  386  1  0.62552000  0.05404100  0.03547690  1
  H  387  1  0.66837200  0.02675100  0.10440600  1
  H  388  1  0.69322900  0.07018700  0.14651200  1
  H  389  1  0.54642000  0.09869900  0.16465000  1
  H  390  1  0.52101800  0.05504900  0.12147900  1
  H  391  1  0.48237400  0.98958400  0.10320500  1
  H  392  1  0.62948200  0.96231500  0.12259700  1
  H  393  1  0.60338700  0.91816900  0.16503400  1
  H  398  1  0.45685200  0.94561800  0.14475700  1
  H  424  1  0.21826000  0.61215900  0.33333333  1
  H  425  1  0.28227000  0.65423300  0.34360400  1
  H  426  1  0.21327700  0.58874900  0.44400400  1
  H  427  1  0.27596300  0.63160800  0.45467300  1
  H  428  1  0.37114800  0.65504200  0.47489900  1
  H  429  1  0.43829500  0.61520700  0.48409400  1
  H  430  1  0.44113300  0.59179900  0.37338300  1
  H  431  1  0.37555600  0.63242000  0.36374100  1
  H  432  1  0.41836000  0.70136800  0.39117100  1
  H  433  1  0.44331300  0.74348500  0.34778300  1
  H  434  1  0.29657200  0.76160300  0.31907100  1
  H  435  1  0.27107800  0.71841700  0.36267900  1
  H  436  1  0.23237600  0.70016900  0.42810300  1
  H  437  1  0.37942400  0.71947800  0.45556500  1
  H  438  1  0.35327200  0.76190100  0.49970300  1
  H  443  1  0.20678100  0.74171100  0.47205000  1
  H  469  1  0.71817000  0.40249000  0.48758100  1
  H  470  1  0.78220500  0.36043500  0.47730900  1
  H  471  1  0.71325000  0.42591400  0.37689000  1
  H  472  1  0.77596700  0.38307600  0.36624000  1
  H  473  1  0.87117000  0.35964000  0.34602500  1
  H  474  1  0.93830900  0.39948000  0.33683200  1
  H  475  1  0.94109900  0.42292800  0.44753300  1
  H  476  1  0.87552700  0.38230500  0.45717800  1
  H  477  1  0.91839300  0.31342700  0.42983100  1
  H  478  1  0.94334900  0.27134500  0.47324800  1
  H  479  1  0.79659800  0.25309600  0.50185400  1
  H  480  1  0.77108700  0.29625200  0.45821700  1
  H  481  1  0.73238400  0.31455300  0.39271700  1
  H  482  1  0.87950800  0.29522000  0.36543700  1
  H  483  1  0.85344200  0.25278700  0.32128000  1
  H  488  1  0.70688800  0.27300000  0.34873700  1
  H  495  1  0.91669900  0.19121900  0.63437700  1
  H  498  1  0.97697900  0.11503900  0.47054000  1
  H  499  1  0.92181500  0.13143600  0.48897100  1
  H  500  1  0.95659900  0.09829200  0.51238600  1
  H  502  1  0.93858600  0.20656300  0.49358100  1
  H  504  1  0.95934600  0.13869100  0.66142800  1
  H  511  1  0.41663200  0.82350200  0.18658200  1
  H  514  1  0.47695800  0.89976000  0.35037100  1
  H  515  1  0.42178600  0.88338000  0.33193800  1
  H  516  1  0.45661100  0.91649200  0.30851200  1
  H  518  1  0.43843000  0.80821100  0.32743400  1
  H  520  1  0.45928800  0.87593900  0.15952700  1
  H  527  1  0.16675400  0.78341100  0.59436200  1
  H  530  1  0.22656600  0.94726800  0.51803800  1
  H  531  1  0.17150600  0.92881100  0.53458800  1
  H  532  1  0.20613400  0.90541400  0.50134300  1
  H  534  1  0.18875100  0.92418900  0.60971500  1
  H  536  1  0.20943100  0.75631400  0.54193500  1
  H  543  1  0.66639600  0.23126000  0.22675800  1
  H  546  1  0.72727900  0.06744600  0.30268300  1
  H  547  1  0.67202400  0.08585800  0.28643800  1
  H  548  1  0.70695400  0.10928100  0.31949000  1
  H  550  1  0.68855800  0.09052100  0.21114200  1
  H  552  1  0.70937200  0.25833800  0.27910900  1
  H  559  1  0.90116200  0.99740400  0.94772800  1
  H  562  1  0.69940500  0.94333100  0.84855700  1
  H  563  1  0.72316600  0.92969500  0.89055800  1
  H  564  1  0.76073700  0.92877100  0.85134600  1
  H  566  1  0.71213600  0.00440800  0.93565600  1
  H  568  1  0.94714400  0.99935500  0.89002400  1
  H  575  1  0.40112600  0.01721900  0.87311200  1
  H  578  1  0.19946600  0.07117400  0.97246500  1
  H  579  1  0.22318000  0.08487600  0.93046900  1
  H  580  1  0.26079500  0.08574500  0.96966500  1
  H  582  1  0.21210300  0.01034100  0.88527500  1
  H  584  1  0.44726800  0.01556100  0.93065400  1
  H  591  1  0.15114800  0.47003800  0.40060100  1
  H  594  1  0.94948100  0.56922500  0.34637800  1
  H  595  1  0.97323500  0.52720800  0.33277700  1
  H  596  1  0.01082400  0.56641400  0.33184700  1
  H  598  1  0.96212900  0.48216400  0.40751900  1
  H  600  1  0.19715200  0.52773200  0.40253900  1
  H  607  1  0.65112600  0.54463300  0.42037000  1
  H  610  1  0.44938700  0.44541400  0.47439300  1
  H  611  1  0.47314500  0.48740700  0.48805800  1
  H  612  1  0.51072200  0.44819500  0.48895000  1
  H  614  1  0.46210400  0.53255800  0.41338100  1
  H  616  1  0.69708200  0.48698000  0.41841500  1
  C  1  1  0.95452100  0.08845800  0.26013400  1
  C  2  1  0.00456000  0.08218500  0.26656400  1
  C  3  1  0.01978500  0.05630100  0.29193300  1
  C  4  1  0.98595200  0.03597800  0.31263700  1
  C  5  1  0.93586200  0.04085100  0.30341100  1
  C  6  1  0.92035400  0.06672100  0.27837500  1
  C  7  1  0.00257700  0.00630000  0.33861300  1
  C  8  1  0.01880300  0.97678900  0.31230100  1
  C  9  1  0.98471000  0.95610400  0.29221300  1
  C  10  1  0.99962300  0.93047700  0.26647000  1
  C  11  1  0.04946900  0.92557500  0.25824500  1
  C  12  1  0.08385500  0.94693800  0.27673800  1
  C  13  1  0.06870300  0.97229100  0.30237600  1
  C  14  1  0.04399200  0.01489100  0.36508700  1
  C  15  1  0.96176000  0.99743900  0.36549000  1
  C  16  1  0.94425100  0.96226900  0.37287000  1
  C  17  1  0.90683400  0.95596500  0.39816400  1
  C  18  1  0.88661500  0.98444000  0.41824700  1
  C  19  1  0.90431400  0.01950400  0.41203900  1
  C  20  1  0.94124100  0.02564600  0.38654300  1
  C  21  1  0.06284400  0.04980500  0.37193200  1
  C  22  1  0.10206100  0.05549000  0.39590100  1
  C  23  1  0.12254000  0.02663300  0.41528800  1
  C  24  1  0.10335300  0.99191400  0.40982700  1
  C  25  1  0.06473400  0.98639100  0.38562700  1
  C  46  1  0.45448500  0.92620700  0.75452200  1
  C  47  1  0.50452400  0.93249500  0.74811500  1
  C  48  1  0.51976200  0.95837200  0.72273800  1
  C  49  1  0.48593500  0.97868700  0.70202300  1
  C  50  1  0.43584000  0.97381400  0.71123600  1
  C  51  1  0.42032600  0.94794800  0.73627400  1
  C  52  1  0.50256000  0.00836200  0.67604200  1
  C  53  1  0.51874600  0.03789100  0.70234300  1
  C  54  1  0.48459100  0.05855500  0.72239900  1
  C  55  1  0.49942200  0.08420900  0.74813700  1
  C  56  1  0.54924600  0.08913000  0.75642200  1
  C  57  1  0.58369400  0.06778300  0.73797800  1
  C  58  1  0.56861800  0.04241400  0.71233200  1
  C  59  1  0.54401600  0.99978000  0.64960000  1
  C  60  1  0.46176400  0.01718900  0.64913500  1
  C  61  1  0.44421900  0.05234400  0.64173400  1
  C  62  1  0.40681200  0.05861600  0.61641900  1
  C  63  1  0.38665600  0.03012300  0.59632500  1
  C  64  1  0.40436500  0.99506900  0.60258400  1
  C  65  1  0.44127500  0.98895800  0.62810100  1
  C  66  1  0.56286500  0.96486500  0.64274700  1
  C  67  1  0.60208700  0.95918400  0.61878400  1
  C  68  1  0.62258000  0.98804700  0.59941300  1
  C  69  1  0.60338700  0.02276500  0.60487100  1
  C  70  1  0.56475700  0.02828200  0.62906300  1
  C  91  1  0.20438000  0.75455900  0.08843800  1
  C  92  1  0.25442800  0.74811800  0.08222000  1
  C  93  1  0.26969500  0.72274900  0.05634800  1
  C  94  1  0.23590700  0.70202300  0.03600200  1
  C  95  1  0.18582000  0.71130300  0.04079100  1
  C  96  1  0.17025900  0.73632800  0.06665400  1
  C  97  1  0.25256000  0.67606800  0.00631600  1
  C  98  1  0.26876200  0.70237800  0.97680000  1
  C  99  1  0.23465800  0.72245300  0.95611000  1
  C  100  1  0.24954100  0.74821200  0.93049100  1
  C  101  1  0.29937700  0.75649200  0.92562100  1
  C  102  1  0.33377400  0.73804500  0.94701000  1
  C  103  1  0.31864000  0.71239100  0.97235500  1
  C  104  1  0.29400200  0.64961600  0.01489900  1
  C  105  1  0.21175900  0.64917800  0.99746100  1
  C  106  1  0.19428500  0.64176600  0.96228800  1
  C  107  1  0.15685500  0.61648300  0.95598900  1
  C  108  1  0.13665000  0.59639200  0.98446500  1
  C  109  1  0.15433000  0.60262200  0.01953000  1
  C  110  1  0.19124200  0.62812800  0.02567100  1
  C  111  1  0.31283000  0.64274700  0.04981500  1
  C  112  1  0.35204600  0.61877800  0.05549900  1
  C  113  1  0.37256200  0.59942600  0.02663300  1
  C  114  1  0.35339600  0.60490600  0.99191100  1
  C  115  1  0.31476900  0.62909800  0.98639100  1
  C  136  1  0.70453200  0.26014100  0.92623100  1
  C  137  1  0.75456800  0.26657700  0.93250600  1
  C  138  1  0.76978700  0.29194900  0.95838900  1
  C  139  1  0.73594500  0.31264800  0.97871100  1
  C  140  1  0.68586200  0.30341400  0.97384100  1
  C  141  1  0.67035800  0.27838600  0.94796100  1
  C  142  1  0.75256300  0.33862900  0.00838800  1
  C  143  1  0.76877500  0.31231700  0.03790400  1
  C  144  1  0.73466700  0.29224500  0.05859000  1
  C  145  1  0.74956400  0.26650100  0.08422300  1
  C  146  1  0.79940700  0.25826100  0.08912400  1
  C  147  1  0.83380300  0.27673300  0.06775400  1
  C  148  1  0.81866900  0.30238200  0.04240600  1
  C  149  1  0.79398300  0.36510000  0.99979900  1
  C  150  1  0.71174900  0.36551400  0.01723300  1
  C  151  1  0.69422600  0.37289900  0.05239700  1
  C  152  1  0.65679700  0.39818500  0.05868900  1
  C  153  1  0.63659300  0.41827100  0.03020800  1
  C  154  1  0.65429200  0.41204400  0.99514700  1
  C  155  1  0.69122700  0.38655100  0.98901700  1
  C  156  1  0.81283600  0.37194800  0.96488700  1
  C  157  1  0.85204300  0.39592200  0.95920300  1
  C  158  1  0.87252800  0.41530400  0.98806300  1
  C  159  1  0.85337600  0.40981100  0.02278600  1
  C  160  1  0.81472000  0.38564000  0.02830200  1
  C  181  1  0.86247700  0.19195800  0.14355100  1
  C  183  1  0.85766000  0.18276200  0.20724300  1
  C  184  1  0.88942000  0.15289200  0.20505800  1
  C  186  1  0.89359800  0.16156200  0.14117600  1
  C  189  1  0.88565800  0.12229700  0.09243000  1
  C  193  1  0.85088500  0.21312600  0.11403100  1
  C  195  1  0.90189200  0.13259000  0.23491400  1
  C  197  1  0.36242600  0.82280400  0.87118200  1
  C  199  1  0.35760800  0.83196500  0.80748800  1
  C  200  1  0.38937300  0.86183500  0.80965400  1
  C  202  1  0.39355800  0.85319300  0.87354200  1
  C  205  1  0.38564000  0.89249600  0.92226200  1
  C  209  1  0.35080800  0.80168900  0.90072500  1
  C  211  1  0.40183100  0.88215000  0.77979400  1
  C  213  1  0.11252700  0.87112600  0.19195700  1
  C  215  1  0.10769200  0.80743400  0.18277100  1
  C  216  1  0.13929100  0.80962700  0.15280800  1
  C  218  1  0.14348900  0.87351200  0.16147400  1
  C  221  1  0.13530400  0.92225900  0.12223300  1
  C  225  1  0.10101000  0.90063600  0.21315900  1
  C  227  1  0.15151800  0.77978900  0.13239700  1
  C  229  1  0.61230900  0.14356500  0.82280100  1
  C  231  1  0.60745900  0.20724700  0.83203700  1
  C  232  1  0.63940500  0.20507400  0.86180300  1
  C  234  1  0.64362400  0.14119700  0.85309100  1
  C  237  1  0.63590700  0.09244000  0.89236700  1
  C  241  1  0.60046900  0.11403100  0.80173400  1
  C  243  1  0.65192900  0.23493300  0.88208000  1
  C  245  1  0.71046000  0.98837200  0.52733900  1
  C  247  1  0.79767900  0.99310500  0.52929300  1
  C  248  1  0.80068500  0.98869700  0.49163400  1
  C  250  1  0.71326800  0.98342400  0.48965400  1
  C  253  1  0.65891600  0.94346800  0.46231500  1
  C  257  1  0.66657500  0.99238400  0.54531000  1
  C  259  1  0.84454100  0.99168600  0.47330900  1
  C  261  1  0.21045400  0.02631400  0.48734000  1
  C  263  1  0.29766800  0.02153400  0.48534600  1
  C  264  1  0.30070400  0.02582500  0.52301800  1
  C  266  1  0.21329300  0.03116000  0.52504100  1
  C  269  1  0.15895900  0.07106500  0.55246600  1
  C  273  1  0.16655300  0.02233400  0.46938000  1
  C  275  1  0.34454100  0.02258900  0.54133500  1
  C  277  1  0.96046300  0.48733700  0.98839600  1
  C  279  1  0.04767600  0.48536700  0.99316600  1
  C  280  1  0.05069900  0.52302100  0.98874000  1
  C  282  1  0.96329000  0.52502000  0.98342400  1
  C  285  1  0.90898500  0.55234800  0.94343000  1
  C  289  1  0.91656700  0.46938000  0.99240000  1
  C  291  1  0.09456300  0.54133800  0.99173700  1
  C  293  1  0.46042700  0.52734700  0.02629800  1
  C  295  1  0.54764700  0.52930400  0.02155600  1
  C  296  1  0.55065200  0.49164200  0.02592700  1
  C  298  1  0.46323600  0.48965400  0.03121500  1
  C  301  1  0.40889400  0.46228500  0.07115400  1
  C  305  1  0.41653800  0.54531500  0.02230700  1
  C  307  1  0.59450500  0.47330300  0.02289100  1
  C  309  1  0.02756600  0.08845800  0.66324500  1
  C  310  1  0.07760500  0.08218500  0.66967500  1
  C  311  1  0.09283000  0.05630100  0.69504400  1
  C  312  1  0.05899700  0.03597800  0.71574800  1
  C  313  1  0.00890695  0.04085100  0.70652200  1
  C  314  1  0.99339900  0.06672100  0.68148600  1
  C  315  1  0.07562200  0.00630000  0.74172400  1
  C  316  1  0.09184800  0.97678900  0.71541200  1
  C  317  1  0.05775500  0.95610400  0.69532400  1
  C  318  1  0.07266800  0.93047700  0.66958100  1
  C  319  1  0.12251400  0.92557500  0.66135600  1
  C  320  1  0.15690000  0.94693800  0.67984900  1
  C  321  1  0.14174800  0.97229100  0.70548700  1
  C  322  1  0.11703700  0.01489100  0.76819800  1
  C  323  1  0.03480500  0.99743900  0.76860100  1
  C  324  1  0.01729600  0.96226900  0.77598100  1
  C  325  1  0.97987900  0.95596500  0.80127500  1
  C  326  1  0.95966000  0.98444000  0.82135800  1
  C  327  1  0.97735900  0.01950400  0.81515000  1
  C  328  1  0.01428600  0.02564600  0.78965400  1
  C  329  1  0.13588900  0.04980500  0.77504300  1
  C  330  1  0.17510600  0.05549000  0.79901200  1
  C  331  1  0.19558500  0.02663300  0.81839900  1
  C  332  1  0.17639800  0.99191400  0.81293800  1
  C  333  1  0.13777900  0.98639100  0.78873800  1
  C  354  1  0.52753000  0.92620700  0.15763300  1
  C  355  1  0.57756900  0.93249500  0.15122600  1
  C  356  1  0.59280700  0.95837200  0.12584900  1
  C  357  1  0.55898000  0.97868700  0.10513400  1
  C  358  1  0.50888500  0.97381400  0.11434700  1
  C  359  1  0.49337100  0.94794800  0.13938500  1
  C  360  1  0.57560500  0.00836200  0.07915290  1
  C  361  1  0.59179100  0.03789100  0.10545400  1
  C  362  1  0.55763600  0.05855500  0.12551000  1
  C  363  1  0.57246700  0.08420900  0.15124800  1
  C  364  1  0.62229100  0.08913000  0.15953300  1
  C  365  1  0.65673900  0.06778300  0.14108900  1
  C  366  1  0.64166300  0.04241400  0.11544300  1
  C  367  1  0.61706100  0.99978000  0.05271090  1
  C  368  1  0.53480900  0.01718900  0.05224590  1
  C  369  1  0.51726400  0.05234400  0.04484490  1
  C  370  1  0.47985700  0.05861600  0.01952990  1
  C  371  1  0.45970100  0.03012300  0.99943600  1
  C  372  1  0.47741000  0.99506900  0.00569494  1
  C  373  1  0.51432000  0.98895800  0.03121190  1
  C  374  1  0.63591000  0.96486500  0.04585790  1
  C  375  1  0.67513200  0.95918400  0.02189490  1
  C  376  1  0.69562500  0.98804700  0.00252394  1
  C  377  1  0.67643200  0.02276500  0.00798194  1
  C  378  1  0.63780200  0.02828200  0.03217390  1
  C  399  1  0.27742500  0.75455900  0.49154900  1
  C  400  1  0.32747300  0.74811800  0.48533100  1
  C  401  1  0.34274000  0.72274900  0.45945900  1
  C  402  1  0.30895200  0.70202300  0.43911300  1
  C  403  1  0.25886500  0.71130300  0.44390200  1
  C  404  1  0.24330400  0.73632800  0.46976500  1
  C  405  1  0.32560500  0.67606800  0.40942700  1
  C  406  1  0.34180700  0.70237800  0.37991100  1
  C  407  1  0.30770300  0.72245300  0.35922100  1
  C  408  1  0.32258600  0.74821200  0.33360200  1
  C  409  1  0.37242200  0.75649200  0.32873200  1
  C  410  1  0.40681900  0.73804500  0.35012100  1
  C  411  1  0.39168500  0.71239100  0.37546600  1
  C  412  1  0.36704700  0.64961600  0.41801000  1
  C  413  1  0.28480400  0.64917800  0.40057200  1
  C  414  1  0.26733000  0.64176600  0.36539900  1
  C  415  1  0.22990000  0.61648300  0.35910000  1
  C  416  1  0.20969500  0.59639200  0.38757600  1
  C  417  1  0.22737500  0.60262200  0.42264100  1
  C  418  1  0.26428700  0.62812800  0.42878200  1
  C  419  1  0.38587500  0.64274700  0.45292600  1
  C  420  1  0.42509100  0.61877800  0.45861000  1
  C  421  1  0.44560700  0.59942600  0.42974400  1
  C  422  1  0.42644100  0.60490600  0.39502200  1
  C  423  1  0.38781400  0.62909800  0.38950200  1
  C  444  1  0.77757700  0.26014100  0.32934200  1
  C  445  1  0.82761300  0.26657700  0.33561700  1
  C  446  1  0.84283200  0.29194900  0.36150000  1
  C  447  1  0.80899000  0.31264800  0.38182200  1
  C  448  1  0.75890700  0.30341400  0.37695200  1
  C  449  1  0.74340300  0.27838600  0.35107200  1
  C  450  1  0.82560800  0.33862900  0.41149900  1
  C  451  1  0.84182000  0.31231700  0.44101500  1
  C  452  1  0.80771200  0.29224500  0.46170100  1
  C  453  1  0.82260900  0.26650100  0.48733400  1
  C  454  1  0.87245200  0.25826100  0.49223500  1
  C  455  1  0.90684800  0.27673300  0.47086500  1
  C  456  1  0.89171400  0.30238200  0.44551700  1
  C  457  1  0.86702800  0.36510000  0.40291000  1
  C  458  1  0.78479400  0.36551400  0.42034400  1
  C  459  1  0.76727100  0.37289900  0.45550800  1
  C  460  1  0.72984200  0.39818500  0.46180000  1
  C  461  1  0.70963800  0.41827100  0.43331900  1
  C  462  1  0.72733700  0.41204400  0.39825800  1
  C  463  1  0.76427200  0.38655100  0.39212800  1
  C  464  1  0.88588100  0.37194800  0.36799800  1
  C  465  1  0.92508800  0.39592200  0.36231400  1
  C  466  1  0.94557300  0.41530400  0.39117400  1
  C  467  1  0.92642100  0.40981100  0.42589700  1
  C  468  1  0.88776500  0.38564000  0.43141300  1
  C  489  1  0.93552200  0.19195800  0.54666200  1
  C  491  1  0.93070500  0.18276200  0.61035400  1
  C  492  1  0.96246500  0.15289200  0.60816900  1
  C  494  1  0.96664300  0.16156200  0.54428700  1
  C  497  1  0.95870300  0.12229700  0.49554100  1
  C  501  1  0.92393000  0.21312600  0.51714200  1
  C  503  1  0.97493700  0.13259000  0.63802500  1
  C  505  1  0.43547100  0.82280400  0.27429300  1
  C  507  1  0.43065300  0.83196500  0.21059900  1
  C  508  1  0.46241800  0.86183500  0.21276500  1
  C  510  1  0.46660300  0.85319300  0.27665300  1
  C  513  1  0.45868500  0.89249600  0.32537300  1
  C  517  1  0.42385300  0.80168900  0.30383600  1
  C  519  1  0.47487600  0.88215000  0.18290500  1
  C  521  1  0.18557200  0.87112600  0.59506800  1
  C  523  1  0.18073700  0.80743400  0.58588200  1
  C  524  1  0.21233600  0.80962700  0.55591900  1
  C  526  1  0.21653400  0.87351200  0.56458500  1
  C  529  1  0.20834900  0.92225900  0.52534400  1
  C  533  1  0.17405500  0.90063600  0.61627000  1
  C  535  1  0.22456300  0.77978900  0.53550800  1
  C  537  1  0.68535400  0.14356500  0.22591200  1
  C  539  1  0.68050400  0.20724700  0.23514800  1
  C  540  1  0.71245000  0.20507400  0.26491400  1
  C  542  1  0.71666900  0.14119700  0.25620200  1
  C  545  1  0.70895200  0.09244000  0.29547800  1
  C  549  1  0.67351400  0.11403100  0.20484500  1
  C  551  1  0.72497400  0.23493300  0.28519100  1
  C  553  1  0.78350500  0.98837200  0.93045000  1
  C  555  1  0.87072400  0.99310500  0.93240400  1
  C  556  1  0.87373000  0.98869700  0.89474500  1
  C  558  1  0.78631300  0.98342400  0.89276500  1
  C  561  1  0.73196100  0.94346800  0.86542600  1
  C  565  1  0.73962000  0.99238400  0.94842100  1
  C  567  1  0.91758600  0.99168600  0.87642000  1
  C  569  1  0.28349900  0.02631400  0.89045100  1
  C  571  1  0.37071300  0.02153400  0.88845700  1
  C  572  1  0.37374900  0.02582500  0.92612900  1
  C  574  1  0.28633800  0.03116000  0.92815200  1
  C  577  1  0.23200400  0.07106500  0.95557700  1
  C  581  1  0.23959800  0.02233400  0.87249100  1
  C  583  1  0.41758600  0.02258900  0.94444600  1
  C  585  1  0.03350800  0.48733700  0.39150700  1
  C  587  1  0.12072100  0.48536700  0.39627700  1
  C  588  1  0.12374400  0.52302100  0.39185100  1
  C  590  1  0.03633500  0.52502000  0.38653500  1
  C  593  1  0.98203000  0.55234800  0.34654100  1
  C  597  1  0.98961200  0.46938000  0.39551100  1
  C  599  1  0.16760800  0.54133800  0.39484800  1
  C  601  1  0.53347200  0.52734700  0.42940900  1
  C  603  1  0.62069200  0.52930400  0.42466700  1
  C  604  1  0.62369700  0.49164200  0.42903800  1
  C  606  1  0.53628100  0.48965400  0.43432600  1
  C  609  1  0.48193900  0.46228500  0.47426500  1
  C  613  1  0.48958300  0.54531500  0.42541800  1
  C  615  1  0.66755000  0.47330300  0.42600200  1
  N  41  1  0.85097600  0.97759500  0.44171300  1
  N  42  1  0.16133800  0.03168100  0.43628200  1
  N  43  1  0.94125200  0.11296800  0.23577100  1
  N  44  1  0.06228700  0.90127600  0.23347700  1
  N  86  1  0.35106500  0.03694600  0.57280700  1
  N  87  1  0.66135900  0.98300000  0.57839700  1
  N  88  1  0.44121300  0.90173500  0.77892100  1
  N  89  1  0.56198200  0.11345100  0.78118400  1
  N  131  1  0.10102200  0.57292000  0.97762000  1
  N  132  1  0.41133400  0.57840500  0.03168200  1
  N  133  1  0.19106000  0.77889900  0.11296100  1
  N  134  1  0.31217100  0.78126700  0.90132400  1
  N  176  1  0.60095800  0.44174000  0.03704300  1
  N  177  1  0.91133300  0.43629300  0.98302100  1
  N  178  1  0.69127100  0.23577500  0.90172500  1
  N  179  1  0.81221100  0.23349500  0.11342900  1
  N  182  1  0.84604600  0.20109200  0.17685500  1
  N  185  1  0.90577800  0.14369900  0.17179000  1
  N  198  1  0.34598400  0.81365600  0.83788500  1
  N  201  1  0.40573900  0.87104000  0.84291900  1
  N  214  1  0.09615600  0.83781800  0.20113500  1
  N  217  1  0.15556800  0.84290300  0.14356200  1
  N  230  1  0.59575400  0.17685600  0.81374400  1
  N  233  1  0.65586600  0.17181400  0.87092700  1
  N  246  1  0.75319500  0.99315800  0.54539600  1
  N  249  1  0.75787700  0.98433600  0.47354300  1
  N  262  1  0.25317000  0.02154800  0.46926200  1
  N  265  1  0.25790900  0.03014800  0.54113400  1
  N  278  1  0.00318300  0.46927500  0.99321200  1
  N  281  1  0.00790500  0.54112000  0.98434600  1
  N  294  1  0.50315900  0.54540400  0.02152200  1
  N  297  1  0.50784800  0.47354500  0.03027900  1
  N  349  1  0.92402100  0.97759500  0.84482400  1
  N  350  1  0.23438300  0.03168100  0.83939300  1
  N  351  1  0.01429700  0.11296800  0.63888200  1
  N  352  1  0.13533200  0.90127600  0.63658800  1
  N  394  1  0.42411000  0.03694600  0.97591800  1
  N  395  1  0.73440400  0.98300000  0.98150800  1
  N  396  1  0.51425800  0.90173500  0.18203200  1
  N  397  1  0.63502700  0.11345100  0.18429500  1
  N  439  1  0.17406700  0.57292000  0.38073100  1
  N  440  1  0.48437900  0.57840500  0.43479300  1
  N  441  1  0.26410500  0.77889900  0.51607200  1
  N  442  1  0.38521600  0.78126700  0.30443500  1
  N  484  1  0.67400300  0.44174000  0.44015400  1
  N  485  1  0.98437800  0.43629300  0.38613200  1
  N  486  1  0.76431600  0.23577500  0.30483600  1
  N  487  1  0.88525600  0.23349500  0.51654000  1
  N  490  1  0.91909100  0.20109200  0.57996600  1
  N  493  1  0.97882300  0.14369900  0.57490100  1
  N  506  1  0.41902900  0.81365600  0.24099600  1
  N  509  1  0.47878400  0.87104000  0.24603000  1
  N  522  1  0.16920100  0.83781800  0.60424600  1
  N  525  1  0.22861300  0.84290300  0.54667300  1
  N  538  1  0.66879900  0.17685600  0.21685500  1
  N  541  1  0.72891100  0.17181400  0.27403800  1
  N  554  1  0.82624000  0.99315800  0.94850700  1
  N  557  1  0.83092200  0.98433600  0.87665400  1
  N  570  1  0.32621500  0.02154800  0.87237300  1
  N  573  1  0.33095400  0.03014800  0.94424500  1
  N  586  1  0.07622800  0.46927500  0.39632300  1
  N  589  1  0.08095000  0.54112000  0.38745700  1
  N  602  1  0.57620400  0.54540400  0.42463300  1
  N  605  1  0.58089300  0.47354500  0.43339000  1
  O  188  1  0.91366000  0.15019100  0.10947900  1
  O  204  1  0.41362000  0.86457700  0.90523700  1
  O  220  1  0.16346400  0.90521800  0.15004600  1
  O  236  1  0.66375500  0.10950200  0.86439900  1
  O  252  1  0.67262600  0.98024000  0.46852500  1
  O  268  1  0.17267000  0.03430500  0.54619400  1
  O  284  1  0.92265900  0.54615600  0.98021000  1
  O  300  1  0.42259700  0.46852300  0.03438600  1
  O  496  1  0.98670500  0.15019100  0.51259000  1
  O  512  1  0.48666500  0.86457700  0.30834800  1
  O  528  1  0.23650900  0.90521800  0.55315700  1
  O  544  1  0.73680000  0.10950200  0.26751000  1
  O  560  1  0.74567100  0.98024000  0.87163600  1
  O  576  1  0.24571500  0.03430500  0.94930500  1
  O  592  1  0.99570400  0.54615600  0.38332100  1
  O  608  1  0.49564200  0.46852300  0.43749700  1
