# generated using pymatgen
data_V4H28C52SO23
_symmetry_space_group_name_H-M   'P 1'
_cell_length_a   6.95826000
_cell_length_b   13.53773000
_cell_length_c   20.25677000
_cell_angle_alpha   76.96975000
_cell_angle_beta   89.70915000
_cell_angle_gamma   89.18403000
_symmetry_Int_Tables_number   1
_chemical_formula_structural   V4H28C52SO23
_chemical_formula_sum   'V4 H28 C52 S1 O23'
_cell_volume   1858.84334917
_cell_formula_units_Z   1
loop_
 _symmetry_equiv_pos_site_id
 _symmetry_equiv_pos_as_xyz
  1  'x, y, z'
loop_
 _atom_site_type_symbol
 _atom_site_label
 _atom_site_symmetry_multiplicity
 _atom_site_fract_x
 _atom_site_fract_y
 _atom_site_fract_z
 _atom_site_occupancy
  V  V0  1  0.93534000  0.51189000  0.49769000  1
  V  V1  1  0.43597000  0.48811000  0.50231000  1
  V  V2  1  0.35182000  0.98811000  0.00231000  1
  V  V3  1  0.85120000  0.01195000  0.99770000  1
  H  H4  1  0.17297000  0.15826000  0.48270000  1
  H  H5  1  0.16526000  0.98262000  0.30636000  1
  H  H6  1  0.17341000  0.02905000  0.41522000  1
  H  H7  1  0.13574000  0.39439000  0.30393000  1
  H  H8  1  0.11781000  0.33798000  0.01442000  1
  H  H9  1  0.13119000  0.43452000  0.19903000  1
  H  H10  1  0.11778000  0.47302000  0.07744000  1
  H  H11  1  0.15233000  0.02724000  0.18440000  1
  H  H12  1  0.85893000  0.14269000  0.78429000  1
  H  H13  1  0.87166000  0.25492000  0.67071000  1
  H  H14  1  0.58466000  0.37201000  0.72432000  1
  H  H15  1  0.53928000  0.25899000  0.68758000  1
  H  H16  1  0.57104000  0.26575000  0.83649000  1
  H  H17  1  0.52736000  0.15275000  0.79961000  1
  H  H18  1  0.92110000  0.75450000  0.32521000  1
  H  H19  1  0.91713000  0.86433000  0.21106000  1
  H  H20  1  0.20921000  0.72523000  0.17010000  1
  H  H21  1  0.24963000  0.83819000  0.20745000  1
  H  H22  1  0.21400000  0.61683000  0.28143000  1
  H  H23  1  0.25371000  0.72970000  0.31894000  1
  H  H24  1  0.59336000  0.83896000  0.51751000  1
  H  H25  1  0.55149000  0.01430000  0.69401000  1
  H  H26  1  0.56485000  0.96848000  0.58454000  1
  H  H27  1  0.67049000  0.60869000  0.69843000  1
  H  H28  1  0.71366000  0.66627000  0.98330000  1
  H  H29  1  0.83923000  0.54720000  0.91987000  1
  H  H30  1  0.56000000  0.96793000  0.81613000  1
  H  H31  1  0.83418000  0.42795000  0.81371000  1
  C  C32  1  0.65175000  0.61772000  0.38493000  1
  C  C33  1  0.65296000  0.63780000  0.56488000  1
  C  C34  1  0.15943000  0.38276000  0.61522000  1
  C  C35  1  0.15776000  0.36145000  0.43583000  1
  C  C36  1  0.16505000  0.10838000  0.38947000  1
  C  C37  1  0.15288000  0.28412000  0.39602000  1
  C  C38  1  0.12504000  0.31797000  0.06927000  1
  C  C39  1  0.12462000  0.39450000  0.10480000  1
  C  C40  1  0.13211000  0.37086000  0.17536000  1
  C  C41  1  0.14032000  0.26871000  0.21252000  1
  C  C42  1  0.14238000  0.19058000  0.17562000  1
  C  C43  1  0.14643000  0.24147000  0.28489000  1
  C  C44  1  0.15638000  0.13717000  0.31846000  1
  C  C45  1  0.15818000  0.06223000  0.28110000  1
  C  C46  1  0.15091000  0.08832000  0.21089000  1
  C  C47  1  0.14346000  0.31402000  0.32539000  1
  C  C48  1  0.16440000  0.18155000  0.42798000  1
  C  C49  1  0.13445000  0.21639000  0.10391000  1
  C  C50  1  0.28431000  0.25513000  0.79735000  1
  C  C51  1  0.13237000  0.18810000  0.81724000  1
  C  C52  1  0.97941000  0.19285000  0.77119000  1
  C  C53  1  0.98712000  0.25689000  0.70587000  1
  C  C54  1  0.14868000  0.31743000  0.68450000  1
  C  C55  1  0.29249000  0.31777000  0.73253000  1
  C  C56  1  0.50333000  0.30121000  0.72723000  1
  C  C57  1  0.49489000  0.23377000  0.79810000  1
  C  C58  1  0.50130000  0.67860000  0.26995000  1
  C  C59  1  0.64846000  0.68374000  0.31578000  1
  C  C60  1  0.80310000  0.74862000  0.29188000  1
  C  C61  1  0.80139000  0.81153000  0.22620000  1
  C  C62  1  0.64480000  0.81159000  0.18251000  1
  C  C63  1  0.49901000  0.74136000  0.20512000  1
  C  C64  1  0.28716000  0.75807000  0.20770000  1
  C  C65  1  0.28985000  0.68948000  0.27826000  1
  C  C66  1  0.59681000  0.89072000  0.61015000  1
  C  C67  1  0.64177000  0.71578000  0.60433000  1
  C  C68  1  0.70828000  0.68681000  0.92843000  1
  C  C69  1  0.77838000  0.61847000  0.89203000  1
  C  C70  1  0.79101000  0.64518000  0.82123000  1
  C  C71  1  0.70121000  0.73753000  0.78535000  1
  C  C72  1  0.64724000  0.81078000  0.82327000  1
  C  C73  1  0.66741000  0.76225000  0.71385000  1
  C  C74  1  0.62018000  0.86384000  0.68080000  1
  C  C75  1  0.58944000  0.93685000  0.71867000  1
  C  C76  1  0.59543000  0.90992000  0.78889000  1
  C  C77  1  0.66342000  0.68830000  0.67475000  1
  C  C78  1  0.61092000  0.81720000  0.57200000  1
  C  C79  1  0.65285000  0.78460000  0.89497000  1
  C  C80  1  0.63468000  0.86183000  0.93536000  1
  C  C81  1  0.63560000  0.88270000  0.11522000  1
  C  C82  1  0.12948000  0.13853000  0.06418000  1
  C  C83  1  0.12733000  0.11726000  0.88475000  1
  S  S84  1  0.96552000  0.57526000  0.78504000  1
  O  O85  1  0.49323000  0.59970000  0.55045000  1
  O  O86  1  0.82002000  0.59574000  0.41204000  1
  O  O87  1  0.99542000  0.40030000  0.44955000  1
  O  O88  1  0.82262000  0.61170000  0.54762000  1
  O  O89  1  0.99803000  0.41637000  0.58610000  1
  O  O90  1  0.49061000  0.58363000  0.41390000  1
  O  O91  1  0.66247000  0.43589000  0.51247000  1
  O  O92  1  0.32805000  0.40426000  0.58796000  1
  O  O93  1  0.32546000  0.38830000  0.45238000  1
  O  O94  1  0.15897000  0.56411000  0.48753000  1
  O  O95  1  0.79655000  0.91632000  0.08609000  1
  O  O96  1  0.46448000  0.88830000  0.95238000  1
  O  O97  1  0.28914000  0.08365000  0.91390000  1
  O  O98  1  0.46714000  0.90425000  0.08796000  1
  O  O99  1  0.29181000  0.09971000  0.05045000  1
  O  O100  1  0.79388000  0.90026000  0.94954000  1
  O  O101  1  0.62472000  0.06408000  0.98753000  1
  O  O102  1  0.96178000  0.11174000  0.04763000  1
  O  O103  1  0.95912000  0.09579000  0.91206000  1
  O  O104  1  0.12818000  0.93592000  0.01247000  1
  O  O105  1  0.04760000  0.63872000  0.72082000  1
  O  O106  1  0.12769000  0.54266000  0.83429000  1
  O  O107  1  0.86650000  0.47077000  0.76870000  1
