# generated using pymatgen
data_Cr3H48C66O13
_symmetry_space_group_name_H-M   'P 1'
_cell_length_a   12.77877330
_cell_length_b   12.77881000
_cell_length_c   26.98062000
_cell_angle_alpha   90.00000000
_cell_angle_beta   90.00000000
_cell_angle_gamma   119.99990500
_symmetry_Int_Tables_number   1
_chemical_formula_structural   Cr3H48C66O13
_chemical_formula_sum   'Cr6 H96 C132 O26'
_cell_volume   3815.59746330
_cell_formula_units_Z   2
loop_
 _symmetry_equiv_pos_site_id
 _symmetry_equiv_pos_as_xyz
  1  'x, y, z'
loop_
 _atom_site_type_symbol
 _atom_site_label
 _atom_site_symmetry_multiplicity
 _atom_site_fract_x
 _atom_site_fract_y
 _atom_site_fract_z
 _atom_site_occupancy
  Cr  Cr0  1  0.51237000  0.75355000  0.25000000  1
  Cr  Cr1  1  0.24645000  0.75882000  0.25000000  1
  Cr  Cr2  1  0.24118000  0.48763000  0.25000000  1
  Cr  Cr3  1  0.75882000  0.24645000  0.75000000  1
  Cr  Cr4  1  0.48763000  0.24118000  0.75000000  1
  Cr  Cr5  1  0.75355000  0.51237000  0.75000000  1
  H  H6  1  0.01154000  0.64892000  0.86937000  1
  H  H7  1  0.41119000  0.28121000  0.61801000  1
  H  H8  1  0.63739000  0.98846000  0.86937000  1
  H  H9  1  0.87003000  0.58882000  0.61801000  1
  H  H10  1  0.35107000  0.36261000  0.86937000  1
  H  H11  1  0.71879000  0.12997000  0.61801000  1
  H  H12  1  0.36262000  0.35108000  0.36937000  1
  H  H13  1  0.12997000  0.71879000  0.11801000  1
  H  H14  1  0.64893000  0.01154000  0.36937000  1
  H  H15  1  0.28121000  0.41118000  0.11801000  1
  H  H16  1  0.98846000  0.63739000  0.36937000  1
  H  H17  1  0.58882000  0.87003000  0.11801000  1
  H  H18  1  0.80185000  0.18371000  0.97387000  1
  H  H19  1  0.62483000  0.79307000  0.56308000  1
  H  H20  1  0.38186000  0.19815000  0.97387000  1
  H  H21  1  0.16824000  0.37517000  0.56308000  1
  H  H22  1  0.81629000  0.61814000  0.97387000  1
  H  H23  1  0.20693000  0.83176000  0.56308000  1
  H  H24  1  0.61814000  0.81629000  0.47387000  1
  H  H25  1  0.83176000  0.20693000  0.06308000  1
  H  H26  1  0.18371000  0.80185000  0.47387000  1
  H  H27  1  0.79307000  0.62483000  0.06308000  1
  H  H28  1  0.19815000  0.38186000  0.47386000  1
  H  H29  1  0.37517000  0.16824000  0.06308000  1
  H  H30  1  0.23154000  0.95297000  0.88803000  1
  H  H31  1  0.28235000  0.88536000  0.93406000  1
  H  H32  1  0.20377000  0.80144000  0.88000000  1
  H  H33  1  0.01494000  0.79942000  0.90853000  1
  H  H34  1  0.09146000  0.89606000  0.95701000  1
  H  H35  1  0.12613000  0.09238000  0.54133000  1
  H  H36  1  0.16867000  0.01255000  0.58468000  1
  H  H37  1  0.20442000  0.16515000  0.59769000  1
  H  H38  1  0.30505000  0.08087000  0.51208000  1
  H  H39  1  0.38519000  0.14667000  0.56546000  1
  H  H40  1  0.72143000  0.76845000  0.88803000  1
  H  H41  1  0.60301000  0.71765000  0.93406000  1
  H  H42  1  0.59768000  0.79624000  0.88000000  1
  H  H43  1  0.78448000  0.98505000  0.90853000  1
  H  H44  1  0.80460000  0.90854000  0.95701000  1
  H  H45  1  0.96622000  0.87388000  0.54132000  1
  H  H46  1  0.84388000  0.83131000  0.58470000  1
  H  H47  1  0.96076000  0.79559000  0.59768000  1
  H  H48  1  0.77582000  0.69496000  0.51209000  1
  H  H49  1  0.76148000  0.61481000  0.56546000  1
  H  H50  1  0.11464000  0.39699000  0.93406000  1
  H  H51  1  0.19856000  0.40233000  0.88000000  1
  H  H52  1  0.04703000  0.27857000  0.88803000  1
  H  H53  1  0.20057000  0.21551000  0.90853000  1
  H  H54  1  0.10394000  0.19540000  0.95701000  1
  H  H55  1  0.90766000  0.03378000  0.54133000  1
  H  H56  1  0.98743000  0.15612000  0.58470000  1
  H  H57  1  0.83483000  0.03924000  0.59768000  1
  H  H58  1  0.91914000  0.22418000  0.51209000  1
  H  H59  1  0.85334000  0.23852000  0.56546000  1
  H  H60  1  0.40232000  0.19855000  0.38000000  1
  H  H61  1  0.39699000  0.11464000  0.43406000  1
  H  H62  1  0.27856000  0.04702000  0.38803000  1
  H  H63  1  0.19539000  0.10393000  0.45701000  1
  H  H64  1  0.21552000  0.20058000  0.40853000  1
  H  H65  1  0.03924000  0.83483000  0.09768000  1
  H  H66  1  0.15612000  0.98743000  0.08469000  1
  H  H67  1  0.03378000  0.90766000  0.04132000  1
  H  H68  1  0.23852000  0.85333000  0.06546000  1
  H  H69  1  0.22418000  0.91913000  0.01209000  1
  H  H70  1  0.80145000  0.20377000  0.38000000  1
  H  H71  1  0.88536000  0.28235000  0.43406000  1
  H  H72  1  0.95298000  0.23154000  0.38803000  1
  H  H73  1  0.89606000  0.09145000  0.45701000  1
  H  H74  1  0.79942000  0.01494000  0.40853000  1
  H  H75  1  0.16517000  0.20441000  0.09768000  1
  H  H76  1  0.01257000  0.16869000  0.08469000  1
  H  H77  1  0.09234000  0.12612000  0.04132000  1
  H  H78  1  0.14667000  0.38519000  0.06546000  1
  H  H79  1  0.08086000  0.30504000  0.01209000  1
  H  H80  1  0.79623000  0.59768000  0.38000000  1
  H  H81  1  0.71765000  0.60301000  0.43406000  1
  H  H82  1  0.76846000  0.72144000  0.38803000  1
  H  H83  1  0.90854000  0.80460000  0.45701000  1
  H  H84  1  0.98506000  0.78449000  0.40853000  1
  H  H85  1  0.79559000  0.96076000  0.09768000  1
  H  H86  1  0.83131000  0.84388000  0.08469000  1
  H  H87  1  0.87388000  0.96622000  0.04132000  1
  H  H88  1  0.61482000  0.76148000  0.06546000  1
  H  H89  1  0.69496000  0.77582000  0.01209000  1
  H  H90  1  0.82616000  0.26816000  0.89247000  1
  H  H91  1  0.60514000  0.66493000  0.63299000  1
  H  H92  1  0.44200000  0.17384000  0.89247000  1
  H  H93  1  0.05978000  0.39485000  0.63299000  1
  H  H94  1  0.73184000  0.55800000  0.89247000  1
  H  H95  1  0.33507000  0.94021000  0.63299000  1
  H  H96  1  0.55800000  0.73184000  0.39247000  1
  H  H97  1  0.94022000  0.33508000  0.13299000  1
  H  H98  1  0.26816000  0.82616000  0.39247000  1
  H  H99  1  0.66493000  0.60515000  0.13299000  1
  H  H100  1  0.17384000  0.44200000  0.39247000  1
  H  H101  1  0.39486000  0.05979000  0.13299000  1
  C  C102  1  0.44262000  0.89824000  0.17819000  1
  C  C103  1  0.10873000  0.54627000  0.32336000  1
  C  C104  1  0.45562000  0.55738000  0.17819000  1
  C  C105  1  0.43754000  0.89127000  0.32336000  1
  C  C106  1  0.10176000  0.54438000  0.17819000  1
  C  C107  1  0.45373000  0.56246000  0.32336000  1
  C  C108  1  0.54438000  0.10176000  0.67819000  1
  C  C109  1  0.56246000  0.45373000  0.82336000  1
  C  C110  1  0.89824000  0.44262000  0.67819000  1
  C  C111  1  0.54627000  0.10873000  0.82336000  1
  C  C112  1  0.55738000  0.45562000  0.67819000  1
  C  C113  1  0.89127000  0.43754000  0.82336000  1
  C  C114  1  0.97789000  0.50633000  0.02968000  1
  C  C115  1  0.46505000  0.50774000  0.47835000  1
  C  C116  1  0.52844000  0.02211000  0.02968000  1
  C  C117  1  0.04269000  0.53495000  0.47835000  1
  C  C118  1  0.49367000  0.47156000  0.02968000  1
  C  C119  1  0.49226000  0.95731000  0.47835000  1
  C  C120  1  0.47156000  0.49367000  0.52969000  1
  C  C121  1  0.95731000  0.49226000  0.97835000  1
  C  C122  1  0.50633000  0.97789000  0.52969000  1
  C  C123  1  0.50774000  0.46505000  0.97835000  1
  C  C124  1  0.02211000  0.52844000  0.52969000  1
  C  C125  1  0.53495000  0.04269000  0.97835000  1
  C  C126  1  0.08928000  0.72701000  0.01917000  1
  C  C127  1  0.34868000  0.28750000  0.46759000  1
  C  C128  1  0.63773000  0.91073000  0.01917000  1
  C  C129  1  0.93882000  0.65133000  0.46759000  1
  C  C130  1  0.27300000  0.36228000  0.01917000  1
  C  C131  1  0.71251000  0.06119000  0.46759000  1
  C  C132  1  0.36227000  0.27299000  0.51917000  1
  C  C133  1  0.06118000  0.71250000  0.96759000  1
  C  C134  1  0.72700000  0.08927000  0.51917000  1
  C  C135  1  0.28749000  0.34867000  0.96759000  1
  C  C136  1  0.91072000  0.63772000  0.51917000  1
  C  C137  1  0.65132000  0.93881000  0.96759000  1
  C  C138  1  0.07545000  0.63189000  0.10083000  1
  C  C139  1  0.40629000  0.42470000  0.39535000  1
  C  C140  1  0.55644000  0.92455000  0.10083000  1
  C  C141  1  0.01841000  0.59371000  0.39535000  1
  C  C142  1  0.36811000  0.44356000  0.10083000  1
  C  C143  1  0.57530000  0.98159000  0.39535000  1
  C  C144  1  0.44356000  0.36811000  0.60083000  1
  C  C145  1  0.98158000  0.57529000  0.89535000  1
  C  C146  1  0.63189000  0.07545000  0.60083000  1
  C  C147  1  0.42470000  0.40629000  0.89535000  1
  C  C148  1  0.92455000  0.55644000  0.60083000  1
  C  C149  1  0.59371000  0.01841000  0.89535000  1
  C  C150  1  0.92253000  0.45887000  0.87584000  1
  C  C151  1  0.51345000  0.47097000  0.62995000  1
  C  C152  1  0.53635000  0.07747000  0.87584000  1
  C  C153  1  0.95752000  0.48655000  0.62995000  1
  C  C154  1  0.54113000  0.46366000  0.87584000  1
  C  C155  1  0.52903000  0.04248000  0.62995000  1
  C  C156  1  0.46366000  0.54113000  0.37584000  1
  C  C157  1  0.04248000  0.52903000  0.12995000  1
  C  C158  1  0.45888000  0.92253000  0.37584000  1
  C  C159  1  0.47097000  0.51345000  0.12995000  1
  C  C160  1  0.07747000  0.53634000  0.37584000  1
  C  C161  1  0.48655000  0.95752000  0.12995000  1
  C  C162  1  0.04681000  0.62297000  0.05007000  1
  C  C163  1  0.40684000  0.40547000  0.44687000  1
  C  C164  1  0.57616000  0.95319000  0.05007000  1
  C  C165  1  0.99863000  0.59316000  0.44687000  1
  C  C166  1  0.37703000  0.42384000  0.05007000  1
  C  C167  1  0.59453000  0.00137000  0.44687000  1
  C  C168  1  0.42384000  0.37703000  0.55007000  1
  C  C169  1  0.00137000  0.59453000  0.94687000  1
  C  C170  1  0.62297000  0.04681000  0.55007000  1
  C  C171  1  0.40547000  0.40684000  0.94687000  1
  C  C172  1  0.95319000  0.57616000  0.55007000  1
  C  C173  1  0.59316000  0.99863000  0.94687000  1
  C  C174  1  0.96703000  0.41461000  0.11032000  1
  C  C175  1  0.51789000  0.64107000  0.40747000  1
  C  C176  1  0.44758000  0.03297000  0.11032000  1
  C  C177  1  0.12318000  0.48210000  0.40747000  1
  C  C178  1  0.58539000  0.55242000  0.11032000  1
  C  C179  1  0.35893000  0.87682000  0.40747000  1
  C  C180  1  0.55242000  0.58539000  0.61032000  1
  C  C181  1  0.87682000  0.35893000  0.90747000  1
  C  C182  1  0.41461000  0.96703000  0.61032000  1
  C  C183  1  0.64108000  0.51790000  0.90747000  1
  C  C184  1  0.03297000  0.44758000  0.61031000  1
  C  C185  1  0.48211000  0.12319000  0.90747000  1
  C  C186  1  0.93387000  0.40240000  0.06045000  1
  C  C187  1  0.51855000  0.62545000  0.45835000  1
  C  C188  1  0.46853000  0.06613000  0.06045000  1
  C  C189  1  0.10690000  0.48145000  0.45835000  1
  C  C190  1  0.59760000  0.53147000  0.06045000  1
  C  C191  1  0.37455000  0.89310000  0.45835000  1
  C  C192  1  0.53147000  0.59760000  0.56045000  1
  C  C193  1  0.89310000  0.37455000  0.95835000  1
  C  C194  1  0.40240000  0.93387000  0.56045000  1
  C  C195  1  0.62545000  0.51855000  0.95835000  1
  C  C196  1  0.06613000  0.46853000  0.56045000  1
  C  C197  1  0.48145000  0.10690000  0.95835000  1
  C  C198  1  0.84745000  0.27340000  0.98928000  1
  C  C199  1  0.57855000  0.71305000  0.54009000  1
  C  C200  1  0.42595000  0.15254000  0.98928000  1
  C  C201  1  0.13450000  0.42145000  0.54009000  1
  C  C202  1  0.72660000  0.57405000  0.98928000  1
  C  C203  1  0.28695000  0.86550000  0.54009000  1
  C  C204  1  0.57404000  0.72659000  0.48928000  1
  C  C205  1  0.86550000  0.28695000  0.04009000  1
  C  C206  1  0.27341000  0.84746000  0.48928000  1
  C  C207  1  0.71305000  0.57855000  0.04009000  1
  C  C208  1  0.15255000  0.42596000  0.48928000  1
  C  C209  1  0.42145000  0.13450000  0.04009000  1
  C  C210  1  0.08925000  0.82151000  0.93521000  1
  C  C211  1  0.20890000  0.86791000  0.90768000  1
  C  C212  1  0.31652000  0.14738000  0.54071000  1
  C  C213  1  0.19671000  0.10198000  0.56784000  1
  C  C214  1  0.73226000  0.91075000  0.93521000  1
  C  C215  1  0.65901000  0.79110000  0.90768000  1
  C  C216  1  0.83086000  0.68348000  0.54071000  1
  C  C217  1  0.90527000  0.80329000  0.56784000  1
  C  C218  1  0.17849000  0.26774000  0.93521000  1
  C  C219  1  0.13209000  0.34099000  0.90768000  1
  C  C220  1  0.85262000  0.16914000  0.54071000  1
  C  C221  1  0.89802000  0.09473000  0.56784000  1
  C  C222  1  0.26774000  0.17849000  0.43521000  1
  C  C223  1  0.34098000  0.13208000  0.40768000  1
  C  C224  1  0.16914000  0.85262000  0.04071000  1
  C  C225  1  0.09473000  0.89802000  0.06784000  1
  C  C226  1  0.82151000  0.08925000  0.43521000  1
  C  C227  1  0.86791000  0.20889000  0.40768000  1
  C  C228  1  0.14738000  0.31652000  0.04071000  1
  C  C229  1  0.10198000  0.19670000  0.06784000  1
  C  C230  1  0.91075000  0.73226000  0.43521000  1
  C  C231  1  0.79110000  0.65901000  0.40768000  1
  C  C232  1  0.68348000  0.83086000  0.04071000  1
  C  C233  1  0.80329000  0.90527000  0.06784000  1
  O  O234  1  0.53913000  0.66006000  0.19476000  1
  O  O235  1  0.33994000  0.87907000  0.30524000  1
  O  O236  1  0.12093000  0.46087000  0.19476000  1
  O  O237  1  0.53913000  0.66006000  0.30524000  1
  O  O238  1  0.33994000  0.87907000  0.19476000  1
  O  O239  1  0.12093000  0.46087000  0.30524000  1
  O  O240  1  0.87907000  0.33994000  0.69476000  1
  O  O241  1  0.46087000  0.12093000  0.80524000  1
  O  O242  1  0.66006000  0.53913000  0.69476000  1
  O  O243  1  0.87907000  0.33994000  0.80524000  1
  O  O244  1  0.46087000  0.12093000  0.69476000  1
  O  O245  1  0.66006000  0.53913000  0.80524000  1
  O  O246  1  0.50109000  0.85156000  0.19813000  1
  O  O247  1  0.14844000  0.64953000  0.30187000  1
  O  O248  1  0.35047000  0.49891000  0.19813000  1
  O  O249  1  0.50109000  0.85156000  0.30187000  1
  O  O250  1  0.14844000  0.64953000  0.19813000  1
  O  O251  1  0.35047000  0.49891000  0.30187000  1
  O  O252  1  0.64953000  0.14844000  0.69813000  1
  O  O253  1  0.49891000  0.35047000  0.80187000  1
  O  O254  1  0.85156000  0.50109000  0.69813000  1
  O  O255  1  0.64953000  0.14844000  0.80187000  1
  O  O256  1  0.49891000  0.35047000  0.69813000  1
  O  O257  1  0.85156000  0.50109000  0.80187000  1
  O  O258  1  0.33333333  0.66666667  0.25000000  1
  O  O259  1  0.66666667  0.33333333  0.75000000  1
