# generated using pymatgen
data_Cr6H46C59(O13F2)2
_symmetry_space_group_name_H-M   'P 1'
_cell_length_a   10.98030000
_cell_length_b   11.00595373
_cell_length_c   18.79355000
_cell_angle_alpha   88.64847839
_cell_angle_beta   89.65938000
_cell_angle_gamma   60.39881560
_symmetry_Int_Tables_number   1
_chemical_formula_structural   Cr6H46C59(O13F2)2
_chemical_formula_sum   'Cr6 H46 C59 O26 F4'
_cell_volume   1974.16057138
_cell_formula_units_Z   1
loop_
 _symmetry_equiv_pos_site_id
 _symmetry_equiv_pos_as_xyz
  1  'x, y, z'
loop_
 _atom_site_type_symbol
 _atom_site_label
 _atom_site_symmetry_multiplicity
 _atom_site_fract_x
 _atom_site_fract_y
 _atom_site_fract_z
 _atom_site_occupancy
  Cr  Cr0  1  0.20917000  0.39790000  0.49777000  1
  Cr  Cr1  1  0.89316000  0.70860000  0.49874000  1
  Cr  Cr2  1  0.89773000  0.39347000  0.50354000  1
  Cr  Cr3  1  0.12384000  0.93854000  0.99236000  1
  Cr  Cr4  1  0.43740000  0.93745000  0.00548000  1
  Cr  Cr5  1  0.43693000  0.62508000  0.99881000  1
  H  H6  1  0.45564000  0.90043000  0.22515000  1
  H  H7  1  0.61216000  0.88058000  0.18714000  1
  H  H8  1  0.55783000  0.89219000  0.33294000  1
  H  H9  1  0.39494000  0.69746000  0.22995000  1
  H  H10  1  0.43961000  0.76487000  0.33632000  1
  H  H11  1  0.81508000  0.44600000  0.29579000  1
  H  H12  1  0.52304000  0.58907000  0.36137000  1
  H  H13  1  0.95965000  0.17516000  0.32598000  1
  H  H14  1  0.32574000  0.19182000  0.18142000  1
  H  H15  1  0.34245000  0.18776000  0.30530000  1
  H  H16  1  0.25257000  0.43146000  0.29880000  1
  H  H17  1  0.26065000  0.44908000  0.16683000  1
  H  H18  1  0.96280000  0.87811000  0.17721000  1
  H  H19  1  0.97144000  0.87266000  0.30541000  1
  H  H20  1  0.78215000  0.42402000  0.70845000  1
  H  H21  1  0.75783000  0.44889000  0.83505000  1
  H  H22  1  0.60350000  0.89269000  0.81008000  1
  H  H23  1  0.63965000  0.86512000  0.68097000  1
  H  H24  1  0.38841000  0.14331000  0.68247000  1
  H  H25  1  0.39976000  0.13184000  0.80943000  1
  H  H26  1  0.97000000  0.19747000  0.68898000  1
  H  H27  1  0.04517000  0.89294000  0.66165000  1
  H  H28  1  0.06124000  0.91784000  0.78749000  1
  H  H29  1  0.34005000  0.47225000  0.81368000  1
  H  H30  1  0.32133000  0.44606000  0.68633000  1
  H  H31  1  0.63015000  0.19297000  0.23014000  1
  H  H32  1  0.44953000  0.29320000  0.24615000  1
  H  H33  1  0.50352000  0.22956000  0.15917000  1
  H  H34  1  0.44385000  0.47455000  0.15159000  1
  H  H35  1  0.62438000  0.37766000  0.14923000  1
  H  H36  1  0.64350000  0.40967000  0.27599000  1
  H  H37  1  0.46435000  0.47664000  0.28664000  1
  H  H38  1  0.73145000  0.05684000  0.13490000  1
  H  H39  1  0.65930000  0.21657000  0.07720000  1
  H  H40  1  0.78215000  0.05480000  0.04497000  1
  H  H41  1  0.87584000  0.22414000  0.08278000  1
  H  H42  1  0.95479000  0.03908000  0.10545000  1
  H  H43  1  0.89982000  0.06771000  0.22675000  1
  H  H44  1  0.81241000  0.24342000  0.21682000  1
  H  H45  1  0.94318000  0.69984000  0.03235000  1
  H  H46  1  0.08241000  0.52376000  0.05649000  1
  H  H47  1  0.98066000  0.55459000  0.97679000  1
  H  H48  1  0.90913000  0.44682000  0.07284000  1
  H  H49  1  0.77210000  0.61560000  0.04412000  1
  H  H50  1  0.82205000  0.72248000  0.15290000  1
  H  H51  1  0.96110000  0.55200000  0.17490000  1
  C  C52  1  0.11093000  0.64286000  0.38839000  1
  C  C53  1  0.72156000  0.62550000  0.40019000  1
  C  C54  1  0.14215000  0.22956000  0.39708000  1
  C  C55  1  0.13043000  0.64861000  0.59781000  1
  C  C56  1  0.74034000  0.61906000  0.60927000  1
  C  C57  1  0.15422000  0.22703000  0.60449000  1
  C  C58  1  0.57034000  0.82760000  0.22237000  1
  C  C59  1  0.63456000  0.80938000  0.29781000  1
  C  C60  1  0.50830000  0.63279000  0.24364000  1
  C  C61  1  0.75547000  0.57463000  0.19826000  1
  C  C62  1  0.59489000  0.68285000  0.19286000  1
  C  C63  1  0.66957000  0.66256000  0.32649000  1
  C  C64  1  0.52923000  0.66197000  0.32115000  1
  C  C65  1  0.79211000  0.55255000  0.27921000  1
  C  C66  1  0.04297000  0.16984000  0.29256000  1
  C  C67  1  0.03571000  0.15731000  0.21813000  1
  C  C68  1  0.14646000  0.15847000  0.17594000  1
  C  C69  1  0.24538000  0.18303000  0.21025000  1
  C  C70  1  0.25597000  0.18084000  0.28249000  1
  C  C71  1  0.15252333  0.18081000  0.32451000  1
  C  C72  1  0.20179000  0.53229000  0.27222000  1
  C  C73  1  0.20622000  0.54186000  0.19798000  1
  C  C74  1  0.13727000  0.67284000  0.16444000  1
  C  C75  1  0.03963000  0.78529000  0.20366000  1
  C  C76  1  0.04212000  0.77983000  0.27681000  1
  C  C77  1  0.12859000  0.65356000  0.31220000  1
  C  C78  1  0.74386000  0.52704000  0.72955000  1
  C  C79  1  0.73287000  0.54072000  0.80237000  1
  C  C80  1  0.67720000  0.67285000  0.83222000  1
  C  C81  1  0.64710000  0.78949000  0.78820000  1
  C  C82  1  0.66368000  0.77460000  0.71455000  1
  C  C83  1  0.70743000  0.64367000  0.68476000  1
  C  C84  1  0.29935000  0.15060000  0.71130000  1
  C  C85  1  0.30423000  0.14824000  0.78417000  1
  C  C86  1  0.19112000  0.15821000  0.82342000  1
  C  C87  1  0.06964000  0.17737000  0.78861000  1
  C  C88  1  0.06455000  0.18127000  0.71524000  1
  C  C89  1  0.17742000  0.17269000  0.67647000  1
  C  C90  1  0.11153000  0.80079000  0.69401000  1
  C  C91  1  0.11846000  0.81405000  0.76608000  1
  C  C92  1  0.19558000  0.69507000  0.80999000  1
  C  C93  1  0.27593000  0.56380000  0.78052000  1
  C  C94  1  0.26752000  0.55002000  0.70791000  1
  C  C95  1  0.17897000  0.66799000  0.66536000  1
  C  C96  1  0.19365000  0.10221000  0.10396000  1
  C  C97  1  0.54228000  0.70543000  0.11774000  1
  C  C98  1  0.17362000  0.70571000  0.09386000  1
  C  C99  1  0.21785000  0.10814000  0.89620000  1
  C  C100  1  0.61546000  0.69080000  0.90292000  1
  C  C101  1  0.20163000  0.71592000  0.88491000  1
  C  C102  1  0.54244000  0.47732000  0.24899000  1
  C  C103  1  0.53448000  0.40476000  0.18352000  1
  C  C104  1  0.52960000  0.27221000  0.20571000  1
  C  C105  1  0.90251000  0.15207000  0.19544000  1
  C  C106  1  0.87349000  0.14094000  0.11642000  1
  C  C107  1  0.75278000  0.11799000  0.09397000  1
  C  C108  1  0.85427000  0.61008000  0.15204000  1
  C  C109  1  0.87153000  0.56085000  0.07399000  1
  C  C110  1  0.97635000  0.58686000  0.03273000  1
  O  O111  1  0.23700000  0.25557000  0.41858000  1
  O  O112  1  0.19242000  0.52739000  0.42109000  1
  O  O113  1  0.99995000  0.73974000  0.41542000  1
  O  O114  1  0.77260000  0.69515000  0.42617000  1
  O  O115  1  0.75164000  0.50343000  0.42362000  1
  O  O116  1  0.02436000  0.27639000  0.42805000  1
  O  O117  1  0.24458000  0.25640000  0.58015000  1
  O  O118  1  0.19944000  0.52816000  0.57086000  1
  O  O119  1  0.00752000  0.74057000  0.57698000  1
  O  O120  1  0.77962000  0.69592000  0.57594000  1
  O  O121  1  0.75921000  0.50426000  0.58519000  1
  O  O122  1  0.03138000  0.27716000  0.57782000  1
  O  O123  1  0.00002000  0.49999000  0.50002000  1
  O  O124  1  0.08490000  0.82561000  0.06939000  1
  O  O125  1  0.12709000  0.05454000  0.07012000  1
  O  O126  1  0.31682000  0.07731000  0.08447000  1
  O  O127  1  0.54686000  0.80670000  0.08243000  1
  O  O128  1  0.56951000  0.59329000  0.08475000  1
  O  O129  1  0.29930000  0.63537000  0.06841000  1
  O  O130  1  0.10291000  0.82879000  0.90814000  1
  O  O131  1  0.14379000  0.05748000  0.92063000  1
  O  O132  1  0.33484000  0.08048000  0.92321000  1
  O  O133  1  0.56357000  0.80964000  0.93295000  1
  O  O134  1  0.58753000  0.59646000  0.92350000  1
  O  O135  1  0.31601000  0.63831000  0.91893000  1
  O  O136  1  0.33272000  0.83369000  0.99888000  1
  F  F137  1  0.95791000  0.18799000  0.82524000  1
  F  F138  1  0.75238000  0.82452000  0.29454000  1
  F  F139  1  0.77928000  0.44880000  0.17394000  1
  F  F140  1  0.91491000  0.55434000  0.29363000  1
