# generated using pymatgen
data_UP2H4C6O8F
_symmetry_space_group_name_H-M   'P 1'
_cell_length_a   8.20866000
_cell_length_b   14.57309000
_cell_length_c   15.51777000
_cell_angle_alpha   104.18757000
_cell_angle_beta   89.91289000
_cell_angle_gamma   89.97124000
_symmetry_Int_Tables_number   1
_chemical_formula_structural   UP2H4C6O8F
_chemical_formula_sum   'U4 P8 H16 C24 O32 F4'
_cell_volume   1799.69830804
_cell_formula_units_Z   4
loop_
 _symmetry_equiv_pos_site_id
 _symmetry_equiv_pos_as_xyz
  1  'x, y, z'
loop_
 _atom_site_type_symbol
 _atom_site_label
 _atom_site_symmetry_multiplicity
 _atom_site_fract_x
 _atom_site_fract_y
 _atom_site_fract_z
 _atom_site_occupancy
  U  U1  1  0.91911000  0.81777000  0.77920000  1.0
  U  U2  1  0.42418000  0.68547000  0.74188000  1.0
  U  U3  1  0.07530000  0.18194000  0.23543000  1.0
  U  U4  1  0.57542000  0.31941000  0.27488000  1.0
  P  P1  1  0.97172000  0.04275000  0.71867000  1.0
  P  P2  1  0.01542000  0.57619000  0.70972000  1.0
  P  P3  1  0.47459000  0.45263000  0.78312000  1.0
  P  P4  1  0.51890000  0.93025000  0.78543000  1.0
  P  P5  1  0.02780000  0.95119000  0.28136000  1.0
  P  P6  1  0.98866000  0.42602000  0.28670000  1.0
  P  P7  1  0.52865000  0.54762000  0.21989000  1.0
  P  P8  1  0.48851000  0.07519000  0.21183000  1.0
  H  H1  1  0.20563000  0.12055000  0.72369000  1.0
  H  H2  1  0.72930000  0.55084000  0.65446000  1.0
  H  H3  1  0.81825000  0.90169000  0.57226000  1.0
  H  H4  1  0.26777000  0.50069000  0.57267000  1.0
  H  H5  1  0.71115000  0.38037000  0.78000000  1.0
  H  H6  1  0.22963000  0.95172000  0.84278000  1.0
  H  H7  1  0.31557000  0.59345000  0.92740000  1.0
  H  H8  1  0.77299000  0.00226000  0.92694000  1.0
  H  H9  1  0.78998000  0.87808000  0.27810000  1.0
  H  H10  1  0.27546000  0.45334000  0.34424000  1.0
  H  H11  1  0.18465000  0.09465000  0.42707000  1.0
  H  H12  1  0.72951000  0.49872000  0.42582000  1.0
  H  H13  1  0.29148000  0.62367000  0.22388000  1.0
  H  H14  1  0.77307000  0.05093000  0.15512000  1.0
  H  H15  1  0.68288000  0.40408000  0.07425000  1.0
  H  H16  1  0.23294000  0.99946000  0.07122000  1.0
  C  C1  1  0.99533000  0.01600000  0.59617000  1.0
  C  C2  1  0.10773000  0.07119000  0.55211000  1.0
  C  C3  1  0.90006000  0.94726000  0.54540000  1.0
  C  C4  1  0.00869000  0.52964000  0.59084000  1.0
  C  C5  1  0.85753000  0.52628000  0.54778000  1.0
  C  C6  1  0.15017000  0.50141000  0.54081000  1.0
  C  C7  1  0.49126000  0.48097000  0.90385000  1.0
  C  C8  1  0.60594000  0.42819000  0.94814000  1.0
  C  C9  1  0.39925000  0.55067000  0.95532000  1.0
  C  C10  1  0.51252000  0.97064000  0.90459000  1.0
  C  C11  1  0.36104000  0.97333000  0.94851000  1.0
  C  C12  1  0.65243000  0.99853000  0.95520000  1.0
  C  C13  1  0.00636000  0.98224000  0.40278000  1.0
  C  C14  1  0.89414000  0.92818000  0.44714000  1.0
  C  C15  1  0.10136000  0.05079000  0.45378000  1.0
  C  C16  1  0.99005000  0.46993000  0.40586000  1.0
  C  C17  1  0.14150000  0.47311000  0.44886000  1.0
  C  C18  1  0.84867000  0.49801000  0.45584000  1.0
  C  C19  1  0.50509000  0.51717000  0.09801000  1.0
  C  C20  1  0.39147000  0.57125000  0.05407000  1.0
  C  C21  1  0.59949000  0.44850000  0.04697000  1.0
  C  C22  1  0.49182000  0.02987000  0.09177000  1.0
  C  C23  1  0.64265000  0.02681000  0.04771000  1.0
  C  C24  1  0.35196000  0.00174000  0.04096000  1.0
  O  O1  1  0.00014000  0.94217000  0.74456000  1.0
  O  O2  1  0.80772000  0.08790000  0.74195000  1.0
  O  O3  1  0.12340000  0.10193000  0.76323000  1.0
  O  O4  1  0.20851000  0.12804000  0.59554000  1.0
  O  O5  1  0.90652000  0.67272000  0.72220000  1.0
  O  O6  1  0.94335000  0.51154000  0.76086000  1.0
  O  O7  1  0.19668000  0.60786000  0.72932000  1.0
  O  O8  1  0.71243000  0.54999000  0.59213000  1.0
  O  O9  1  0.50425000  0.55426000  0.76174000  1.0
  O  O10  1  0.31375000  0.41025000  0.75755000  1.0
  O  O11  1  0.62793000  0.39425000  0.73858000  1.0
  O  O12  1  0.70969000  0.37234000  0.90648000  1.0
  O  O13  1  0.40761000  0.83525000  0.77383000  1.0
  O  O14  1  0.44880000  0.00041000  0.74181000  1.0
  O  O15  1  0.69116000  0.88778000  0.75894000  1.0
  O  O16  1  0.21529000  0.94829000  0.90436000  1.0
  O  O17  1  0.99771000  0.05117000  0.25522000  1.0
  O  O18  1  0.18822000  0.90874000  0.25811000  1.0
  O  O19  1  0.87249000  0.89359000  0.23889000  1.0
  O  O20  1  0.79141000  0.87143000  0.40367000  1.0
  O  O21  1  0.09533000  0.33022000  0.27565000  1.0
  O  O22  1  0.05850000  0.49186000  0.23794000  1.0
  O  O23  1  0.81149000  0.38504000  0.26349000  1.0
  O  O24  1  0.28805000  0.44846000  0.40545000  1.0
  O  O25  1  0.50121000  0.44813000  0.24924000  1.0
  O  O26  1  0.69240000  0.59083000  0.24120000  1.0
  O  O27  1  0.37888000  0.61031000  0.26471000  1.0
  O  O28  1  0.28919000  0.62720000  0.09674000  1.0
  O  O29  1  0.60186000  0.16945000  0.22323000  1.0
  O  O30  1  0.55798000  0.00746000  0.25732000  1.0
  O  O31  1  0.30797000  0.11281000  0.23457000  1.0
  O  O32  1  0.78776000  0.05033000  0.09225000  1.0
  F  F1  1  0.14716000  0.77612000  0.71795000  1.0
  F  F2  1  0.64945000  0.73197000  0.82196000  1.0
  F  F3  1  0.86223000  0.22448000  0.32022000  1.0
  F  F4  1  0.36446000  0.27084000  0.19191000  1.0
