# generated using pymatgen
data_H8C14NO2
_symmetry_space_group_name_H-M   'P 1'
_cell_length_a   9.98360000
_cell_length_b   77.25430000
_cell_length_c   77.25430000
_cell_angle_alpha   120.00000000
_cell_angle_beta   90.00000000
_cell_angle_gamma   90.00000000
_symmetry_Int_Tables_number   1
_chemical_formula_structural   H8C14NO2
_chemical_formula_sum   'H144 C252 N18 O36'
_cell_volume   51601.59520484
_cell_formula_units_Z   18
loop_
 _symmetry_equiv_pos_site_id
 _symmetry_equiv_pos_as_xyz
  1  'x, y, z'
loop_
 _atom_site_type_symbol
 _atom_site_label
 _atom_site_symmetry_multiplicity
 _atom_site_fract_x
 _atom_site_fract_y
 _atom_site_fract_z
 _atom_site_occupancy
  C  1  1  0.99811800  0.98800500  0.49225500  1
  C  2  1  0.94958300  0.97747500  0.47229200  1
  C  4  1  0.91173500  0.98734900  0.46216200  1
  C  22  1  0.94956800  0.95631300  0.46219900  1
  C  23  1  0.03538000  0.95710400  0.49179100  1
  C  31  1  0.99183600  0.94573600  0.47178400  1
  C  37  1  0.01163000  0.82783400  0.42922400  1
  C  38  1  0.00573000  0.84897200  0.43966800  1
  C  39  1  0.99539800  0.86003500  0.42955700  1
  C  40  1  0.98804000  0.84914500  0.40836700  1
  C  41  1  0.99586300  0.82809900  0.39753900  1
  C  42  1  0.00701300  0.81769400  0.40812500  1
  C  43  1  0.99474300  0.88151900  0.44029700  1
  C  44  1  0.92711200  0.89261500  0.45881400  1
  C  45  1  0.92734200  0.91367300  0.46930700  1
  C  46  1  0.99345900  0.92445900  0.46149100  1
  C  47  1  0.06116100  0.91353500  0.44305200  1
  C  48  1  0.06278400  0.89251000  0.43278900  1
  C  49  1  0.01820100  0.81655700  0.43925400  1
  C  50  1  0.92530900  0.81975400  0.45439600  1
  C  51  1  0.91829600  0.80653200  0.46195900  1
  C  52  1  0.00439900  0.78975300  0.45479200  1
  C  53  1  0.10121500  0.78717800  0.44029100  1
  C  54  1  0.10816700  0.80032200  0.43271200  1
  C  55  1  0.99359200  0.81714500  0.37635200  1
  C  56  1  0.10566600  0.80549600  0.36572600  1
  C  57  1  0.09886200  0.79244300  0.34497100  1
  C  58  1  0.97881600  0.79034000  0.33436900  1
  C  59  1  0.86721300  0.80218800  0.34500600  1
  C  60  1  0.87493500  0.81563800  0.36572600  1
  C  76  1  0.01166100  0.59933500  0.17052100  1
  C  77  1  0.00574100  0.58864100  0.14938300  1
  C  78  1  0.99540300  0.56746800  0.13832200  1
  C  79  1  0.98805200  0.55716900  0.14921300  1
  C  80  1  0.99588200  0.56738800  0.17025900  1
  C  81  1  0.00705200  0.58837800  0.18066300  1
  C  82  1  0.99475100  0.55672400  0.11683700  1
  C  83  1  0.92713600  0.56414600  0.10574000  1
  C  84  1  0.92742100  0.55358400  0.08468100  1
  C  85  1  0.99347900  0.53497900  0.07389800  1
  C  86  1  0.06116700  0.52746100  0.08482100  1
  C  87  1  0.06279100  0.53822400  0.10584600  1
  C  88  1  0.01825600  0.62064200  0.18179700  1
  C  89  1  0.92533700  0.63259000  0.17860800  1
  C  90  1  0.91832700  0.65337300  0.19183300  1
  C  91  1  0.00444900  0.66298100  0.20861100  1
  C  92  1  0.10133500  0.65105600  0.21117400  1
  C  93  1  0.10825800  0.63033300  0.19802700  1
  C  94  1  0.99366000  0.55715700  0.18121400  1
  C  95  1  0.10571500  0.55817300  0.19286300  1
  C  96  1  0.09879200  0.55050000  0.20594100  1
  C  97  1  0.97878400  0.54198200  0.20802100  1
  C  98  1  0.86725400  0.54074600  0.19615100  1
  C  99  1  0.87497600  0.54804300  0.18272200  1
  C  115  1  0.01158800  0.56913600  0.39901900  1
  C  116  1  0.00563200  0.55869000  0.40971000  1
  C  117  1  0.99540100  0.56880000  0.43088400  1
  C  118  1  0.98805200  0.58999000  0.44118700  1
  C  119  1  0.99584500  0.60082000  0.43096900  1
  C  120  1  0.00702400  0.59023500  0.40997800  1
  C  121  1  0.99479100  0.55805800  0.44162600  1
  C  122  1  0.92720200  0.53953700  0.43420300  1
  C  123  1  0.92746000  0.52904500  0.44477000  1
  C  124  1  0.99352000  0.53686700  0.46337400  1
  C  125  1  0.06119100  0.55531000  0.47089300  1
  C  126  1  0.06287500  0.56556500  0.46012200  1
  C  127  1  0.01813100  0.55910900  0.37771000  1
  C  128  1  0.92527900  0.54396100  0.36576500  1
  C  129  1  0.91826500  0.53640500  0.34498200  1
  C  130  1  0.00445800  0.54356000  0.33536900  1
  C  131  1  0.10127600  0.55806100  0.34729700  1
  C  132  1  0.10823900  0.56563500  0.36802000  1
  C  133  1  0.99362900  0.62200500  0.44120100  1
  C  134  1  0.10571300  0.63264100  0.44019900  1
  C  135  1  0.09887400  0.65339600  0.44789800  1
  C  136  1  0.97876500  0.66398500  0.45637500  1
  C  137  1  0.86719100  0.65335100  0.45759500  1
  C  138  1  0.87488600  0.63262400  0.45029100  1
  C  154  1  0.00894500  0.16987800  0.57000100  1
  C  155  1  0.00338600  0.14874000  0.55942600  1
  C  156  1  0.99640400  0.13757400  0.56944700  1
  C  157  1  0.99170600  0.14826100  0.59064200  1
  C  158  1  0.99816700  0.16931800  0.60158400  1
  C  159  1  0.00634000  0.17986900  0.59110600  1
  C  160  1  0.99720500  0.11613600  0.55856300  1
  C  161  1  0.92249300  0.10511300  0.54074100  1
  C  162  1  0.92465600  0.08406300  0.53004000  1
  C  163  1  0.00181300  0.07307400  0.53664500  1
  C  164  1  0.07637100  0.08412700  0.55448600  1
  C  165  1  0.07438100  0.10515500  0.56516400  1
  C  166  1  0.01432900  0.18127600  0.56008900  1
  C  167  1  0.92101100  0.17814800  0.54501900  1
  C  168  1  0.91426100  0.19135200  0.53743200  1
  C  169  1  0.00103100  0.20804900  0.54450900  1
  C  170  1  0.09800200  0.21058400  0.55897600  1
  C  171  1  0.10469300  0.19745800  0.56657900  1
  C  172  1  0.99676400  0.18015000  0.62277300  1
  C  173  1  0.10788900  0.19209000  0.63337600  1
  C  174  1  0.10090700  0.20511100  0.65413700  1
  C  175  1  0.98156900  0.20687300  0.66476100  1
  C  176  1  0.87096000  0.19473200  0.65416100  1
  C  177  1  0.87891100  0.18133400  0.63343300  1
  C  193  1  0.00889600  0.39807100  0.82847300  1
  C  194  1  0.00331600  0.40863000  0.84961200  1
  C  195  1  0.99643400  0.42981900  0.86078200  1
  C  196  1  0.99175800  0.44032900  0.85009700  1
  C  197  1  0.99820800  0.43021900  0.82904200  1
  C  198  1  0.00632700  0.40919000  0.81848600  1
  C  199  1  0.99726600  0.44036900  0.88221900  1
  C  200  1  0.92252300  0.43357300  0.89324200  1
  C  201  1  0.92473600  0.44391600  0.91429200  1
  C  202  1  0.00187400  0.46151300  0.92528200  1
  C  203  1  0.07646500  0.46829900  0.91422900  1
  C  204  1  0.07444400  0.45795100  0.89320200  1
  C  205  1  0.01423400  0.37676300  0.81707200  1
  C  206  1  0.92091100  0.36482200  0.82020200  1
  C  207  1  0.91415800  0.34403100  0.80700200  1
  C  208  1  0.00088300  0.33440700  0.79029800  1
  C  209  1  0.09772000  0.34634400  0.78774400  1
  C  210  1  0.10456300  0.36706700  0.80088500  1
  C  211  1  0.99682500  0.44058000  0.81821400  1
  C  212  1  0.10796800  0.43924500  0.80627600  1
  C  213  1  0.10097600  0.44697800  0.79324900  1
  C  214  1  0.98165100  0.45584500  0.79149100  1
  C  215  1  0.87107900  0.45740400  0.80364600  1
  C  216  1  0.87897400  0.45005600  0.81702700  1
  C  232  1  0.00882500  0.42834400  0.60028200  1
  C  233  1  0.00327500  0.43892900  0.58972800  1
  C  234  1  0.99639600  0.42891700  0.56854000  1
  C  235  1  0.99170800  0.40772200  0.55802400  1
  C  236  1  0.99813700  0.39677000  0.56812900  1
  C  237  1  0.00623100  0.40723800  0.58915800  1
  C  238  1  0.99726400  0.43980800  0.55799500  1
  C  239  1  0.92251200  0.45762700  0.56479100  1
  C  240  1  0.92476600  0.46833800  0.55445200  1
  C  241  1  0.00190500  0.46173300  0.53685700  1
  C  242  1  0.07651200  0.44389600  0.53007100  1
  C  243  1  0.07445500  0.43321100  0.54041400  1
  C  244  1  0.01412500  0.43824600  0.62159200  1
  C  245  1  0.92084900  0.45332200  0.63353400  1
  C  246  1  0.91409000  0.46091600  0.65432500  1
  C  247  1  0.00079100  0.45383100  0.66394800  1
  C  248  1  0.09760100  0.43933500  0.65201100  1
  C  249  1  0.10434300  0.43173700  0.63128500  1
  C  250  1  0.99670500  0.37558400  0.55776000  1
  C  251  1  0.10790600  0.36498000  0.55908000  1
  C  252  1  0.10099700  0.34421700  0.55133600  1
  C  253  1  0.98158100  0.33359600  0.54251300  1
  C  254  1  0.87090700  0.34419200  0.54098500  1
  C  255  1  0.87880700  0.36491900  0.54831300  1
  C  271  1  0.00502900  0.05163100  0.52571700  1
  C  272  1  0.88921900  0.04016000  0.51645600  1
  C  274  1  0.00792300  0.00918600  0.50377000  1
  C  275  1  0.12815200  0.01965500  0.51282600  1
  C  276  1  0.12457000  0.04083000  0.52352800  1
  C  279  1  0.24846900  0.00971000  0.51021700  1
  C  283  1  0.00508500  0.47202700  0.94672400  1
  C  284  1  0.88926000  0.47424100  0.95819400  1
  C  286  1  0.00795500  0.49252800  0.98917100  1
  C  287  1  0.12820000  0.49111200  0.97870200  1
  C  288  1  0.12462500  0.48063800  0.95752800  1
  C  290  1  0.99813700  0.50219400  0.01035200  1
  C  291  1  0.94958700  0.49276300  0.02088100  1
  C  292  1  0.94956700  0.50383200  0.04204200  1
  C  293  1  0.99184900  0.52399300  0.05261900  1
  C  294  1  0.03541900  0.53263200  0.04125200  1
  C  299  1  0.91171500  0.47276000  0.01100800  1
  C  300  1  0.24850900  0.49844500  0.98864800  1
  C  307  1  0.00511900  0.47266100  0.52634300  1
  C  308  1  0.88929100  0.48191800  0.52412900  1
  C  310  1  0.00798300  0.49460300  0.50583800  1
  C  311  1  0.12822200  0.48555100  0.50725400  1
  C  312  1  0.12465500  0.47485200  0.51773000  1
  C  314  1  0.99815700  0.50611500  0.49616800  1
  C  315  1  0.94959900  0.52607600  0.50559600  1
  C  316  1  0.94958700  0.53616400  0.49452400  1
  C  317  1  0.99187700  0.52657800  0.47436400  1
  C  318  1  0.03544000  0.50657200  0.46572800  1
  C  323  1  0.91172700  0.53620700  0.52559800  1
  C  324  1  0.24853700  0.48816100  0.49991900  1
  C  331  1  0.98853100  0.68359800  0.22347600  1
  C  332  1  0.10015500  0.69592900  0.23311800  1
  C  334  1  0.96180900  0.72314200  0.25637800  1
  C  335  1  0.84471700  0.71180400  0.24682200  1
  C  336  1  0.86048200  0.69214600  0.23048300  1
  C  338  1  0.96353200  0.74187600  0.27463200  1
  C  339  1  0.06131100  0.75712800  0.27979200  1
  C  340  1  0.06229400  0.77360900  0.29955200  1
  C  341  1  0.96853000  0.77518200  0.31396600  1
  C  342  1  0.87183900  0.75992500  0.30784000  1
  C  347  1  0.15195500  0.75661700  0.26585300  1
  C  348  1  0.71544300  0.71891500  0.25246000  1
  C  355  1  0.98852200  0.53781800  0.31475500  1
  C  356  1  0.10015300  0.53513100  0.30242400  1
  C  358  1  0.96179700  0.53118100  0.27521200  1
  C  359  1  0.84470700  0.53296000  0.28655100  1
  C  360  1  0.86048000  0.53627600  0.30620700  1
  C  362  1  0.96350900  0.53070000  0.25647800  1
  C  363  1  0.06127600  0.52060700  0.24122600  1
  C  364  1  0.06225100  0.52388500  0.22474400  1
  C  365  1  0.96844900  0.53671900  0.22316700  1
  C  366  1  0.87180100  0.54585800  0.23842900  1
  C  371  1  0.15192900  0.50717900  0.24173600  1
  C  372  1  0.71542500  0.53149000  0.27944200  1
  C  379  1  0.98851100  0.77490100  0.46056100  1
  C  380  1  0.10013500  0.76524100  0.46322600  1
  C  382  1  0.96179800  0.74198200  0.46718000  1
  C  383  1  0.84470700  0.75154400  0.46540700  1
  C  384  1  0.86047200  0.76788500  0.46209300  1
  C  386  1  0.96352100  0.72372800  0.46765900  1
  C  387  1  0.06131200  0.71856500  0.47774600  1
  C  388  1  0.06228200  0.69880500  0.47446700  1
  C  389  1  0.96846100  0.68439400  0.46163700  1
  C  390  1  0.87179000  0.69052300  0.45250400  1
  C  395  1  0.15200100  0.73250100  0.49116800  1
  C  396  1  0.71543200  0.74590500  0.46688000  1
  C  403  1  0.98580600  0.31375500  0.77549300  1
  C  404  1  0.09799200  0.30149500  0.76599800  1
  C  406  1  0.96098100  0.27412300  0.74267800  1
  C  407  1  0.84334500  0.28538000  0.75210400  1
  C  408  1  0.85816700  0.30508300  0.76840100  1
  C  410  1  0.96374100  0.25536500  0.72445200  1
  C  411  1  0.06245300  0.24024500  0.71936300  1
  C  412  1  0.06438500  0.22374900  0.69961300  1
  C  413  1  0.97050300  0.22201600  0.68515000  1
  C  414  1  0.87296400  0.23715000  0.69119500  1
  C  419  1  0.15312300  0.24089200  0.73336400  1
  C  420  1  0.71439200  0.27815400  0.74637100  1
  C  427  1  0.98574700  0.45969100  0.68460400  1
  C  428  1  0.09795100  0.46245000  0.69686000  1
  C  430  1  0.96098100  0.46650300  0.72423600  1
  C  431  1  0.84333200  0.46467000  0.71298000  1
  C  432  1  0.85812800  0.46126400  0.69327600  1
  C  434  1  0.96376900  0.46703400  0.74299300  1
  C  435  1  0.06247300  0.47707100  0.75811300  1
  C  436  1  0.06442800  0.47381800  0.77460900  1
  C  437  1  0.97057200  0.46108600  0.77634400  1
  C  438  1  0.87304300  0.45199200  0.76121000  1
  C  443  1  0.15311100  0.49042600  0.75746300  1
  C  444  1  0.71438300  0.46616000  0.72020800  1
  C  451  1  0.98592600  0.22286200  0.53867200  1
  C  452  1  0.09810300  0.23235800  0.53590600  1
  C  454  1  0.96107700  0.25568300  0.53186500  1
  C  455  1  0.84345200  0.24625900  0.53370000  1
  C  456  1  0.85828000  0.22995900  0.53710300  1
  C  458  1  0.96383000  0.27390900  0.53133200  1
  C  459  1  0.06250800  0.27899500  0.52129500  1
  C  460  1  0.06442600  0.29874400  0.52454500  1
  C  461  1  0.97056300  0.31320900  0.53727900  1
  C  462  1  0.87306300  0.30716700  0.54637500  1
  C  467  1  0.15315300  0.26499400  0.50793900  1
  C  468  1  0.71449100  0.25199600  0.53221500  1
  H  7  1  0.08196600  0.99489000  0.45754400  1
  H  24  1  0.06932500  0.95032900  0.49942500  1
  H  32  1  0.91747500  0.94845800  0.44765600  1
  H  61  1  0.84678100  0.80902000  0.47244400  1
  H  62  1  0.85620600  0.83101600  0.45917300  1
  H  63  1  0.16317000  0.77499200  0.43416200  1
  H  64  1  0.17657000  0.79741900  0.42170900  1
  H  65  1  0.19195400  0.80596700  0.37312300  1
  H  66  1  0.18006500  0.78361400  0.33788300  1
  H  67  1  0.79091700  0.82338900  0.37316500  1
  H  68  1  0.77833700  0.80077400  0.33780600  1
  H  69  1  0.11655200  0.88530900  0.41979600  1
  H  70  1  0.11234600  0.92082800  0.43710200  1
  H  71  1  0.87568700  0.92108600  0.48249300  1
  H  72  1  0.87424600  0.88545600  0.46473500  1
  H  73  1  0.01389400  0.85639700  0.45491600  1
  H  74  1  0.00809300  0.80236800  0.40025500  1
  H  75  1  0.97786900  0.85657300  0.40056800  1
  H  100  1  0.84675000  0.66137100  0.18935800  1
  H  101  1  0.85619300  0.62610500  0.16735200  1
  H  102  1  0.16324700  0.65711300  0.22336500  1
  H  103  1  0.17667000  0.62223200  0.20092700  1
  H  104  1  0.19194000  0.56512400  0.19241700  1
  H  105  1  0.17999700  0.55223600  0.21476700  1
  H  106  1  0.79102700  0.54770200  0.17494500  1
  H  107  1  0.77837700  0.53495400  0.19755500  1
  H  108  1  0.11654300  0.53243100  0.11304800  1
  H  109  1  0.11233400  0.51421700  0.07752900  1
  H  110  1  0.87569200  0.55935300  0.07727100  1
  H  111  1  0.87425500  0.57722500  0.11289900  1
  H  112  1  0.01390400  0.59646500  0.14195700  1
  H  113  1  0.00815300  0.59583500  0.19598900  1
  H  114  1  0.97788500  0.54194100  0.14178600  1
  H  139  1  0.84679000  0.52591500  0.33698100  1
  H  140  1  0.85614400  0.53919000  0.37225000  1
  H  141  1  0.16317900  0.56419600  0.34124000  1
  H  142  1  0.17653100  0.57665500  0.37612200  1
  H  143  1  0.19194600  0.62524300  0.43325100  1
  H  144  1  0.17999700  0.66047900  0.44613000  1
  H  145  1  0.79096900  0.62518900  0.45064600  1
  H  146  1  0.77830700  0.66054800  0.46338400  1
  H  147  1  0.11658100  0.57856400  0.46592000  1
  H  148  1  0.11239600  0.56125800  0.48413200  1
  H  149  1  0.87571200  0.51586700  0.43900400  1
  H  150  1  0.87424400  0.53362300  0.42113300  1
  H  151  1  0.01387500  0.54344200  0.40188500  1
  H  152  1  0.00807300  0.59810500  0.40252100  1
  H  153  1  0.97791500  0.59778900  0.45641400  1
  H  178  1  0.84277000  0.18887700  0.52694900  1
  H  179  1  0.85200700  0.16687200  0.54022400  1
  H  180  1  0.16022400  0.22274000  0.56507900  1
  H  181  1  0.17342700  0.20031800  0.57752900  1
  H  182  1  0.19343800  0.19187300  0.62595200  1
  H  183  1  0.18129900  0.21415000  0.66121500  1
  H  184  1  0.79546600  0.17336700  0.62602000  1
  H  185  1  0.78256300  0.19590900  0.66138500  1
  H  186  1  0.13211800  0.11238700  0.57775900  1
  H  187  1  0.13218800  0.07695600  0.56011300  1
  H  188  1  0.87067000  0.07683700  0.51707000  1
  H  189  1  0.86393700  0.11232700  0.53544900  1
  H  190  1  0.00986200  0.14138200  0.54415500  1
  H  191  1  0.00680200  0.19519500  0.59906800  1
  H  192  1  0.98444500  0.14066900  0.59831900  1
  H  217  1  0.84270400  0.33602200  0.80948400  1
  H  218  1  0.85193800  0.37130400  0.83148300  1
  H  219  1  0.16012300  0.34028100  0.77560800  1
  H  220  1  0.17333600  0.37515400  0.79802600  1
  H  221  1  0.19346900  0.43202400  0.80648300  1
  H  222  1  0.18134700  0.44500800  0.78420400  1
  H  223  1  0.79556500  0.45061300  0.82500200  1
  H  224  1  0.78264400  0.46343500  0.80245400  1
  H  225  1  0.13224700  0.46330700  0.88597000  1
  H  226  1  0.13229700  0.48109300  0.92140000  1
  H  227  1  0.87065700  0.43818100  0.92151900  1
  H  228  1  0.86393700  0.42107100  0.88602900  1
  H  229  1  0.00984600  0.40071900  0.85697000  1
  H  230  1  0.00678700  0.40182900  0.80316000  1
  H  231  1  0.98455600  0.45560100  0.85769400  1
  H  256  1  0.84267400  0.47141400  0.66233600  1
  H  257  1  0.85192700  0.45813100  0.62705300  1
  H  258  1  0.16002100  0.43326600  0.65807600  1
  H  259  1  0.17323300  0.42080900  0.62320000  1
  H  260  1  0.19343700  0.37241000  0.56629000  1
  H  261  1  0.18136900  0.33715600  0.55332300  1
  H  262  1  0.79535300  0.37233600  0.54776900  1
  H  263  1  0.78247300  0.33696800  0.53495900  1
  H  264  1  0.13224800  0.42062300  0.53505700  1
  H  265  1  0.13231000  0.43827000  0.51727400  1
  H  266  1  0.87069000  0.48130100  0.56018900  1
  H  267  1  0.86396200  0.46291900  0.57729800  1
  H  268  1  0.00981600  0.45419900  0.59764500  1
  H  269  1  0.00666300  0.39926800  0.59651300  1
  H  270  1  0.98450600  0.40005100  0.54275300  1
  H  277  1  0.21199700  0.04851600  0.52936800  1
  H  278  1  0.79861900  0.04680500  0.51761000  1
  H  282  1  0.39047200  0.99988100  0.49178200  1
  H  289  1  0.21205700  0.47879100  0.94984200  1
  H  296  1  0.91746400  0.49714400  0.04989700  1
  H  297  1  0.06938300  0.54703900  0.04802600  1
  H  298  1  0.79866000  0.46875100  0.95154900  1
  H  303  1  0.08193600  0.46059700  0.00346800  1
  H  306  1  0.39050000  0.48983800  0.99847900  1
  H  313  1  0.21208700  0.46901600  0.51957900  1
  H  320  1  0.91748500  0.55070800  0.50120900  1
  H  321  1  0.06940900  0.49893600  0.45132100  1
  H  322  1  0.79869100  0.48076300  0.52962000  1
  H  327  1  0.08194500  0.54083000  0.53776300  1
  H  330  1  0.39053000  0.50659900  0.50852500  1
  H  337  1  0.77687300  0.68357200  0.22413000  1
  H  344  1  0.13284800  0.78462000  0.30359400  1
  H  345  1  0.80423000  0.75980100  0.31772000  1
  H  346  1  0.19592100  0.69089900  0.22891300  1
  H  351  1  0.03289500  0.76013900  0.24887200  1
  H  354  1  0.61049300  0.74143300  0.25840200  1
  H  361  1  0.77686600  0.53849500  0.31478100  1
  H  368  1  0.13280700  0.51691800  0.21373300  1
  H  369  1  0.80421000  0.55586400  0.23855400  1
  H  370  1  0.19591300  0.53595500  0.30745300  1
  H  375  1  0.03287300  0.48667800  0.23822000  1
  H  378  1  0.61047300  0.51491400  0.25692300  1
  H  385  1  0.77685600  0.77424100  0.45987500  1
  H  392  1  0.13285000  0.69476000  0.48143200  1
  H  393  1  0.80417000  0.68064400  0.44250200  1
  H  394  1  0.19590100  0.76944200  0.46239400  1
  H  399  1  0.03301300  0.74948500  0.51168000  1
  H  402  1  0.61049300  0.73996100  0.48345600  1
  H  409  1  0.77418000  0.31359900  0.77465400  1
  H  416  1  0.13564300  0.21283900  0.69561600  1
  H  417  1  0.80528100  0.23716200  0.68126700  1
  H  418  1  0.19351900  0.30661100  0.77027700  1
  H  423  1  0.03437700  0.23720100  0.75026800  1
  H  426  1  0.61015100  0.25556600  0.74040600  1
  H  433  1  0.77413000  0.45900000  0.68476300  1
  H  440  1  0.13568400  0.48073500  0.78552000  1
  H  441  1  0.80538000  0.44205200  0.76120100  1
  H  442  1  0.19347300  0.46161100  0.69174200  1
  H  447  1  0.03430800  0.51101500  0.76115200  1
  H  450  1  0.61015200  0.48278000  0.74280000  1
  H  457  1  0.77430100  0.22370600  0.53936600  1
  H  464  1  0.13565200  0.30273900  0.51762500  1
  H  465  1  0.80539100  0.31709500  0.55631600  1
  H  466  1  0.19363700  0.22807500  0.53673400  1
  H  471  1  0.03436800  0.24809100  0.48734800  1
  H  474  1  0.61020200  0.25796300  0.51559700  1
  N  3  1  0.03828100  0.97733600  0.50098100  1
  N  273  1  0.89484800  0.01992500  0.50608300  1
  N  285  1  0.89487900  0.48410400  0.97843000  1
  N  295  1  0.03832300  0.52158800  0.02101900  1
  N  309  1  0.89490800  0.49228700  0.51426300  1
  N  319  1  0.03834200  0.49738500  0.47677400  1
  N  333  1  0.08266600  0.71449300  0.24894600  1
  N  343  1  0.87536800  0.74409000  0.28903200  1
  N  357  1  0.08265500  0.53239700  0.28386100  1
  N  367  1  0.87534700  0.54288700  0.25426600  1
  N  381  1  0.08264800  0.74941100  0.46595700  1
  N  391  1  0.87533600  0.70933000  0.45547600  1
  N  405  1  0.08139500  0.28289100  0.75020400  1
  N  415  1  0.87565800  0.25300900  0.70999000  1
  N  429  1  0.08138400  0.46525800  0.71546400  1
  N  439  1  0.87571600  0.45492500  0.74534900  1
  N  453  1  0.08149500  0.24815500  0.53310000  1
  N  463  1  0.87576700  0.28837400  0.54344300  1
  O  5  1  0.80066400  0.98391200  0.45449000  1
  O  6  1  0.99580400  0.99305700  0.45435900  1
  O  280  1  0.31240300  0.01336500  0.52521200  1
  O  281  1  0.30845800  0.00493600  0.49447200  1
  O  301  1  0.80063500  0.46852700  0.01444400  1
  O  302  1  0.99577300  0.45924800  0.00530100  1
  O  304  1  0.31246300  0.50978500  0.98499300  1
  O  305  1  0.30848600  0.48747400  0.99342300  1
  O  325  1  0.80065400  0.54387700  0.52983100  1
  O  326  1  0.99577900  0.54401300  0.53911200  1
  O  328  1  0.31247400  0.47316600  0.48857900  1
  O  329  1  0.30851600  0.50390800  0.51088900  1
  O  349  1  0.27110500  0.75900800  0.27006000  1
  O  350  1  0.11695200  0.76009200  0.25254000  1
  O  352  1  0.65624500  0.71374300  0.26302400  1
  O  353  1  0.68674700  0.73495300  0.25345400  1
  O  373  1  0.27107400  0.50899400  0.23934200  1
  O  374  1  0.11693100  0.49039300  0.23826600  1
  O  376  1  0.65622800  0.54722600  0.28461500  1
  O  377  1  0.68672700  0.51644600  0.26340200  1
  O  397  1  0.27114600  0.72828900  0.48934300  1
  O  398  1  0.11705800  0.74581400  0.50795800  1
  O  400  1  0.65622200  0.73534400  0.45114400  1
  O  401  1  0.68674700  0.74490900  0.48192300  1
  O  421  1  0.27240600  0.23866500  0.72922900  1
  O  422  1  0.11841400  0.23736500  0.74665200  1
  O  424  1  0.65530500  0.28323500  0.73572700  1
  O  425  1  0.68611600  0.26211400  0.74540400  1
  O  445  1  0.27239600  0.48852600  0.75969300  1
  O  446  1  0.11835500  0.50724000  0.76099100  1
  O  448  1  0.65532400  0.45043300  0.71512700  1
  O  449  1  0.68610700  0.48123000  0.73624900  1
  O  469  1  0.27243700  0.26912500  0.50983900  1
  O  470  1  0.11841000  0.25170700  0.49112400  1
  O  472  1  0.65544500  0.26264000  0.54794400  1
  O  473  1  0.68617600  0.25296300  0.51714400  1
