# generated using pymatgen
data_Co3H8C14(NO)6
_symmetry_space_group_name_H-M   'P 1'
_cell_length_a   10.74544129
_cell_length_b   10.87757696
_cell_length_c   10.91477936
_cell_angle_alpha   79.68412746
_cell_angle_beta   86.46110078
_cell_angle_gamma   87.51457485
_symmetry_Int_Tables_number   1
_chemical_formula_structural   Co3H8C14(NO)6
_chemical_formula_sum   'Co6 H16 C28 N12 O12'
_cell_volume   1252.07306604
_cell_formula_units_Z   2
loop_
 _symmetry_equiv_pos_site_id
 _symmetry_equiv_pos_as_xyz
  1  'x, y, z'
loop_
 _atom_site_type_symbol
 _atom_site_label
 _atom_site_symmetry_multiplicity
 _atom_site_fract_x
 _atom_site_fract_y
 _atom_site_fract_z
 _atom_site_occupancy
  Co  Co1  1  0.25097138  0.07779447  0.91843406  1.0
  Co  Co2  1  0.00847641  0.97699618  0.84788217  1.0
  Co  Co3  1  0.50329888  0.84658288  0.98195851  1.0
  Co  Co4  1  0.74877127  0.92686815  0.07707501  1.0
  Co  Co5  1  0.99344689  0.02709578  0.15152590  1.0
  Co  Co6  1  0.49458911  0.15437545  0.01402209  1.0
  H  H1  1  0.98799558  0.64630626  0.84589065  1.0
  H  H2  1  0.08655718  0.43217296  0.85235032  1.0
  H  H3  1  0.43937129  0.55475911  0.94658400  1.0
  H  H4  1  0.51637389  0.15046818  0.34301587  1.0
  H  H5  1  0.42170391  0.13128701  0.56123525  1.0
  H  H6  1  0.06268234  0.04917696  0.44413765  1.0
  H  H7  1  0.04284017  0.18533594  0.91518746  1.0
  H  H8  1  0.46077493  0.07282054  0.81314287  1.0
  H  H9  1  0.00994081  0.35088203  0.15484877  1.0
  H  H10  1  0.91493754  0.56661285  0.14547564  1.0
  H  H11  1  0.55971149  0.44663764  0.05266409  1.0
  H  H12  1  0.48579669  0.84848692  0.65968783  1.0
  H  H13  1  0.57732243  0.86953145  0.44040708  1.0
  H  H14  1  0.93827638  0.95167706  0.55478505  1.0
  H  H15  1  0.93950356  0.81740103  0.09031254  1.0
  H  H16  1  0.55540603  0.92073612  0.18539853  1.0
  C  C1  1  0.28750341  0.69353424  0.92245314  1.0
  C  C2  1  0.16110084  0.71955876  0.89326514  1.0
  C  C3  1  0.08538247  0.62657338  0.86697869  1.0
  C  C4  1  0.14021808  0.50869795  0.87098547  1.0
  C  C5  1  0.26700250  0.48195950  0.90010542  1.0
  C  C6  1  0.34238624  0.57424355  0.92509422  1.0
  C  C7  1  0.31699734  0.35015786  0.90858196  1.0
  C  C8  1  0.21292552  0.08007527  0.30132046  1.0
  C  C9  1  0.34008059  0.10925120  0.27283802  1.0
  C  C10  1  0.41855720  0.12918280  0.36507605  1.0
  C  C11  1  0.36583683  0.11829693  0.48508676  1.0
  C  C12  1  0.23841631  0.08891014  0.51442416  1.0
  C  C13  1  0.16018053  0.07079065  0.42283541  1.0
  C  C14  1  0.19058539  0.07369531  0.64797726  1.0
  C  C15  1  0.70978658  0.30556566  0.07902277  1.0
  C  C16  1  0.83573352  0.27905161  0.10901901  1.0
  C  C17  1  0.91255699  0.37175198  0.13410614  1.0
  C  C18  1  0.85950281  0.49062837  0.12819967  1.0
  C  C19  1  0.73287008  0.51848696  0.09872299  1.0
  C  C20  1  0.65643460  0.42608475  0.07489815  1.0
  C  C21  1  0.68353199  0.65130107  0.08828636  1.0
  C  C22  1  0.78947336  0.91929308  0.69944528  1.0
  C  C23  1  0.66286733  0.88891791  0.72840391  1.0
  C  C24  1  0.58363932  0.86931453  0.63660482  1.0
  C  C25  1  0.63485048  0.88137683  0.51588022  1.0
  C  C26  1  0.76215637  0.91102172  0.48549297  1.0
  C  C27  1  0.84105198  0.92909619  0.57701255  1.0
  C  C28  1  0.80986642  0.92681366  0.35123019  1.0
  N  N1  1  0.13718951  0.84289292  0.89845933  1.0
  N  N2  1  0.24116542  0.88890972  0.92981582  1.0
  N  N3  1  0.33420060  0.80283994  0.94460771  1.0
  N  N4  1  0.16367533  0.06418360  0.19188229  1.0
  N  N5  1  0.25625878  0.08235365  0.10359398  1.0
  N  N6  1  0.36196694  0.11014555  0.14819422  1.0
  N  N7  1  0.85966524  0.15582768  0.10454150  1.0
  N  N8  1  0.75613215  0.10994705  0.07186144  1.0
  N  N9  1  0.66286191  0.19608094  0.05676616  1.0
  N  N10  1  0.83838494  0.93710837  0.80872178  1.0
  N  N11  1  0.74529134  0.91959673  0.89683702  1.0
  N  N12  1  0.64050326  0.88873621  0.85269108  1.0
  O  O1  1  0.05939165  0.09688007  0.94652891  1.0
  O  O2  1  0.44277281  0.04748417  0.90248796  1.0
  O  O3  1  0.42845629  0.32566600  0.94476746  1.0
  O  O4  1  0.24438536  0.27162570  0.88123576  1.0
  O  O5  1  0.07705202  0.04127151  0.67436503  1.0
  O  O6  1  0.26702339  0.09255230  0.72591408  1.0
  O  O7  1  0.92724164  0.90666378  0.05759609  1.0
  O  O8  1  0.57036187  0.94783468  0.09543802  1.0
  O  O9  1  0.57141981  0.67576791  0.05563909  1.0
  O  O10  1  0.75860954  0.73083204  0.11120093  1.0
  O  O11  1  0.92319848  0.95824602  0.32470023  1.0
  O  O12  1  0.73254848  0.90891665  0.27278559  1.0
