# generated using pymatgen
data_H5(C3N)2
_symmetry_space_group_name_H-M   'P 1'
_cell_length_a   9.83926667
_cell_length_b   32.60560000
_cell_length_c   84.54390000
_cell_angle_alpha   90.00000000
_cell_angle_beta   90.00000000
_cell_angle_gamma   90.00000000
_symmetry_Int_Tables_number   1
_chemical_formula_structural   H5(C3N)2
_chemical_formula_sum   'H180 C216 N72'
_cell_volume   27122.96761464
_cell_formula_units_Z   36
loop_
 _symmetry_equiv_pos_site_id
 _symmetry_equiv_pos_as_xyz
  1  'x, y, z'
loop_
 _atom_site_type_symbol
 _atom_site_label
 _atom_site_symmetry_multiplicity
 _atom_site_fract_x
 _atom_site_fract_y
 _atom_site_fract_z
 _atom_site_occupancy
  C  1  1  0.00771100  0.28899600  0.17317600  1
  C  3  1  0.02105100  0.35508300  0.18484400  1
  C  5  1  0.97249600  0.29704600  0.20085200  1
  C  10  1  0.00925600  0.72769700  0.84317300  1
  C  12  1  0.02246700  0.66163200  0.83148300  1
  C  14  1  0.97356400  0.71969600  0.81550300  1
  C  19  1  0.05717300  0.74121300  0.17317000  1
  C  21  1  0.05788400  0.67166400  0.18184800  1
  C  23  1  0.05846400  0.72582900  0.20077400  1
  C  28  1  0.05773100  0.27550800  0.84313600  1
  C  30  1  0.05857600  0.34505400  0.83446000  1
  C  32  1  0.05890600  0.29088900  0.81553400  1
  C  37  1  0.98575700  0.78899700  0.67304100  1
  C  39  1  0.99879300  0.85543600  0.68447900  1
  C  41  1  0.95877300  0.79740600  0.70083700  1
  C  46  1  0.98671900  0.22763400  0.34330500  1
  C  48  1  0.99999600  0.16123400  0.33183700  1
  C  50  1  0.95935600  0.21928700  0.31551200  1
  C  55  1  0.04768100  0.24081500  0.67161100  1
  C  57  1  0.02992600  0.17231200  0.68112200  1
  C  59  1  0.06698200  0.22733600  0.69918400  1
  C  64  1  0.04878900  0.77585500  0.34469900  1
  C  66  1  0.03100100  0.84436400  0.33519600  1
  C  68  1  0.06781000  0.78934900  0.31712400  1
  C  73  1  0.01408500  0.01653400  0.06797900  1
  C  75  1  0.02523000  0.05481600  0.09196300  1
  C  77  1  0.04524100  0.98168100  0.09261900  1
  C  82  1  0.01642300  0.00026100  0.94835600  1
  C  84  1  0.02810200  0.96189900  0.92438600  1
  C  86  1  0.04577500  0.03508500  0.92368400  1
  C  91  1  0.02501800  0.51704900  0.56809700  1
  C  93  1  0.00649100  0.55212000  0.59278300  1
  C  95  1  0.04296500  0.47980400  0.59233100  1
  C  100  1  0.02622700  0.49981600  0.44821200  1
  C  102  1  0.00785300  0.46468100  0.42353500  1
  C  104  1  0.04362600  0.53702100  0.42396700  1
  C  109  1  0.05272600  0.55700900  0.18493900  1
  C  110  1  0.04217300  0.52756900  0.19708600  1
  C  111  1  0.04065600  0.48473900  0.19419400  1
  C  112  1  0.05185700  0.46966800  0.17825400  1
  C  113  1  0.06383100  0.49955200  0.16581000  1
  C  115  1  0.06316900  0.54215900  0.16935800  1
  C  117  1  0.02791300  0.45797700  0.20848600  1
  C  121  1  0.07623800  0.48801400  0.14876300  1
  C  125  1  0.05274400  0.59926200  0.18886900  1
  C  127  1  0.05063900  0.42685600  0.17445400  1
  C  129  1  0.05373900  0.45970600  0.83136900  1
  C  130  1  0.04311200  0.48914900  0.81922500  1
  C  131  1  0.04177600  0.53197900  0.82211700  1
  C  132  1  0.05322000  0.54704700  0.83805600  1
  C  133  1  0.06527300  0.51715700  0.85049800  1
  C  135  1  0.06442000  0.47455400  0.84695000  1
  C  137  1  0.02892900  0.55874500  0.80782800  1
  C  141  1  0.07794700  0.52869200  0.86754400  1
  C  145  1  0.05358600  0.41745600  0.82744000  1
  C  147  1  0.05217200  0.58985600  0.84185700  1
  C  149  1  0.01786300  0.05773900  0.68458600  1
  C  150  1  0.01471900  0.02817600  0.69674600  1
  C  151  1  0.01464300  0.98533100  0.69382100  1
  C  152  1  0.01978400  0.97034000  0.67782600  1
  C  153  1  0.02408300  0.00035900  0.66536100  1
  C  155  1  0.02197300  0.04294700  0.66895000  1
  C  157  1  0.01060700  0.95840600  0.70813200  1
  C  161  1  0.02996800  0.98896200  0.64825200  1
  C  165  1  0.01960100  0.10001800  0.68852200  1
  C  167  1  0.02011600  0.92752500  0.67399100  1
  C  169  1  0.01905200  0.95893400  0.33172900  1
  C  170  1  0.01579000  0.98849000  0.31956800  1
  C  171  1  0.01583700  0.03133600  0.32248900  1
  C  172  1  0.02118600  0.04633500  0.33848200  1
  C  173  1  0.02559600  0.01632300  0.35094900  1
  C  175  1  0.02337200  0.97373500  0.34736500  1
  C  177  1  0.01164000  0.05825400  0.30817600  1
  C  181  1  0.03172400  0.02772800  0.36805700  1
  C  185  1  0.02067800  0.91665600  0.32779800  1
  C  187  1  0.02159600  0.08915400  0.34231300  1
  C  189  1  0.05335100  0.13562000  0.12314600  1
  C  190  1  0.15286200  0.14973000  0.13389700  1
  C  191  1  0.13079700  0.18358400  0.14412000  1
  C  192  1  0.99877700  0.20175900  0.14484200  1
  C  193  1  0.89620400  0.18735200  0.13420600  1
  C  195  1  0.92765400  0.15638700  0.12296800  1
  C  197  1  0.24335500  0.19601100  0.15495700  1
  C  201  1  0.75606100  0.20468000  0.13348100  1
  C  205  1  0.07700800  0.09976100  0.11409700  1
  C  207  1  0.96610100  0.22666400  0.15804900  1
  C  209  1  0.05602400  0.88102700  0.89322700  1
  C  210  1  0.15562600  0.86664600  0.88254200  1
  C  211  1  0.13317500  0.83279300  0.87232900  1
  C  212  1  0.00066800  0.81497700  0.87152400  1
  C  213  1  0.89799100  0.82964300  0.88209800  1
  C  215  1  0.92983000  0.86053000  0.89335500  1
  C  217  1  0.24590700  0.81999100  0.86158600  1
  C  221  1  0.75732100  0.81267300  0.88275300  1
  C  225  1  0.07992900  0.91691000  0.90225100  1
  C  227  1  0.96773200  0.78993800  0.85835500  1
  C  229  1  0.05536000  0.90978900  0.12760200  1
  C  230  1  0.04911200  0.91614700  0.14407400  1
  C  231  1  0.04789300  0.88385500  0.15525000  1
  C  232  1  0.05631800  0.84179700  0.15009100  1
  C  233  1  0.06370700  0.83485700  0.13327200  1
  C  235  1  0.06099400  0.86867900  0.12253200  1
  C  237  1  0.03599200  0.89681500  0.17222900  1
  C  241  1  0.07650400  0.79414900  0.12532900  1
  C  245  1  0.05456200  0.94473400  0.11755100  1
  C  247  1  0.05627400  0.81052400  0.16204000  1
  C  249  1  0.05539400  0.10693000  0.88869100  1
  C  250  1  0.04956200  0.10057100  0.87221900  1
  C  251  1  0.04858900  0.13286300  0.86104500  1
  C  252  1  0.05671700  0.17492100  0.86620800  1
  C  253  1  0.06370000  0.18186500  0.88303000  1
  C  255  1  0.06083200  0.14803900  0.89376800  1
  C  257  1  0.03740400  0.11989900  0.84405900  1
  C  261  1  0.07615300  0.22257200  0.89098100  1
  C  265  1  0.05456100  0.07198800  0.89874200  1
  C  267  1  0.05676700  0.20619900  0.85426200  1
  C  269  1  0.02626700  0.63241000  0.62430800  1
  C  270  1  0.12569500  0.64615600  0.63514900  1
  C  271  1  0.10594300  0.68080300  0.64503900  1
  C  272  1  0.97605200  0.70038000  0.64533000  1
  C  273  1  0.87348900  0.68633600  0.63462400  1
  C  275  1  0.90313000  0.65448000  0.62368300  1
  C  277  1  0.21832300  0.69287200  0.65596000  1
  C  281  1  0.73530800  0.70489700  0.63356700  1
  C  285  1  0.04797600  0.59598100  0.61551900  1
  C  287  1  0.94430100  0.72587200  0.65840100  1
  C  289  1  0.02742000  0.38422900  0.39208200  1
  C  290  1  0.12738700  0.36993000  0.38141800  1
  C  291  1  0.10711500  0.33524600  0.37156100  1
  C  292  1  0.97626100  0.31628600  0.37107100  1
  C  293  1  0.87319900  0.33090000  0.38160500  1
  C  295  1  0.90320100  0.36269900  0.39255800  1
  C  297  1  0.22015200  0.32252400  0.36084700  1
  C  301  1  0.73398700  0.31297100  0.38250100  1
  C  305  1  0.04956200  0.42070700  0.40082500  1
  C  307  1  0.94448600  0.29056200  0.35806400  1
  C  309  1  0.01866600  0.39873500  0.62356000  1
  C  310  1  0.91739500  0.38540300  0.63424900  1
  C  311  1  0.93514400  0.35107800  0.64434200  1
  C  312  1  0.06469400  0.33137300  0.64500100  1
  C  313  1  0.16908800  0.34491900  0.63443700  1
  C  315  1  0.14161600  0.37650900  0.62329600  1
  C  317  1  0.82077500  0.33943900  0.65505600  1
  C  321  1  0.30700900  0.32608200  0.63374200  1
  C  325  1  0.99845800  0.43506000  0.61465500  1
  C  327  1  0.09282100  0.30570500  0.65813400  1
  C  329  1  0.01918400  0.61809900  0.39276100  1
  C  330  1  0.91772500  0.63159400  0.38212900  1
  C  331  1  0.93570200  0.66588000  0.37202300  1
  C  332  1  0.06558900  0.68535800  0.37128300  1
  C  333  1  0.17006800  0.67169500  0.38181700  1
  C  335  1  0.14243300  0.64017200  0.39298400  1
  C  337  1  0.82111100  0.67772100  0.36137600  1
  C  341  1  0.30832600  0.69032900  0.38245700  1
  C  345  1  0.99886400  0.58175600  0.40164700  1
  C  347  1  0.09387200  0.71092100  0.35812100  1
  C  349  1  0.93232800  0.27649000  0.24270000  1
  C  350  1  0.82389100  0.28131300  0.25345100  1
  C  351  1  0.82522900  0.26275700  0.26860500  1
  C  352  1  0.94139500  0.23965000  0.27338900  1
  C  353  1  0.05340700  0.23526100  0.26275500  1
  C  355  1  0.04655800  0.25370700  0.24760800  1
  C  357  1  0.70424300  0.26782800  0.27904900  1
  C  361  1  0.18145000  0.21271000  0.26652000  1
  C  365  1  0.93229400  0.29751900  0.22842300  1
  C  367  1  0.94086700  0.21825300  0.28763200  1
  C  369  1  0.93268900  0.74027800  0.77366300  1
  C  370  1  0.82417100  0.73542900  0.76292700  1
  C  371  1  0.82533100  0.75396600  0.74776900  1
  C  372  1  0.94140500  0.77708400  0.74296400  1
  C  373  1  0.05351900  0.78149800  0.75358500  1
  C  375  1  0.04684300  0.76307200  0.76873600  1
  C  377  1  0.70426600  0.74885300  0.73734000  1
  C  381  1  0.18151100  0.80405500  0.74979800  1
  C  385  1  0.93292800  0.71924200  0.78794000  1
  C  387  1  0.94073300  0.79847300  0.72872200  1
  C  389  1  0.08454800  0.73922600  0.24332700  1
  C  390  1  0.19364200  0.73415900  0.25398500  1
  C  391  1  0.19213300  0.75146900  0.26936700  1
  C  392  1  0.07523500  0.77372600  0.27452400  1
  C  393  1  0.96279400  0.77846200  0.26395500  1
  C  395  1  0.96984300  0.76128400  0.24857000  1
  C  397  1  0.31430700  0.74620000  0.27961500  1
  C  401  1  0.83404900  0.80026800  0.26801800  1
  C  405  1  0.08799900  0.72042900  0.22854400  1
  C  407  1  0.07529500  0.79383900  0.28910000  1
  C  409  1  0.08458400  0.27747600  0.77298000  1
  C  410  1  0.19353500  0.28255300  0.76230200  1
  C  411  1  0.19184300  0.26525300  0.74692000  1
  C  412  1  0.07491900  0.24298300  0.74178200  1
  C  413  1  0.96263700  0.23821800  0.75237300  1
  C  415  1  0.96986800  0.25539100  0.76775700  1
  C  417  1  0.31385900  0.27055400  0.73664800  1
  C  421  1  0.83386800  0.21639300  0.74833200  1
  C  425  1  0.08816100  0.29628300  0.78776000  1
  C  427  1  0.07483700  0.22285500  0.72720800  1
  C  429  1  0.00612600  0.01564900  0.99125000  1
  C  430  1  0.12709800  0.00391700  0.99898400  1
  C  431  1  0.13221400  0.99660500  0.01555100  1
  C  432  1  0.01218300  0.00117800  0.02495200  1
  C  433  1  0.88904300  0.01317500  0.01724200  1
  C  435  1  0.88900200  0.02074500  0.00067900  1
  C  437  1  0.26509000  0.98491400  0.02276300  1
  C  441  1  0.75616000  0.01814600  0.02550500  1
  C  445  1  0.00507900  0.02559200  0.97515200  1
  C  447  1  0.01564700  0.99136400  0.04115600  1
  C  449  1  0.02913400  0.51453100  0.49117700  1
  C  450  1  0.15050800  0.50490400  0.49924400  1
  C  451  1  0.15410100  0.49851900  0.51587400  1
  C  452  1  0.03233400  0.50231900  0.52501000  1
  C  453  1  0.90879000  0.51232900  0.51697200  1
  C  455  1  0.91007300  0.51879800  0.50034100  1
  C  457  1  0.28700700  0.48850800  0.52343600  1
  C  461  1  0.77427900  0.51633200  0.52495600  1
  C  465  1  0.02946800  0.52419500  0.47506200  1
  C  467  1  0.03405200  0.49284200  0.54124100  1
  H  114  1  0.03426500  0.53787700  0.20850400  1
  H  116  1  0.07136200  0.56307500  0.16037700  1
  H  118  1  0.02326000  0.47495500  0.21961100  1
  H  119  1  0.11562700  0.43761500  0.20930400  1
  H  120  1  0.93473900  0.43993700  0.20775700  1
  H  122  1  0.16707400  0.46934300  0.14701600  1
  H  123  1  0.08442000  0.51438100  0.14085000  1
  H  124  1  0.98690600  0.47057600  0.14511000  1
  H  126  1  0.04722200  0.60669300  0.20063100  1
  H  128  1  0.05985500  0.41744100  0.16299800  1
  H  134  1  0.03505300  0.47884100  0.80780900  1
  H  136  1  0.07268300  0.45363100  0.85592800  1
  H  138  1  0.02411400  0.54176900  0.79670200  1
  H  139  1  0.11667900  0.57908800  0.80699600  1
  H  140  1  0.93580500  0.57680300  0.80857200  1
  H  142  1  0.16885800  0.54733600  0.86927300  1
  H  143  1  0.08616400  0.50231900  0.87545300  1
  H  144  1  0.98871100  0.54615200  0.87121300  1
  H  146  1  0.04791500  0.41002500  0.81567800  1
  H  148  1  0.06152900  0.59926500  0.85331200  1
  H  154  1  0.01177700  0.03840100  0.70820600  1
  H  156  1  0.02524000  0.06391800  0.65994500  1
  H  158  1  0.01015500  0.97529300  0.71929200  1
  H  159  1  0.09992100  0.93858100  0.70834900  1
  H  160  1  0.91847600  0.93979300  0.70798100  1
  H  162  1  0.12135500  0.97094700  0.64595700  1
  H  163  1  0.03266000  0.01540600  0.64032400  1
  H  164  1  0.94054200  0.97091000  0.64511100  1
  H  166  1  0.02260900  0.10757800  0.70028400  1
  H  168  1  0.02552500  0.91824100  0.66248800  1
  H  174  1  0.01270100  0.97825900  0.30811000  1
  H  176  1  0.02674400  0.95276900  0.35637100  1
  H  178  1  0.01105500  0.04136100  0.29701900  1
  H  179  1  0.10095700  0.07807600  0.30794400  1
  H  180  1  0.91951300  0.07686800  0.30833900  1
  H  182  1  0.12315300  0.04573700  0.37033300  1
  H  183  1  0.03449800  0.00129100  0.37598600  1
  H  184  1  0.94235100  0.04579100  0.37121100  1
  H  186  1  0.02352400  0.90908900  0.31603600  1
  H  188  1  0.02710000  0.09844100  0.35381500  1
  H  194  1  0.24516400  0.13518800  0.13411400  1
  H  196  1  0.85274100  0.14598500  0.11556100  1
  H  198  1  0.33660300  0.17851500  0.15306300  1
  H  199  1  0.21277400  0.19158400  0.16724900  1
  H  200  1  0.26764500  0.22829300  0.15307700  1
  H  202  1  0.74096400  0.23105400  0.14119100  1
  H  203  1  0.68266700  0.18109600  0.13680600  1
  H  204  1  0.73372900  0.21481900  0.12144500  1
  H  206  1  0.15360400  0.08064600  0.11774400  1
  H  208  1  0.87677600  0.22112300  0.16388800  1
  H  214  1  0.24827500  0.88099000  0.88236800  1
  H  216  1  0.85474700  0.87116700  0.90068700  1
  H  218  1  0.33949200  0.83729500  0.86351400  1
  H  219  1  0.21602200  0.82435900  0.84926700  1
  H  220  1  0.26930200  0.78767500  0.86353300  1
  H  222  1  0.74176100  0.78631000  0.87505000  1
  H  223  1  0.68474100  0.83643600  0.87937600  1
  H  224  1  0.73420400  0.80263500  0.89478100  1
  H  226  1  0.15660700  0.93599000  0.89860000  1
  H  228  1  0.87888100  0.79585100  0.85247200  1
  H  234  1  0.04368500  0.94574600  0.14811600  1
  H  236  1  0.06599600  0.86337300  0.11059500  1
  H  238  1  0.02775500  0.92993900  0.17391000  1
  H  239  1  0.12559300  0.88680800  0.17878900  1
  H  240  1  0.94518200  0.88321000  0.17747200  1
  H  242  1  0.08848700  0.76823300  0.13316300  1
  H  243  1  0.16546300  0.79418900  0.11759200  1
  H  244  1  0.98635800  0.78854000  0.11810800  1
  H  246  1  0.05146100  0.97249900  0.12322000  1
  H  248  1  0.05504000  0.82026400  0.17346600  1
  H  254  1  0.04439300  0.07096900  0.86817500  1
  H  256  1  0.06558400  0.15334100  0.90570600  1
  H  258  1  0.02951800  0.08676800  0.84237300  1
  H  259  1  0.12714900  0.12997900  0.83754400  1
  H  260  1  0.94666100  0.13343300  0.83877300  1
  H  262  1  0.08817700  0.24850000  0.88315300  1
  H  263  1  0.16495400  0.22256300  0.89874300  1
  H  264  1  0.98583400  0.22814100  0.89817700  1
  H  266  1  0.05173700  0.04421600  0.89307700  1
  H  268  1  0.05561900  0.19646500  0.84283600  1
  H  274  1  0.21639700  0.63077200  0.63566800  1
  H  276  1  0.82823700  0.64443200  0.61620200  1
  H  278  1  0.31032400  0.67463300  0.65430400  1
  H  279  1  0.18610400  0.68918500  0.66823300  1
  H  280  1  0.24530600  0.72489700  0.65392200  1
  H  282  1  0.72184600  0.73156500  0.64117100  1
  H  283  1  0.65911800  0.68207600  0.63683100  1
  H  284  1  0.71574800  0.71493600  0.62145500  1
  H  286  1  0.12293900  0.57657900  0.61939800  1
  H  288  1  0.85553600  0.72040400  0.66436900  1
  H  294  1  0.21883200  0.38492800  0.38101300  1
  H  296  1  0.82783000  0.37318800  0.39988300  1
  H  298  1  0.31273100  0.34044200  0.36258900  1
  H  299  1  0.18946400  0.32608800  0.34851600  1
  H  300  1  0.24555200  0.29044200  0.36302000  1
  H  302  1  0.71995600  0.28624700  0.37494300  1
  H  303  1  0.65930100  0.33608700  0.37907700  1
  H  304  1  0.71262800  0.30320900  0.39460700  1
  H  306  1  0.12536000  0.43989700  0.39701500  1
  H  308  1  0.85636700  0.29625100  0.35199400  1
  H  314  1  0.82678300  0.40087900  0.63451000  1
  H  316  1  0.21775600  0.38625900  0.61593000  1
  H  318  1  0.72935700  0.35777000  0.65313400  1
  H  319  1  0.85106900  0.34337400  0.66738400  1
  H  320  1  0.79357800  0.30740400  0.65307700  1
  H  322  1  0.31896100  0.29970100  0.64152500  1
  H  323  1  0.38320300  0.34889700  0.63701000  1
  H  324  1  0.32796500  0.31554100  0.62172400  1
  H  326  1  0.92307600  0.45446800  0.61842600  1
  H  328  1  0.18083100  0.31047400  0.66433000  1
  H  334  1  0.82688500  0.61623500  0.38190700  1
  H  336  1  0.21880200  0.63028800  0.40029200  1
  H  338  1  0.72944300  0.65953700  0.36334500  1
  H  339  1  0.85081800  0.67374900  0.34903100  1
  H  340  1  0.79456500  0.70979500  0.36337700  1
  H  342  1  0.32042400  0.71672700  0.37468600  1
  H  343  1  0.38403200  0.66741300  0.37913800  1
  H  344  1  0.32988700  0.70079100  0.39447000  1
  H  346  1  0.92324500  0.56239100  0.39791200  1
  H  348  1  0.18209200  0.70618600  0.35197300  1
  H  354  1  0.74146300  0.29842300  0.25007500  1
  H  356  1  0.12791000  0.25115000  0.24008500  1
  H  358  1  0.62303300  0.28557200  0.27350800  1
  H  359  1  0.73362600  0.28369100  0.28988500  1
  H  360  1  0.66273700  0.23780800  0.28210100  1
  H  362  1  0.18452100  0.20038900  0.27849200  1
  H  363  1  0.26830600  0.23330600  0.26525000  1
  H  364  1  0.19385100  0.18713000  0.25831100  1
  H  366  1  0.91376000  0.32752700  0.22876300  1
  H  368  1  0.94107100  0.18777000  0.28700400  1
  H  374  1  0.74183700  0.71829100  0.76631300  1
  H  376  1  0.12829100  0.76563200  0.77624300  1
  H  378  1  0.62314000  0.73110500  0.74289600  1
  H  379  1  0.73359500  0.73297500  0.72650400  1
  H  380  1  0.66268400  0.77886300  0.73428500  1
  H  382  1  0.18445900  0.81635700  0.73782200  1
  H  383  1  0.26839700  0.78346700  0.75106000  1
  H  384  1  0.19397200  0.82964600  0.75799800  1
  H  386  1  0.91462400  0.68922200  0.78759700  1
  H  388  1  0.94090300  0.82895900  0.72934700  1
  H  394  1  0.27720000  0.71794400  0.25034000  1
  H  396  1  0.88850600  0.76436300  0.24107800  1
  H  398  1  0.39637600  0.72955300  0.27374900  1
  H  399  1  0.28697700  0.72909300  0.29024000  1
  H  400  1  0.35391800  0.77617100  0.28305800  1
  H  402  1  0.83060400  0.81150200  0.28014700  1
  H  403  1  0.74787700  0.77953200  0.26648300  1
  H  404  1  0.82074100  0.82651800  0.26015100  1
  H  406  1  0.11863700  0.69135400  0.22803400  1
  H  408  1  0.06990800  0.82431300  0.28896500  1
  H  414  1  0.27707700  0.29880300  0.76593000  1
  H  416  1  0.88861700  0.25230600  0.77526100  1
  H  418  1  0.39597900  0.28721300  0.74250100  1
  H  419  1  0.28633600  0.28766600  0.72603100  1
  H  420  1  0.35348100  0.24059600  0.73319400  1
  H  422  1  0.83025400  0.20517400  0.73620200  1
  H  423  1  0.74768100  0.23711200  0.74989000  1
  H  424  1  0.82074100  0.19013100  0.75619800  1
  H  426  1  0.11877200  0.32535800  0.78826400  1
  H  428  1  0.06928800  0.19238300  0.72734500  1
  H  434  1  0.21391100  0.00112000  0.99237800  1
  H  436  1  0.80060200  0.02982000  0.99529000  1
  H  438  1  0.34776500  0.98362900  0.01415700  1
  H  439  1  0.25691900  0.95470700  0.02824100  1
  H  440  1  0.29316600  0.00728400  0.03179700  1
  H  442  1  0.76008000  0.01106600  0.03808300  1
  H  443  1  0.68079700  0.99781000  0.02017400  1
  H  444  1  0.72116500  0.04976400  0.02428000  1
  H  446  1  0.99896000  0.05503900  0.97219700  1
  H  448  1  0.03082900  0.96222500  0.04412800  1
  H  454  1  0.23857900  0.50280900  0.49282800  1
  H  456  1  0.82140600  0.52657800  0.49471500  1
  H  458  1  0.37101800  0.48756100  0.51500000  1
  H  459  1  0.28115900  0.45853800  0.52914300  1
  H  460  1  0.31134900  0.51161500  0.53233900  1
  H  462  1  0.77760200  0.51044600  0.53762700  1
  H  463  1  0.70247600  0.49460500  0.51977900  1
  H  464  1  0.73509900  0.54735400  0.52326100  1
  H  466  1  0.03003800  0.55372100  0.47213000  1
  H  468  1  0.04520100  0.46354000  0.54422300  1
  N  2  1  0.03071200  0.33018600  0.17192600  1
  N  4  1  0.99421500  0.33792400  0.19909000  1
  N  6  1  0.97889700  0.27301000  0.18772600  1
  N  7  1  0.02061700  0.26450500  0.16025600  1
  N  8  1  0.96030900  0.28009200  0.21512300  1
  N  9  1  0.03138400  0.39640100  0.18504200  1
  N  11  1  0.03233500  0.68650800  0.84440300  1
  N  13  1  0.99535300  0.67881600  0.81724900  1
  N  15  1  0.98014900  0.74371000  0.82863500  1
  N  16  1  0.02236200  0.75214400  0.85610200  1
  N  17  1  0.96106600  0.73666800  0.80123700  1
  N  18  1  0.03277200  0.62031400  0.83127400  1
  N  20  1  0.05779400  0.70016200  0.17002900  1
  N  22  1  0.05820100  0.68526600  0.19707900  1
  N  24  1  0.05716900  0.75317400  0.18865500  1
  N  25  1  0.05688400  0.76887100  0.16104500  1
  N  26  1  0.05853500  0.73954200  0.21563700  1
  N  27  1  0.05706100  0.63090400  0.17839600  1
  N  29  1  0.05847500  0.31655600  0.84627900  1
  N  31  1  0.05877000  0.33145200  0.81922900  1
  N  33  1  0.05761100  0.26354600  0.82765300  1
  N  34  1  0.05741600  0.24784900  0.85526100  1
  N  35  1  0.05884000  0.27717200  0.80067200  1
  N  36  1  0.05790100  0.38581100  0.83791300  1
  N  38  1  0.00617500  0.83029900  0.67159800  1
  N  40  1  0.97730200  0.83836500  0.69886100  1
  N  42  1  0.96194600  0.77319600  0.68774600  1
  N  43  1  0.99717300  0.76409000  0.66020500  1
  N  44  1  0.94947700  0.78053800  0.71516500  1
  N  45  1  0.00649100  0.89683700  0.68460700  1
  N  47  1  0.00742700  0.18633900  0.34472500  1
  N  49  1  0.97818100  0.17833300  0.31746700  1
  N  51  1  0.96254500  0.24346800  0.32861400  1
  N  52  1  0.99802500  0.25246500  0.35616200  1
  N  53  1  0.94981000  0.23617900  0.30119000  1
  N  54  1  0.00778300  0.11983400  0.33169800  1
  N  56  1  0.02669400  0.20001700  0.66906400  1
  N  58  1  0.04824000  0.18676300  0.69607600  1
  N  60  1  0.06820600  0.25388000  0.68675800  1
  N  61  1  0.04029200  0.26731300  0.65923200  1
  N  62  1  0.07387200  0.24210100  0.71388300  1
  N  63  1  0.01962700  0.13151100  0.67798000  1
  N  65  1  0.02788100  0.81665400  0.34725300  1
  N  67  1  0.04914400  0.82991900  0.32023700  1
  N  69  1  0.06911500  0.76279900  0.32954700  1
  N  70  1  0.04142000  0.74933200  0.35706900  1
  N  71  1  0.07448100  0.77458800  0.30242400  1
  N  72  1  0.02079400  0.88516400  0.33834000  1
  N  74  1  0.00763000  0.05276200  0.07602000  1
  N  76  1  0.04434800  0.01902800  0.09984700  1
  N  78  1  0.03198900  0.98116600  0.07651500  1
  N  79  1  0.00764400  0.01868300  0.05215800  1
  N  80  1  0.05164500  0.94648500  0.10141800  1
  N  81  1  0.02005800  0.09121500  0.09981000  1
  N  83  1  0.01132500  0.96396700  0.94034100  1
  N  85  1  0.04576000  0.99770900  0.91647200  1
  N  87  1  0.03299300  0.03563700  0.93979200  1
  N  88  1  0.01255900  0.99817500  0.96418800  1
  N  89  1  0.05163300  0.07026700  0.91487400  1
  N  90  1  0.02331400  0.92547000  0.91655500  1
  N  92  1  0.00335100  0.55192400  0.57666900  1
  N  94  1  0.02468200  0.51565700  0.60031200  1
  N  96  1  0.04672500  0.48127900  0.57619800  1
  N  97  1  0.02421500  0.52011000  0.55226000  1
  N  98  1  0.05224900  0.44338700  0.60016500  1
  N  99  1  0.99654100  0.58807100  0.60089400  1
  N  101  1  0.00502800  0.46489600  0.43965200  1
  N  103  1  0.02559500  0.50114400  0.41599200  1
  N  105  1  0.04757900  0.53558300  0.44009900  1
  N  106  1  0.02677500  0.49677100  0.46405200  1
  N  107  1  0.05279800  0.57343200  0.41612800  1
  N  108  1  0.99789300  0.42871500  0.41543300  1
