# generated using pymatgen
data_H11C14N4O3
_symmetry_space_group_name_H-M   'P 1'
_cell_length_a   15.62857500
_cell_length_b   15.62860000
_cell_length_c   93.77150000
_cell_angle_alpha   90.00000000
_cell_angle_beta   90.00000000
_cell_angle_gamma   120.00015875
_symmetry_Int_Tables_number   1
_chemical_formula_structural   H11C14N4O3
_chemical_formula_sum   'H132 C168 N48 O36'
_cell_volume   19835.36777639
_cell_formula_units_Z   12
loop_
 _symmetry_equiv_pos_site_id
 _symmetry_equiv_pos_as_xyz
  1  'x, y, z'
loop_
 _atom_site_type_symbol
 _atom_site_label
 _atom_site_symmetry_multiplicity
 _atom_site_fract_x
 _atom_site_fract_y
 _atom_site_fract_z
 _atom_site_occupancy
  C  2  1  0.97849550  0.98325650  0.90572400  1
  C  3  1  0.88788150  0.89517350  0.90898500  1
  C  4  1  0.82374150  0.82871650  0.89853700  1
  C  5  1  0.84908050  0.84951950  0.88403300  1
  C  6  1  0.93601950  0.93614050  0.87996100  1
  C  9  1  0.97552150  0.93331450  0.24947800  1
  C  10  1  0.97332800  0.80055700  0.27118500  1
  C  11  1  0.97574250  0.77880750  0.25666200  1
  C  12  1  0.97765350  0.84506150  0.24621100  1
  C  14  1  0.97564200  0.99872900  0.23848200  1
  C  15  1  0.97772850  0.08910550  0.24175700  1
  C  16  1  0.97632400  0.15372600  0.23131000  1
  C  17  1  0.97310700  0.12913400  0.21679500  1
  C  24  1  0.92710250  0.00132450  0.58313100  1
  C  25  1  0.94730950  0.00448650  0.59810200  1
  C  26  1  0.88391700  0.00469800  0.60891800  1
  C  27  1  0.83650550  0.99873850  0.57986500  1
  C  30  1  0.97029200  0.94320200  0.38961700  1
  C  31  1  0.97070600  0.88060800  0.37867800  1
  C  33  1  0.97035450  0.03118750  0.44146600  1
  C  34  1  0.96773450  0.96757550  0.43052200  1
  C  39  1  0.98015850  0.98319050  0.08278100  1
  C  40  1  0.88776750  0.89661150  0.07969700  1
  C  41  1  0.82470250  0.83002150  0.09025200  1
  C  42  1  0.85230400  0.85044200  0.10471000  1
  C  43  1  0.94188900  0.93496200  0.10853100  1
  C  46  1  0.92266300  0.00352700  0.73813100  1
  C  47  1  0.94346450  0.00617350  0.72320600  1
  C  48  1  0.88042850  0.00567950  0.71226300  1
  C  49  1  0.83173500  0.00068900  0.74124500  1
  C  53  1  0.91990800  0.01497400  0.00119000  1
  C  55  1  0.83237000  0.09140300  0.00893100  1
  C  60  1  0.92056250  0.88576650  0.32027400  1
  C  63  1  0.95943950  0.91311750  0.66770800  1
  C  64  1  0.94857950  0.98339850  0.67587400  1
  C  66  1  0.88333250  0.74915150  0.67544600  1
  C  70  1  0.95619250  0.98810950  0.69070600  1
  C  72  1  0.97515100  0.42994200  0.25748300  1
  C  73  1  0.97730850  0.37746750  0.24532000  1
  C  75  1  0.87869350  0.34849550  0.27743700  1
  C  79  1  0.97748250  0.28763550  0.24617300  1
  C  81  1  0.97735150  0.54955950  0.41134200  1
  C  83  1  0.97550050  0.49606850  0.42363800  1
  C  85  1  0.87790350  0.48259750  0.44337800  1
  C  89  1  0.97659400  0.63922800  0.41197400  1
  C  92  1  0.95134000  0.88676100  0.82342500  1
  C  95  1  0.93121250  0.04182750  0.15556000  1
  C  96  1  0.97001900  0.00107100  0.14572300  1
  C  98  1  0.97036900  0.01468900  0.13101000  1
  C  100  1  0.97186750  0.00649350  0.50916100  1
  C  102  1  0.89483900  0.96969500  0.49890900  1
  C  103  1  0.95608450  0.99843350  0.52388900  1
  C  209  1  0.97258950  0.95043850  0.26445200  1
  C  210  1  0.97206550  0.88665850  0.27526700  1
  C  212  1  0.97286850  0.04226450  0.21270500  1
  C  213  1  0.97328400  0.97892100  0.22350400  1
  C  217  1  0.97559450  0.00496050  0.55716700  1
  C  218  1  0.97285400  0.92501400  0.40454500  1
  C  219  1  0.97095350  0.79368650  0.38263500  1
  C  220  1  0.97432750  0.77138650  0.39712200  1
  C  221  1  0.97559800  0.83687700  0.40766100  1
  C  223  1  0.97300550  0.98993650  0.41562200  1
  C  224  1  0.97797600  0.08198000  0.41257200  1
  C  225  1  0.97752700  0.14637800  0.42317300  1
  C  226  1  0.97504400  0.12080000  0.43765600  1
  C  232  1  0.97035800  0.00867300  0.76411000  1
  C  234  1  0.94886400  0.98747200  0.64575100  1
  C  236  1  0.93640950  0.05696950  0.65389800  1
  C  238  1  0.95650850  0.98791950  0.63093000  1
  C  240  1  0.97811850  0.55692950  0.24261300  1
  C  242  1  0.98029300  0.50448100  0.23044700  1
  C  244  1  0.97800050  0.64677950  0.24177600  1
  C  247  1  0.98195250  0.42494450  0.39681900  1
  C  248  1  0.98007050  0.37141650  0.40911100  1
  C  249  1  0.98052400  0.28159100  0.40844300  1
  C  252  1  0.95854750  0.74104350  0.82139600  1
  C  256  1  0.97825250  0.97652250  0.17548100  1
  C  257  1  0.97904650  0.96482350  0.19023700  1
  C  310  1  0.79636450  0.00306650  0.60484000  1
  C  311  1  0.77211000  0.00051900  0.59031900  1
  C  317  1  0.79318300  0.00527800  0.71621900  1
  C  318  1  0.76749750  0.00189950  0.73070500  1
  C  323  1  0.75560900  0.79601500  0.31284500  1
  C  329  1  0.78446100  0.04136600  0.15044600  1
  C  334  1  0.75063650  0.81727650  0.50205300  1
  C  374  1  0.62843750  0.53767450  0.94471100  1
  C  377  1  0.68932150  0.69644650  0.91339000  1
  C  378  1  0.63775450  0.99813450  0.57543400  1
  C  380  1  0.68783950  0.69958650  0.07552600  1
  C  382  1  0.63305100  0.99960100  0.74555600  1
  C  401  1  0.04361200  0.04871300  0.91672800  1
  C  402  1  0.02626700  0.02860500  0.93169500  1
  C  403  1  0.08969950  0.09196350  0.94252800  1
  C  404  1  0.17580000  0.17941600  0.93846700  1
  C  405  1  0.19782200  0.20361000  0.92394800  1
  C  406  1  0.13178250  0.13921150  0.91348000  1
  C  408  1  0.99893650  0.00029550  0.89075500  1
  C  424  1  0.99254500  0.00152900  0.57213900  1
  C  425  1  0.08052150  0.99883550  0.57541500  1
  C  426  1  0.14695750  0.00102850  0.56497200  1
  C  427  1  0.12624650  0.00557550  0.55046600  1
  C  428  1  0.03972250  0.00604150  0.54638100  1
  C  451  1  0.04446750  0.04879650  0.07173500  1
  C  452  1  0.02649000  0.02823700  0.05680000  1
  C  453  1  0.08893150  0.09181250  0.04589400  1
  C  454  1  0.17541900  0.17923400  0.04989800  1
  C  455  1  0.19746650  0.20456650  0.06439600  1
  C  456  1  0.13207250  0.13997050  0.07491000  1
  C  458  1  0.00394100  0.99854300  0.09765700  1
  C  465  1  0.98743350  0.00338050  0.74920800  1
  C  466  1  0.07448650  0.99836750  0.74615900  1
  C  467  1  0.13932900  0.99880500  0.75676000  1
  C  468  1  0.11624350  0.00131250  0.77124300  1
  C  469  1  0.03133550  0.00603350  0.77505300  1
  C  476  1  0.00591000  0.02641900  0.97930300  1
  C  477  1  0.00042650  0.02496050  0.00942500  1
  C  479  1  0.08724650  0.03799850  0.98752200  1
  C  481  1  0.17470200  0.96043800  0.98006400  1
  C  485  1  0.99943250  0.01949650  0.96447400  1
  C  487  1  0.99666000  0.01633100  0.02424500  1
  C  488  1  0.98904250  0.96834350  0.31213200  1
  C  490  1  0.06291550  0.05352050  0.33409400  1
  C  491  1  0.99368550  0.97170050  0.34225500  1
  C  493  1  0.22694500  0.14336300  0.34175800  1
  C  497  1  0.98829450  0.97569650  0.29731500  1
  C  499  1  0.98964050  0.97419850  0.35709200  1
  C  505  1  0.01378950  0.22188750  0.64640100  1
  C  511  1  0.41992250  0.42777250  0.90989300  1
  C  513  1  0.54685300  0.55212800  0.92473200  1
  C  514  1  0.59945800  0.60644700  0.91255500  1
  C  516  1  0.47250000  0.48208600  0.89771400  1
  C  519  1  0.39005700  0.49531700  0.87774900  1
  C  524  1  0.33004700  0.33779700  0.90907400  1
  C  530  1  0.07654100  0.58717200  0.21053700  1
  C  536  1  0.54777150  0.99798950  0.57627000  1
  C  538  1  0.42358700  0.00065400  0.59113900  1
  C  539  1  0.36913900  0.99886200  0.57897300  1
  C  541  1  0.49331500  0.99614500  0.56410300  1
  C  544  1  0.48001000  0.90030400  0.54415500  1
  C  548  1  0.43843700  0.09677600  0.61112700  1
  C  552  1  0.27917450  0.99877350  0.57982700  1
  C  558  1  0.07911550  0.43858750  0.37702500  1
  C  564  1  0.41962150  0.42890450  0.07859100  1
  C  566  1  0.54355800  0.55811900  0.06398500  1
  C  567  1  0.59794250  0.60942750  0.07624000  1
  C  569  1  0.47395900  0.48022000  0.09084800  1
  C  572  1  0.48845550  0.39585250  0.11047800  1
  C  576  1  0.52868750  0.64105650  0.04421200  1
  C  580  1  0.32986150  0.33861950  0.07927100  1
  C  582  1  0.54262550  0.99884950  0.74492500  1
  C  584  1  0.41339950  0.99424350  0.73040300  1
  C  585  1  0.36177500  0.99616200  0.74269700  1
  C  587  1  0.49101050  0.00074250  0.75722100  1
  C  590  1  0.57527050  0.09843450  0.77694600  1
  C  593  1  0.32993850  0.89708350  0.71060500  1
  C  597  1  0.27150700  0.99573000  0.74202900  1
  C  599  1  0.00466550  0.00421850  0.84275100  1
  C  600  1  0.99177250  0.96383650  0.81319600  1
  C  602  1  0.04510400  0.08131100  0.83250900  1
  C  604  1  0.03717350  0.22567950  0.83563800  1
  C  612  1  0.01222350  0.01991050  0.85748100  1
  C  614  1  0.98960250  0.94527550  0.79862100  1
  C  618  1  0.01677300  0.93551800  0.16563900  1
  C  620  1  0.16356150  0.93533750  0.17045500  1
  C  627  1  0.08944500  0.07062200  0.48984900  1
  C  628  1  0.01242800  0.03386100  0.47961000  1
  C  630  1  0.23514200  0.22358200  0.48783700  1
  C  634  1  0.03107400  0.05017700  0.46503700  1
  H  1  1  0.96723450  0.96493950  0.93520400  1
  H  7  1  0.86521950  0.87727550  0.91923500  1
  H  19  1  0.90338950  0.17017550  0.20467500  1
  H  20  1  0.98116400  0.82655000  0.23595200  1
  H  21  1  0.98137050  0.11118250  0.25201800  1
  H  28  1  0.91649450  0.00936350  0.55362300  1
  H  32  1  0.96563050  0.00248250  0.38624300  1
  H  35  1  0.96100400  0.90267200  0.43392500  1
  H  38  1  0.96786050  0.96381450  0.05340800  1
  H  44  1  0.86313350  0.88024850  0.06950200  1
  H  50  1  0.91220250  0.01543950  0.76751000  1
  H  56  1  0.83796400  0.12708300  0.99867300  1
  H  57  1  0.89168850  0.14280950  0.01596600  1
  H  58  1  0.93104850  0.99054550  0.02885500  1
  H  67  1  0.90105600  0.69675500  0.68038200  1
  H  68  1  0.84835600  0.71896600  0.66515300  1
  H  69  1  0.83128800  0.75669400  0.68239100  1
  H  76  1  0.84796600  0.39754100  0.27841600  1
  H  77  1  0.88547400  0.32493100  0.28811500  1
  H  78  1  0.82786000  0.28284100  0.27134500  1
  H  80  1  0.97670550  0.25797250  0.25591700  1
  H  86  1  0.84679300  0.40283500  0.44446300  1
  H  87  1  0.82765750  0.49738450  0.43712600  1
  H  88  1  0.88413200  0.51353300  0.45400100  1
  H  90  1  0.97544900  0.66838100  0.42167600  1
  H  99  1  0.94446350  0.05721650  0.12738700  1
  H  104  1  0.88740250  0.95716050  0.52743500  1
  H  211  1  0.96834750  0.00964650  0.26797900  1
  H  214  1  0.96975850  0.91583350  0.21996200  1
  H  228  1  0.90207250  0.68374150  0.37037300  1
  H  229  1  0.98050600  0.81867000  0.41788700  1
  H  233  1  0.93341150  0.99782050  0.96019900  1
  H  239  1  0.97867100  0.94380100  0.62671400  1
  H  245  1  0.97917000  0.67670600  0.23203900  1
  H  250  1  0.98148450  0.25252550  0.39872600  1
  H  251  1  0.97344450  0.19017350  0.84277400  1
  H  253  1  0.91372650  0.66464450  0.81788100  1
  H  254  1  0.97827200  0.74053500  0.83256400  1
  H  255  1  0.97304350  0.87775550  0.79552800  1
  H  308  1  0.80890200  0.73825700  0.87204900  1
  H  313  1  0.81429300  0.99476700  0.56960600  1
  H  315  1  0.74848800  0.80955800  0.11809900  1
  H  320  1  0.75204550  0.07409750  0.70395600  1
  H  321  1  0.80860200  0.99573400  0.75147200  1
  H  322  1  0.76207750  0.07376950  0.01379700  1
  H  324  1  0.70395850  0.72626950  0.30774600  1
  H  325  1  0.76105850  0.85610750  0.30622400  1
  H  326  1  0.72589550  0.79822650  0.32330300  1
  H  327  1  0.71878500  0.72560800  0.92313100  1
  H  328  1  0.71622000  0.73017300  0.06580700  1
  H  330  1  0.75837650  0.09090250  0.14695100  1
  H  331  1  0.75108600  0.01084300  0.16080700  1
  H  332  1  0.75997650  0.98158950  0.14265700  1
  H  335  1  0.78620050  0.78925850  0.50921600  1
  H  336  1  0.75088150  0.79206150  0.49119000  1
  H  367  1  0.98159200  0.94816600  0.69538400  1
  H  371  1  0.68827550  0.93740350  0.61752200  1
  H  375  1  0.65193900  0.56820200  0.95538200  1
  H  376  1  0.69414600  0.55255800  0.93862800  1
  H  379  1  0.66665533  0.99723333  0.56569700  1
  H  381  1  0.64030200  0.14859000  0.77068800  1
  H  383  1  0.66336100  0.00077800  0.75525800  1
  H  384  1  0.67400650  0.78636550  0.50541700  1
  H  399  1  0.98281150  0.10518350  0.40235200  1
  H  409  1  0.06235000  0.05954200  0.88721900  1
  H  410  1  0.21813000  0.28758700  0.95113000  1
  H  411  1  0.15029850  0.16129550  0.90322200  1
  H  420  1  0.03876650  0.75781850  0.28385900  1
  H  423  1  0.01107950  0.00939850  0.60162000  1
  H  431  1  0.23759800  0.07650100  0.53849100  1
  H  432  1  0.09830150  0.99396550  0.58566700  1
  H  446  1  0.04015350  0.23346250  0.44955000  1
  H  459  1  0.06965700  0.05552600  0.10105700  1
  H  460  1  0.28567050  0.22108050  0.03766800  1
  H  461  1  0.14970750  0.16305450  0.08515100  1
  H  464  1  0.00745950  0.01094250  0.71983500  1
  H  472  1  0.16377050  0.93617450  0.78313700  1
  H  473  1  0.09282350  0.99347450  0.73594000  1
  H  482  1  0.24436750  0.97751750  0.97503300  1
  H  483  1  0.11447300  0.90704700  0.97333700  1
  H  484  1  0.17114350  0.92744050  0.99048100  1
  H  494  1  0.27866950  0.21369850  0.34670300  1
  H  495  1  0.25723450  0.13931150  0.33143600  1
  H  496  1  0.22054950  0.08406650  0.34866200  1
  H  498  1  0.03174400  0.04217200  0.29310900  1
  H  500  1  0.02893250  0.03944150  0.36183500  1
  H  506  1  0.99668050  0.27427450  0.64131100  1
  H  507  1  0.06755050  0.21519750  0.63974000  1
  H  508  1  0.04635900  0.25148200  0.65683300  1
  H  520  1  0.43819450  0.57521850  0.87675300  1
  H  521  1  0.32411550  0.47961750  0.88383500  1
  H  522  1  0.36678850  0.46470650  0.86707700  1
  H  523  1  0.57953900  0.45789200  0.94571200  1
  H  525  1  0.30025900  0.30885500  0.89933900  1
  H  531  1  0.10846050  0.53914950  0.20957800  1
  H  532  1  0.12651300  0.65310500  0.21664600  1
  H  533  1  0.06948550  0.61047550  0.19985400  1
  H  545  1  0.40007450  0.86837050  0.54318400  1
  H  546  1  0.49594350  0.85023550  0.55024400  1
  H  547  1  0.51047350  0.90757550  0.53347400  1
  H  549  1  0.51820100  0.12747600  0.61211700  1
  H  550  1  0.40799950  0.08981950  0.62180200  1
  H  551  1  0.42368050  0.14771850  0.60505200  1
  H  553  1  0.25010650  0.99918150  0.58957100  1
  H  559  1  0.10993050  0.51830550  0.37592800  1
  H  560  1  0.07273100  0.40758500  0.36640300  1
  H  561  1  0.12968200  0.42410100  0.38324700  1
  H  573  1  0.56827650  0.44446450  0.11148400  1
  H  574  1  0.47329850  0.33087850  0.10418300  1
  H  575  1  0.45808600  0.37105000  0.12112600  1
  H  577  1  0.44900150  0.59177250  0.04315900  1
  H  578  1  0.55932550  0.66570250  0.03357300  1
  H  579  1  0.54296200  0.70603500  0.05043500  1
  H  581  1  0.30113250  0.30805150  0.08897900  1
  H  591  1  0.52668650  0.12962850  0.77802600  1
  H  592  1  0.59998200  0.09224700  0.78757100  1
  H  594  1  0.37889400  0.86633400  0.70950400  1
  H  595  1  0.30530050  0.90346150  0.69998400  1
  H  596  1  0.26490750  0.84646750  0.71682800  1
  H  598  1  0.24147150  0.99475750  0.73231100  1
  H  605  1  0.08295000  0.30227000  0.83901500  1
  H  607  1  0.01195750  0.22557550  0.82476200  1
  H  611  1  0.02560750  0.77614150  0.81490300  1
  H  613  1  0.03965000  0.08857900  0.86103500  1
  H  621  1  0.18952950  0.88599350  0.17408700  1
  H  622  1  0.18985750  0.99680950  0.17798100  1
  H  623  1  0.19535800  0.96343600  0.15993500  1
  H  625  1  0.01334950  0.93101650  0.19417400  1
  H  631  1  0.31156150  0.25519150  0.48433000  1
  H  632  1  0.23558850  0.24379250  0.49900400  1
  H  633  1  0.20005550  0.25553950  0.48134000  1
  H  635  1  0.09857050  0.10122950  0.46194900  1
  N  8  1  0.95443100  0.94858200  0.86595700  1
  N  22  1  0.97685600  0.23909800  0.23421300  1
  N  23  1  0.97624300  0.69398500  0.25374900  1
  N  29  1  0.90186350  0.00909550  0.62295100  1
  N  36  1  0.96471750  0.00434750  0.45517400  1
  N  37  1  0.96809100  0.89637500  0.36464800  1
  N  45  1  0.96828100  0.94892300  0.12227600  1
  N  51  1  0.89885600  0.00834900  0.69823300  1
  N  52  1  0.92587500  0.01461500  0.98672200  1
  N  59  1  0.92596500  0.89126500  0.33480300  1
  N  62  1  0.96061700  0.91945900  0.65323800  1
  N  71  1  0.97639350  0.51681450  0.25557100  1
  N  82  1  0.97763500  0.41065700  0.42196400  1
  N  91  1  0.95913600  0.91039800  0.83751000  1
  N  94  1  0.93749400  0.02813200  0.16977500  1
  N  101  1  0.91836400  0.98581600  0.48477900  1
  N  215  1  0.96884800  0.02501200  0.19866900  1
  N  216  1  0.96786050  0.90021250  0.28930400  1
  N  230  1  0.97872800  0.23239900  0.42041700  1
  N  231  1  0.97558350  0.68669950  0.39996100  1
  N  235  1  0.93699250  0.05184150  0.66842700  1
  N  241  1  0.97893950  0.41754150  0.23235800  1
  N  246  1  0.97966900  0.51025700  0.39849300  1
  N  309  1  0.73824100  0.74395500  0.90142900  1
  N  316  1  0.73834400  0.74566200  0.08748200  1
  N  372  1  0.68670550  0.99985950  0.58740800  1
  N  373  1  0.68153200  0.00060600  0.73354400  1
  N  412  1  0.28268450  0.28896450  0.92104900  1
  N  413  1  0.07572300  0.07400500  0.95656000  1
  N  433  1  0.02737800  0.01202800  0.53237600  1
  N  434  1  0.23165100  0.00019400  0.56787100  1
  N  462  1  0.28209050  0.29042750  0.06726400  1
  N  463  1  0.07373150  0.07365350  0.03185600  1
  N  474  1  0.01012700  0.01165200  0.78876200  1
  N  475  1  0.22413050  0.99756850  0.75400200  1
  N  478  1  0.08070750  0.03656450  0.00204500  1
  N  489  1  0.05633050  0.04850550  0.31962500  1
  N  512  1  0.45996400  0.46646900  0.92284200  1
  N  515  1  0.55946950  0.56768550  0.89960300  1
  N  537  1  0.50922650  0.99942750  0.58922800  1
  N  540  1  0.40774450  0.99753450  0.56601200  1
  N  565  1  0.45823450  0.47062750  0.06571800  1
  N  568  1  0.55944900  0.56759400  0.08911400  1
  N  583  1  0.50098950  0.99651250  0.73207600  1
  N  586  1  0.40346700  0.99862100  0.75554800  1
  N  601  1  0.03783850  0.05787250  0.81837700  1
  N  617  1  0.01063200  0.94925600  0.15140000  1
  N  626  1  0.06572050  0.05484050  0.50393300  1
  O  13  1  0.96978250  0.73634950  0.28137400  1
  O  18  1  0.97313550  0.19164250  0.20659700  1
  O  54  1  0.83398650  0.00080650  0.00718000  1
  O  61  1  0.84937350  0.80035450  0.31408900  1
  O  65  1  0.97373200  0.84164500  0.67377400  1
  O  74  1  0.97536250  0.39840650  0.27108300  1
  O  84  1  0.97497200  0.52866400  0.43715800  1
  O  93  1  0.90118500  0.78908400  0.81965000  1
  O  97  1  0.89044300  0.09750700  0.15137500  1
  O  222  1  0.97167850  0.73230550  0.37232700  1
  O  227  1  0.97170650  0.17999550  0.44808500  1
  O  237  1  0.92347750  0.12898250  0.64771700  1
  O  243  1  0.97978750  0.53589250  0.21684800  1
  O  307  1  0.78722650  0.78654250  0.87382400  1
  O  312  1  0.73563050  0.00642750  0.61503400  1
  O  314  1  0.79380950  0.78651250  0.11506600  1
  O  319  1  0.73106150  0.00450450  0.70591000  1
  O  333  1  0.79736000  0.92314600  0.50273300  1
  O  369  1  0.98220250  0.39227950  0.38329400  1
  O  407  1  0.23972600  0.24012100  0.94867700  1
  O  430  1  0.18921250  0.00657050  0.54026400  1
  O  457  1  0.23681100  0.24173900  0.03962200  1
  O  471  1  0.17876850  0.00462750  0.78167100  1
  O  480  1  0.17237500  0.05087200  0.98141300  1
  O  492  1  0.13364100  0.13968000  0.34016400  1
  O  517  1  0.44115650  0.44985550  0.88412400  1
  O  518  1  0.57833550  0.58413850  0.93832500  1
  O  542  1  0.52538750  0.99693450  0.55050500  1
  O  543  1  0.39172750  0.00021250  0.60473900  1
  O  570  1  0.44209750  0.44695450  0.10438800  1
  O  571  1  0.57567250  0.59100050  0.05044300  1
  O  588  1  0.52416400  0.00132600  0.77074200  1
  O  589  1  0.38047250  0.99398650  0.71688000  1
  O  603  1  0.09613000  0.17876000  0.83634700  1
  O  619  1  0.05742950  0.87991150  0.16989900  1
  O  629  1  0.18714050  0.11818750  0.48608700  1
