# generated using pymatgen
data_H28C47(N4O3)2
_symmetry_space_group_name_H-M   'P 1'
_cell_length_a   29.09130000
_cell_length_b   55.24940000
_cell_length_c   55.24940000
_cell_angle_alpha   90.00000000
_cell_angle_beta   90.00010000
_cell_angle_gamma   90.00000000
_symmetry_Int_Tables_number   1
_chemical_formula_structural   H28C47(N4O3)2
_chemical_formula_sum   'H224 C376 N64 O48'
_cell_volume   88801.08271340
_cell_formula_units_Z   8
loop_
 _symmetry_equiv_pos_site_id
 _symmetry_equiv_pos_as_xyz
  1  'x, y, z'
loop_
 _atom_site_type_symbol
 _atom_site_label
 _atom_site_symmetry_multiplicity
 _atom_site_fract_x
 _atom_site_fract_y
 _atom_site_fract_z
 _atom_site_occupancy
  H  26  1  0.13362500  0.24120400  0.19659800  1
  H  27  1  0.07283800  0.22511500  0.17282400  1
  H  28  1  0.10634600  0.18912600  0.25052200  1
  H  29  1  0.04589700  0.17322100  0.22678400  1
  H  30  1  0.95615000  0.17723500  0.22045700  1
  H  31  1  0.89541100  0.20098100  0.23662200  1
  H  32  1  0.92240500  0.25490900  0.18451300  1
  H  33  1  0.98276000  0.23116800  0.16849600  1
  H  34  1  0.95111500  0.19162200  0.14350700  1
  H  35  1  0.96210100  0.19309700  0.10091600  1
  H  36  1  0.10423800  0.18195800  0.11101800  1
  H  37  1  0.09308500  0.18048900  0.15332400  1
  H  38  1  0.07881600  0.14851400  0.18722700  1
  H  39  1  0.93656400  0.15733400  0.17606700  1
  H  40  1  0.92621000  0.11491300  0.17881600  1
  H  41  1  0.06862200  0.10590600  0.18987500  1
  H  44  1  0.86296500  0.26151200  0.21372800  1
  H  45  1  0.16653800  0.21795300  0.25694400  1
  H  47  1  0.07546300  0.18965600  0.07094500  1
  H  49  1  0.95792100  0.07593200  0.19393400  1
  H  75  1  0.13357300  0.78702700  0.82240000  1
  H  76  1  0.07282000  0.80313200  0.84618300  1
  H  77  1  0.10632000  0.83911800  0.76848600  1
  H  78  1  0.04590400  0.85503700  0.79223500  1
  H  79  1  0.95617800  0.85101200  0.79855400  1
  H  80  1  0.89546900  0.82725900  0.78237300  1
  H  81  1  0.92243600  0.77333800  0.83449300  1
  H  82  1  0.98276000  0.79708900  0.85052200  1
  H  83  1  0.95112800  0.83665900  0.87552000  1
  H  84  1  0.96210400  0.83521200  0.91811000  1
  H  85  1  0.10424400  0.84633500  0.90800200  1
  H  86  1  0.09309100  0.84777400  0.86569800  1
  H  87  1  0.07881300  0.87975000  0.83180800  1
  H  88  1  0.93656700  0.87092500  0.84295100  1
  H  89  1  0.92621400  0.91334700  0.84022500  1
  H  90  1  0.06862500  0.92235900  0.82918300  1
  H  93  1  0.86304400  0.76671900  0.80524700  1
  H  94  1  0.16644100  0.81025100  0.76203700  1
  H  96  1  0.07547200  0.83871300  0.94808600  1
  H  98  1  0.95791400  0.95233400  0.82513000  1
  H  124  1  0.13357900  0.82701900  0.23661600  1
  H  125  1  0.07283000  0.85080300  0.22050900  1
  H  126  1  0.10630700  0.77309900  0.18453400  1
  H  127  1  0.04589600  0.79685000  0.16861300  1
  H  128  1  0.95617100  0.80317600  0.17262900  1
  H  129  1  0.89546900  0.78699100  0.19638500  1
  H  130  1  0.92245000  0.83910200  0.25031100  1
  H  131  1  0.98277000  0.85513500  0.22655900  1
  H  132  1  0.95112800  0.88013800  0.18699300  1
  H  133  1  0.96210400  0.92272800  0.18844300  1
  H  134  1  0.10424100  0.91262100  0.17730900  1
  H  135  1  0.09308800  0.87031700  0.17586700  1
  H  136  1  0.07881600  0.83642300  0.14389500  1
  H  137  1  0.93657100  0.84757600  0.15271900  1
  H  138  1  0.92621700  0.84484700  0.11029800  1
  H  139  1  0.06862800  0.83379300  0.10128700  1
  H  142  1  0.86307800  0.80984600  0.25693600  1
  H  143  1  0.16642200  0.76664900  0.21340700  1
  H  145  1  0.07547100  0.95270300  0.18494700  1
  H  147  1  0.95791700  0.82973400  0.07131500  1
  H  173  1  0.13373600  0.20117300  0.78247900  1
  H  174  1  0.07298400  0.17739000  0.79858200  1
  H  175  1  0.10617400  0.25519700  0.83441100  1
  H  176  1  0.04576100  0.23144700  0.85033100  1
  H  177  1  0.95599900  0.22502100  0.84646600  1
  H  178  1  0.89528700  0.24119300  0.82271000  1
  H  179  1  0.92259700  0.18923500  0.76868000  1
  H  180  1  0.98292100  0.17321100  0.79243500  1
  H  181  1  0.95111800  0.14812100  0.83190100  1
  H  182  1  0.96211400  0.10553100  0.83044600  1
  H  183  1  0.10417900  0.11563700  0.84183200  1
  H  184  1  0.09301300  0.15794200  0.84327600  1
  H  185  1  0.07881700  0.19196900  0.87513300  1
  H  186  1  0.93663900  0.18056600  0.86630700  1
  H  187  1  0.92626500  0.18329200  0.90872700  1
  H  188  1  0.06860400  0.19459600  0.91774000  1
  H  191  1  0.86304400  0.21839500  0.76211000  1
  H  192  1  0.16644700  0.26159200  0.80562100  1
  H  194  1  0.07545700  0.07556200  0.83406700  1
  H  196  1  0.95789000  0.19849600  0.94770700  1
  H  222  1  0.63282400  0.74145400  0.69694000  1
  H  223  1  0.57233900  0.72525500  0.67303000  1
  H  224  1  0.60641800  0.68884700  0.75046300  1
  H  225  1  0.54624800  0.67284100  0.72660400  1
  H  226  1  0.45662000  0.67743200  0.72059300  1
  H  227  1  0.39622100  0.70133000  0.73688600  1
  H  228  1  0.42238300  0.75486600  0.68426500  1
  H  229  1  0.48241800  0.73098500  0.66813200  1
  H  230  1  0.45115800  0.69112200  0.64340400  1
  H  231  1  0.46219200  0.69251200  0.60081800  1
  H  232  1  0.60454100  0.68222600  0.61103500  1
  H  233  1  0.59332400  0.68082000  0.65333400  1
  H  234  1  0.57877700  0.64841900  0.68672300  1
  H  235  1  0.43632200  0.65734300  0.67638600  1
  H  236  1  0.42593400  0.61492800  0.67909700  1
  H  237  1  0.56855400  0.60581300  0.68931500  1
  H  240  1  0.36517000  0.76216700  0.71462000  1
  H  241  1  0.66466200  0.71865900  0.75752500  1
  H  243  1  0.57567000  0.68935400  0.57089300  1
  H  245  1  0.45780600  0.57586500  0.69380300  1
  H  271  1  0.63279000  0.28679600  0.32205800  1
  H  272  1  0.57229700  0.30298800  0.34596600  1
  H  273  1  0.60645200  0.33945000  0.26856800  1
  H  274  1  0.54627900  0.35544800  0.29243100  1
  H  275  1  0.45666500  0.35080700  0.29840700  1
  H  276  1  0.39626900  0.32690800  0.28211200  1
  H  277  1  0.42233900  0.27340700  0.33478000  1
  H  278  1  0.48237000  0.29728600  0.35091500  1
  H  279  1  0.45115500  0.33717600  0.37561900  1
  H  280  1  0.46219200  0.33578600  0.41820600  1
  H  281  1  0.60456100  0.34598900  0.40798100  1
  H  282  1  0.59334100  0.34739700  0.36568400  1
  H  283  1  0.57876700  0.37983400  0.33233200  1
  H  284  1  0.43628100  0.37092000  0.34258500  1
  H  285  1  0.42591400  0.41333600  0.33986500  1
  H  286  1  0.56855700  0.42244100  0.32973100  1
  H  289  1  0.36510900  0.26610600  0.30444200  1
  H  290  1  0.66476800  0.30967900  0.26152200  1
  H  292  1  0.57568000  0.33887400  0.44812500  1
  H  294  1  0.45782300  0.45239900  0.32520600  1
  H  320  1  0.63276600  0.32666900  0.73685700  1
  H  321  1  0.57228000  0.35057900  0.72066000  1
  H  322  1  0.60647300  0.27319000  0.68418700  1
  H  323  1  0.54630300  0.29705300  0.66818500  1
  H  324  1  0.45669300  0.30301700  0.67283600  1
  H  325  1  0.39629000  0.28672300  0.69673200  1
  H  326  1  0.42231800  0.33940800  0.75022400  1
  H  327  1  0.48236000  0.35554200  0.72634600  1
  H  328  1  0.45115800  0.38023600  0.68645100  1
  H  329  1  0.46219200  0.42282300  0.68783700  1
  H  330  1  0.60456800  0.41260000  0.67765700  1
  H  331  1  0.59335200  0.37030300  0.67625200  1
  H  332  1  0.57877400  0.33696300  0.64380600  1
  H  333  1  0.43628400  0.34719500  0.65271900  1
  H  334  1  0.42591700  0.34446300  0.61030200  1
  H  335  1  0.56856800  0.33435300  0.60119800  1
  H  338  1  0.36514000  0.30904000  0.75753600  1
  H  339  1  0.66469300  0.26611700  0.71401400  1
  H  341  1  0.57568000  0.45274500  0.68475000  1
  H  343  1  0.45783400  0.32979900  0.57124300  1
  H  369  1  0.63266900  0.70162400  0.28212500  1
  H  370  1  0.57217700  0.67771600  0.29832200  1
  H  371  1  0.60658300  0.75503400  0.33488900  1
  H  372  1  0.54640700  0.73117700  0.35089100  1
  H  373  1  0.45679600  0.72527300  0.34614300  1
  H  374  1  0.39636200  0.74155200  0.32225700  1
  H  375  1  0.42219100  0.68876900  0.26883400  1
  H  376  1  0.48226400  0.67265000  0.29269900  1
  H  377  1  0.45116200  0.64803000  0.33264800  1
  H  378  1  0.46218600  0.60544200  0.33123100  1
  H  379  1  0.60460600  0.61565200  0.34124800  1
  H  380  1  0.59340700  0.65795100  0.34268500  1
  H  381  1  0.57877400  0.69121300  0.37522400  1
  H  382  1  0.43624700  0.68113700  0.36629600  1
  H  383  1  0.42587600  0.68386200  0.40871200  1
  H  384  1  0.56856400  0.69381700  0.41783100  1
  H  387  1  0.36504000  0.71914400  0.26150900  1
  H  388  1  0.66470600  0.76213800  0.30501700  1
  H  390  1  0.57568000  0.57551600  0.33418000  1
  H  392  1  0.45782000  0.69843600  0.44778800  1
  H  403  1  0.08066200  0.03587200  0.19682700  1
  H  404  1  0.07947900  0.99280100  0.19808400  1
  H  406  1  0.93290000  0.97263500  0.16597100  1
  H  410  1  0.85884000  0.02916200  0.11574000  1
  H  423  1  0.08065900  0.99238900  0.82221300  1
  H  424  1  0.07946400  0.03545900  0.82093700  1
  H  426  1  0.93287900  0.05563000  0.85303600  1
  H  430  1  0.85880500  0.99912700  0.90329200  1
  H  443  1  0.08066500  0.82683400  0.03125400  1
  H  444  1  0.07948100  0.82557200  0.98818400  1
  H  446  1  0.93289600  0.85767400  0.96801300  1
  H  450  1  0.85882600  0.90790800  0.02453200  1
  H  463  1  0.08065300  0.20145200  0.98776600  1
  H  464  1  0.07946700  0.20272400  0.03083600  1
  H  466  1  0.93289300  0.17061000  0.05101400  1
  H  470  1  0.85882900  0.12035000  0.99451400  1
  H  483  1  0.58067100  0.53593900  0.69654400  1
  H  484  1  0.57963600  0.49286700  0.69781400  1
  H  486  1  0.43301200  0.47255500  0.66584100  1
  H  490  1  0.35854300  0.52897400  0.61567200  1
  H  503  1  0.58067800  0.49231500  0.32247100  1
  H  504  1  0.57963600  0.53538500  0.32118800  1
  H  506  1  0.43301200  0.55570400  0.35315700  1
  H  510  1  0.35853300  0.49929600  0.40334200  1
  H  523  1  0.58068500  0.32708900  0.53131800  1
  H  524  1  0.57964300  0.32582100  0.48824600  1
  H  526  1  0.43301900  0.35779400  0.46794000  1
  H  530  1  0.35855300  0.40795700  0.52436800  1
  H  543  1  0.58067100  0.70115700  0.48770000  1
  H  544  1  0.57961900  0.70244400  0.53077200  1
  H  546  1  0.43299100  0.67047800  0.55108500  1
  H  550  1  0.35851200  0.62029800  0.49467300  1
  H  563  1  0.79226000  0.27865100  0.22241400  1
  H  564  1  0.73071600  0.29840700  0.24203800  1
  H  566  1  0.70721000  0.25180400  0.31317500  1
  H  570  1  0.75957600  0.17155600  0.31507400  1
  H  583  1  0.79230800  0.74958800  0.79658300  1
  H  584  1  0.73076700  0.72983000  0.77695200  1
  H  586  1  0.70723100  0.77645900  0.70583600  1
  H  590  1  0.75959000  0.85670900  0.70394300  1
  H  603  1  0.79229800  0.80121200  0.27404900  1
  H  604  1  0.73076000  0.78158500  0.29380800  1
  H  606  1  0.70722400  0.71045800  0.24719400  1
  H  610  1  0.75957000  0.70856800  0.16694100  1
  H  623  1  0.79229400  0.22704900  0.74498000  1
  H  624  1  0.73075300  0.24667400  0.72522100  1
  H  626  1  0.70721000  0.31779900  0.77183300  1
  H  630  1  0.75957000  0.31970300  0.85208600  1
  H  643  1  0.23680900  0.74936900  0.22250600  1
  H  644  1  0.29832000  0.72972000  0.24227400  1
  H  646  1  0.32131900  0.77655700  0.31331200  1
  H  650  1  0.26838700  0.85674000  0.31498600  1
  H  663  1  0.23681600  0.27888100  0.79651000  1
  H  664  1  0.29832800  0.29852800  0.77674000  1
  H  666  1  0.32132500  0.25168600  0.70570700  1
  H  670  1  0.26837200  0.17150500  0.70402400  1
  H  683  1  0.23683500  0.22711400  0.27425800  1
  H  684  1  0.29834600  0.24688600  0.29390200  1
  H  686  1  0.32131500  0.31792700  0.24706700  1
  H  690  1  0.26835600  0.31960500  0.16688900  1
  H  703  1  0.23679700  0.80112700  0.74474300  1
  H  704  1  0.29830800  0.78135300  0.72509600  1
  H  706  1  0.32130900  0.71032800  0.77194900  1
  H  710  1  0.26835900  0.70865000  0.85212900  1
  C  1  1  0.99621400  0.10595900  0.18516700  1
  C  2  1  0.95870400  0.12172100  0.18103400  1
  C  3  1  0.96487500  0.14697600  0.17963200  1
  C  4  1  0.00834100  0.15811600  0.18339100  1
  C  5  1  0.04608700  0.14191500  0.18599300  1
  C  6  1  0.04028200  0.11656200  0.18721600  1
  C  7  1  0.01457900  0.18566300  0.18111000  1
  C  8  1  0.02133000  0.18786800  0.15358700  1
  C  9  1  0.06500100  0.18392000  0.14275400  1
  C  10  1  0.07162300  0.18457600  0.11751100  1
  C  11  1  0.03451400  0.18828100  0.10134700  1
  C  12  1  0.99032200  0.19088700  0.11175300  1
  C  13  1  0.98398300  0.19030600  0.13711300  1
  C  14  1  0.97420400  0.20050200  0.19127900  1
  C  15  1  0.05460500  0.19598900  0.19610700  1
  C  16  1  0.08014200  0.21675200  0.18886900  1
  C  17  1  0.11610200  0.22649600  0.20305400  1
  C  18  1  0.12757000  0.21649100  0.22585600  1
  C  19  1  0.10047700  0.19675300  0.23390300  1
  C  20  1  0.06465500  0.18715100  0.21966600  1
  C  21  1  0.94872200  0.19324700  0.21206100  1
  C  22  1  0.91279000  0.20741900  0.22185800  1
  C  23  1  0.90133700  0.23024700  0.21191300  1
  C  24  1  0.92827600  0.23827600  0.19210400  1
  C  25  1  0.96401900  0.22403300  0.18242300  1
  C  42  1  0.16292100  0.22543000  0.24069900  1
  C  43  1  0.98834600  0.08111600  0.18752100  1
  C  46  1  0.04290000  0.18894500  0.07634700  1
  C  48  1  0.86619200  0.24514600  0.22099000  1
  C  50  1  0.99621400  0.92230500  0.83387900  1
  C  51  1  0.95870400  0.90654000  0.83800400  1
  C  52  1  0.96488200  0.88128500  0.83940200  1
  C  53  1  0.00833800  0.87013900  0.83561900  1
  C  54  1  0.04608400  0.88635000  0.83304800  1
  C  55  1  0.04028400  0.91170400  0.83183700  1
  C  56  1  0.01458500  0.84259500  0.83791100  1
  C  57  1  0.02134300  0.84037800  0.86543000  1
  C  58  1  0.06500500  0.84434900  0.87626800  1
  C  59  1  0.07163000  0.84371200  0.90151200  1
  C  60  1  0.03452200  0.84001800  0.91767800  1
  C  61  1  0.99032900  0.83740800  0.90727200  1
  C  62  1  0.98399700  0.83797400  0.88191100  1
  C  63  1  0.97419700  0.82776400  0.82775100  1
  C  64  1  0.05462100  0.83227800  0.82291700  1
  C  65  1  0.08012600  0.81149800  0.83013900  1
  C  66  1  0.11607200  0.80174600  0.81594900  1
  C  67  1  0.12753900  0.81175000  0.79314700  1
  C  68  1  0.10045300  0.83149100  0.78510300  1
  C  69  1  0.06465400  0.84110400  0.79935000  1
  C  70  1  0.94875000  0.83500100  0.80695000  1
  C  71  1  0.91283500  0.82082300  0.79714200  1
  C  72  1  0.90137500  0.79799900  0.80709000  1
  C  73  1  0.92830400  0.78997200  0.82690000  1
  C  74  1  0.96402900  0.80422400  0.83659100  1
  C  91  1  0.16286900  0.80279900  0.77829600  1
  C  92  1  0.98834600  0.94714800  0.83153400  1
  C  95  1  0.04290700  0.83936800  0.94268000  1
  C  97  1  0.86624400  0.78309400  0.79800400  1
  C  99  1  0.99622100  0.83849700  0.10134100  1
  C  100  1  0.95871100  0.84262400  0.11710500  1
  C  101  1  0.96488500  0.84402500  0.14235900  1
  C  102  1  0.00834100  0.84023900  0.15350600  1
  C  103  1  0.04608600  0.83765900  0.13729700  1
  C  104  1  0.04028700  0.83645200  0.11194300  1
  C  105  1  0.01458600  0.84253000  0.18105000  1
  C  106  1  0.02134300  0.87004900  0.18326900  1
  C  107  1  0.06500300  0.88088700  0.17929500  1
  C  108  1  0.07162700  0.90613100  0.17993400  1
  C  109  1  0.03452100  0.92229700  0.18363600  1
  C  110  1  0.99032900  0.91189000  0.18624400  1
  C  111  1  0.98399700  0.88652900  0.18567500  1
  C  112  1  0.97420000  0.83237100  0.19588000  1
  C  113  1  0.05462300  0.82753600  0.19136700  1
  C  114  1  0.08013400  0.83476000  0.21214500  1
  C  115  1  0.11608200  0.82057000  0.22189600  1
  C  116  1  0.12753800  0.79776400  0.21189700  1
  C  117  1  0.10045000  0.78972000  0.19215600  1
  C  118  1  0.06465100  0.80396700  0.18254500  1
  C  119  1  0.94874600  0.81157000  0.18864200  1
  C  120  1  0.91282800  0.80176400  0.20281700  1
  C  121  1  0.90137800  0.81170600  0.22564700  1
  C  122  1  0.92831100  0.83151500  0.23367400  1
  C  123  1  0.96403600  0.84120500  0.21942200  1
  C  140  1  0.16286400  0.78291300  0.22085000  1
  C  141  1  0.98834600  0.83614300  0.07649800  1
  C  144  1  0.04290600  0.94729700  0.18428800  1
  C  146  1  0.86625400  0.80261500  0.24055400  1
  C  148  1  0.99622800  0.18976300  0.91768300  1
  C  149  1  0.95874600  0.18556600  0.90192000  1
  C  150  1  0.96493300  0.18416700  0.87666700  1
  C  151  1  0.00836900  0.18802200  0.86552300  1
  C  152  1  0.04609400  0.19068100  0.88173100  1
  C  153  1  0.04028200  0.19188600  0.90708300  1
  C  154  1  0.01458500  0.18573000  0.83797600  1
  C  155  1  0.02130700  0.15820700  0.83575900  1
  C  156  1  0.06494900  0.14737200  0.83980100  1
  C  157  1  0.07158100  0.12212900  0.83915600  1
  C  158  1  0.03449900  0.10596400  0.83538400  1
  C  159  1  0.99032200  0.11636900  0.83270500  1
  C  160  1  0.98398000  0.14172900  0.83326900  1
  C  161  1  0.97419700  0.19590400  0.82315500  1
  C  162  1  0.05462700  0.20071500  0.82765400  1
  C  163  1  0.08022400  0.19345700  0.80691700  1
  C  164  1  0.11616300  0.20764900  0.79716000  1
  C  165  1  0.12754400  0.23048200  0.80712200  1
  C  166  1  0.10037600  0.23855600  0.82682000  1
  C  167  1  0.06456600  0.22431400  0.83642500  1
  C  168  1  0.94864300  0.21665600  0.83042900  1
  C  169  1  0.91273900  0.22646400  0.81624600  1
  C  170  1  0.90137100  0.21655800  0.79339000  1
  C  171  1  0.92839600  0.19679500  0.78533400  1
  C  172  1  0.96412500  0.18710800  0.79958800  1
  C  189  1  0.16288000  0.24533100  0.79817300  1
  C  190  1  0.98833900  0.19211200  0.94252500  1
  C  193  1  0.04289000  0.08096500  0.83472900  1
  C  195  1  0.86623700  0.22563900  0.77848500  1
  C  197  1  0.49604400  0.60591900  0.68503200  1
  C  198  1  0.45848300  0.62171100  0.68115300  1
  C  199  1  0.46468100  0.64696400  0.67977400  1
  C  200  1  0.50825100  0.65806800  0.68331800  1
  C  201  1  0.54601100  0.64183700  0.68564900  1
  C  202  1  0.54017800  0.61648800  0.68684900  1
  C  203  1  0.51457600  0.68560500  0.68104300  1
  C  204  1  0.52142000  0.68781700  0.65353300  1
  C  205  1  0.56519900  0.68408100  0.64274200  1
  C  206  1  0.57186800  0.68469900  0.61750200  1
  C  207  1  0.53471200  0.68813200  0.60130600  1
  C  208  1  0.49044100  0.69051000  0.61167600  1
  C  209  1  0.48406500  0.68996900  0.63703000  1
  C  210  1  0.47421000  0.70047400  0.69116600  1
  C  211  1  0.55457000  0.69587700  0.69609500  1
  C  212  1  0.57980500  0.71679500  0.68900500  1
  C  213  1  0.61562000  0.72658500  0.70325700  1
  C  214  1  0.62721400  0.71647800  0.72599500  1
  C  215  1  0.60046000  0.69655000  0.73388900  1
  C  216  1  0.56481400  0.68688700  0.71957400  1
  C  217  1  0.44903700  0.69337600  0.71210400  1
  C  218  1  0.41328800  0.70762700  0.72196300  1
  C  219  1  0.40171400  0.73039100  0.71191500  1
  C  220  1  0.42831300  0.73826700  0.69192100  1
  C  221  1  0.46386300  0.72393500  0.68216900  1
  C  238  1  0.66210800  0.72562000  0.74100700  1
  C  239  1  0.48819000  0.58107600  0.68735200  1
  C  242  1  0.54311000  0.68872400  0.57630900  1
  C  244  1  0.36712000  0.74548700  0.72123900  1
  C  246  1  0.49604100  0.42233900  0.33398600  1
  C  247  1  0.45846600  0.40655100  0.33783600  1
  C  248  1  0.46465000  0.38129600  0.33921700  1
  C  249  1  0.50823000  0.37019200  0.33571600  1
  C  250  1  0.54600400  0.38641900  0.33339600  1
  C  251  1  0.54017800  0.41176700  0.33219000  1
  C  252  1  0.51457200  0.34265500  0.33797900  1
  C  253  1  0.52142300  0.34043800  0.36548700  1
  C  254  1  0.56520900  0.34415200  0.37627600  1
  C  255  1  0.57187800  0.34353700  0.40151600  1
  C  256  1  0.53472300  0.34012300  0.41771300  1
  C  257  1  0.49044500  0.33776800  0.40734600  1
  C  258  1  0.48406500  0.33831100  0.38199200  1
  C  259  1  0.47420600  0.32778400  0.32785500  1
  C  260  1  0.55456400  0.33238500  0.32292200  1
  C  261  1  0.57977400  0.31145700  0.32999900  1
  C  262  1  0.61560200  0.30167400  0.31574900  1
  C  263  1  0.62720400  0.31179000  0.29301700  1
  C  264  1  0.60047800  0.33173200  0.28513500  1
  C  265  1  0.56482800  0.34139400  0.29945300  1
  C  266  1  0.44906100  0.33487200  0.30690500  1
  C  267  1  0.41329800  0.32062400  0.29705100  1
  C  268  1  0.40172400  0.29786400  0.30710400  1
  C  269  1  0.42828900  0.28999900  0.32711500  1
  C  270  1  0.46383600  0.30433300  0.33686900  1
  C  287  1  0.66213200  0.30266700  0.27801300  1
  C  288  1  0.48820000  0.44718500  0.33165800  1
  C  291  1  0.54312000  0.33953500  0.44271100  1
  C  293  1  0.36710600  0.28277400  0.29779300  1
  C  295  1  0.49604800  0.33859000  0.60129900  1
  C  296  1  0.45847000  0.34244200  0.61708900  1
  C  297  1  0.46465400  0.34382300  0.64234200  1
  C  298  1  0.50823400  0.34033300  0.65344600  1
  C  299  1  0.54601100  0.33802000  0.63722000  1
  C  300  1  0.54018500  0.33681300  0.61187100  1
  C  301  1  0.51457900  0.34259700  0.68098300  1
  C  302  1  0.52143000  0.37010500  0.68319900  1
  C  303  1  0.56522000  0.38089400  0.67949200  1
  C  304  1  0.57188500  0.40613500  0.68010500  1
  C  305  1  0.53472600  0.42233200  0.68350600  1
  C  306  1  0.49044500  0.41196400  0.68585700  1
  C  307  1  0.48406800  0.38661000  0.68532000  1
  C  308  1  0.47421300  0.33247400  0.69585600  1
  C  309  1  0.55457000  0.32754000  0.69125300  1
  C  310  1  0.57976700  0.33461300  0.71218700  1
  C  311  1  0.61558900  0.32036400  0.72197600  1
  C  312  1  0.62721100  0.29763700  0.71185100  1
  C  313  1  0.60049100  0.28975700  0.69190600  1
  C  314  1  0.56484800  0.30407400  0.68224100  1
  C  315  1  0.44908200  0.31151800  0.68877000  1
  C  316  1  0.41332900  0.30165900  0.70301900  1
  C  317  1  0.40172100  0.31172500  0.72577100  1
  C  318  1  0.42827900  0.33173700  0.73363300  1
  C  319  1  0.46382900  0.34149100  0.71930400  1
  C  336  1  0.66211100  0.28262600  0.72099100  1
  C  337  1  0.48820700  0.33626100  0.57645500  1
  C  340  1  0.54312000  0.44733000  0.68409500  1
  C  342  1  0.36711600  0.30240700  0.74086200  1
  C  344  1  0.49602700  0.68966200  0.41772200  1
  C  345  1  0.45844200  0.68585500  0.40192900  1
  C  346  1  0.46462600  0.68448000  0.37667400  1
  C  347  1  0.50822300  0.68792600  0.36557700  1
  C  348  1  0.54600100  0.69019500  0.38180500  1
  C  349  1  0.54017400  0.69139900  0.40715400  1
  C  350  1  0.51458300  0.68566000  0.33804000  1
  C  351  1  0.52145400  0.65815000  0.33583900  1
  C  352  1  0.56525800  0.64736100  0.33947600  1
  C  353  1  0.57191200  0.62211900  0.33885300  1
  C  354  1  0.53473300  0.60592700  0.33548600  1
  C  355  1  0.49044500  0.61629800  0.33318800  1
  C  356  1  0.48407500  0.64165200  0.33374300  1
  C  357  1  0.47423700  0.69577900  0.32315000  1
  C  358  1  0.55457700  0.70071900  0.32777600  1
  C  359  1  0.57971500  0.69366500  0.30681500  1
  C  360  1  0.61554100  0.70791300  0.29702800  1
  C  361  1  0.62722800  0.73061800  0.30718000  1
  C  362  1  0.60056700  0.73848000  0.32715500  1
  C  363  1  0.56491400  0.72416500  0.33681900  1
  C  364  1  0.44914000  0.71675100  0.33022600  1
  C  365  1  0.41336000  0.72659800  0.31598400  1
  C  366  1  0.40169000  0.71650300  0.29325400  1
  C  367  1  0.42821000  0.69646900  0.28540400  1
  C  368  1  0.46377000  0.68672000  0.29973000  1
  C  385  1  0.66212100  0.74563000  0.29804000  1
  C  386  1  0.48819000  0.69197600  0.44257000  1
  C  389  1  0.54312000  0.58092900  0.33487500  1
  C  391  1  0.36706800  0.72581200  0.27816800  1
  C  393  1  0.01395100  0.04035000  0.18228300  1
  C  394  1  0.97534500  0.02717900  0.17377700  1
  C  395  1  0.97411500  0.00133500  0.17427300  1
  C  396  1  0.01276200  0.98817100  0.18304500  1
  C  397  1  0.05126900  0.00152500  0.19135400  1
  C  398  1  0.05198800  0.02701200  0.19073900  1
  C  400  1  0.89840500  0.00266000  0.15690900  1
  C  401  1  0.89995500  0.02816600  0.15609000  1
  C  407  1  0.86408900  0.04218800  0.14730100  1
  C  413  1  0.01396800  0.98791400  0.83678300  1
  C  414  1  0.97534500  0.00108600  0.84526800  1
  C  415  1  0.97410400  0.02692700  0.84475500  1
  C  416  1  0.01275100  0.04009000  0.83597900  1
  C  417  1  0.05125900  0.02673600  0.82767000  1
  C  418  1  0.05198300  0.00124800  0.82829600  1
  C  420  1  0.89839100  0.02560700  0.86211500  1
  C  421  1  0.89995200  0.00010100  0.86294900  1
  C  427  1  0.86408200  0.98608300  0.87174000  1
  C  433  1  0.01395100  0.84137300  0.03573100  1
  C  434  1  0.97534500  0.84987700  0.02255900  1
  C  435  1  0.97411500  0.84937900  0.99671500  1
  C  436  1  0.01276200  0.84060600  0.98355300  1
  C  437  1  0.05127100  0.83230000  0.99690600  1
  C  438  1  0.05199000  0.83291900  0.02239400  1
  C  440  1  0.89840100  0.86673800  0.99803800  1
  C  441  1  0.89995200  0.86756200  0.02354400  1
  C  447  1  0.86408200  0.87635100  0.03756400  1
  C  453  1  0.01396800  0.18687600  0.98329400  1
  C  454  1  0.97534900  0.17838600  0.99646700  1
  C  455  1  0.97411500  0.17889700  0.02230900  1
  C  456  1  0.01275800  0.18767600  0.03547100  1
  C  457  1  0.05126100  0.19598900  0.02211500  1
  C  458  1  0.05198000  0.19536700  0.99662800  1
  C  460  1  0.89840500  0.16153100  0.02099100  1
  C  461  1  0.89996200  0.16069600  0.99548600  1
  C  467  1  0.86409200  0.15190100  0.98146800  1
  C  473  1  0.51389900  0.54034200  0.68205500  1
  C  474  1  0.47529900  0.52714000  0.67358600  1
  C  475  1  0.47415800  0.50129900  0.67409100  1
  C  476  1  0.51288100  0.48817900  0.68283700  1
  C  477  1  0.55138100  0.50156400  0.69110500  1
  C  478  1  0.55201300  0.52704800  0.69048000  1
  C  480  1  0.39838700  0.50254500  0.65680200  1
  C  481  1  0.39984700  0.52805300  0.65597300  1
  C  487  1  0.36389500  0.54203500  0.64721400  1
  C  493  1  0.51392300  0.48791500  0.33698500  1
  C  494  1  0.47531300  0.50111700  0.34543600  1
  C  495  1  0.47416500  0.52695800  0.34492000  1
  C  496  1  0.51288800  0.54007600  0.33617200  1
  C  497  1  0.55138400  0.52669100  0.32790100  1
  C  498  1  0.55201600  0.50120500  0.32853100  1
  C  500  1  0.39839000  0.52571400  0.36220700  1
  C  501  1  0.39985800  0.50020600  0.36304700  1
  C  507  1  0.36390600  0.48622600  0.37180500  1
  C  513  1  0.51390900  0.34157500  0.53572600  1
  C  514  1  0.47531000  0.35004300  0.52252500  1
  C  515  1  0.47416500  0.34954200  0.49668300  1
  C  516  1  0.51288800  0.34079800  0.48356200  1
  C  517  1  0.55138700  0.33252800  0.49694500  1
  C  518  1  0.55202300  0.33315300  0.52242900  1
  C  520  1  0.39839300  0.36683100  0.49793100  1
  C  521  1  0.39985400  0.36765600  0.52343900  1
  C  527  1  0.36390600  0.37641500  0.53742500  1
  C  533  1  0.51391200  0.68664400  0.48329800  1
  C  534  1  0.47529900  0.67819500  0.49649800  1
  C  535  1  0.47415100  0.67871300  0.52234100  1
  C  536  1  0.51287100  0.68745900  0.53545900  1
  C  537  1  0.55137000  0.69572900  0.52207700  1
  C  538  1  0.55200600  0.69509700  0.49659000  1
  C  540  1  0.39836900  0.66143000  0.52109500  1
  C  541  1  0.39984100  0.66059000  0.49558700  1
  C  547  1  0.36388500  0.65183500  0.48160500  1
  C  553  1  0.80264800  0.25115900  0.24871500  1
  C  554  1  0.78474500  0.24246400  0.27092300  1
  C  555  1  0.74716000  0.25407900  0.28291600  1
  C  556  1  0.72625400  0.27491500  0.27244300  1
  C  557  1  0.74426600  0.28343100  0.25019000  1
  C  558  1  0.78128400  0.27181300  0.23859100  1
  C  560  1  0.75212100  0.22439000  0.31458300  1
  C  561  1  0.78908700  0.21288500  0.30270100  1
  C  567  1  0.81072900  0.19249600  0.31193900  1
  C  573  1  0.80267200  0.77709200  0.77029300  1
  C  574  1  0.78476600  0.78579300  0.74808800  1
  C  575  1  0.74718400  0.77418000  0.73609300  1
  C  576  1  0.72627800  0.75334000  0.74656100  1
  C  577  1  0.74430700  0.74481500  0.76880900  1
  C  578  1  0.78131800  0.75643300  0.78041100  1
  C  580  1  0.75213800  0.80387400  0.70443300  1
  C  581  1  0.78910100  0.81537900  0.71631600  1
  C  587  1  0.81074300  0.83576600  0.70708000  1
  C  593  1  0.80266800  0.77491500  0.24655200  1
  C  594  1  0.78475900  0.75271000  0.23785300  1
  C  595  1  0.74717800  0.74071500  0.24946900  1
  C  596  1  0.72627800  0.75118600  0.27030900  1
  C  597  1  0.74430000  0.77343600  0.27882900  1
  C  598  1  0.78131500  0.78503400  0.26720900  1
  C  600  1  0.75212800  0.70905400  0.21977500  1
  C  601  1  0.78909000  0.72093400  0.20827100  1
  C  607  1  0.81072900  0.71170000  0.18788000  1
  C  613  1  0.80265800  0.25334400  0.77247900  1
  C  614  1  0.78474900  0.27555000  0.78117600  1
  C  615  1  0.74716700  0.28754300  0.76956000  1
  C  616  1  0.72626400  0.27707100  0.74872200  1
  C  617  1  0.74429400  0.25482100  0.74020000  1
  C  618  1  0.78130500  0.24322200  0.75182200  1
  C  620  1  0.75211700  0.31920700  0.79925100  1
  C  621  1  0.78908000  0.30732600  0.81075700  1
  C  627  1  0.81072200  0.31656400  0.83114400  1
  C  633  1  0.22625200  0.77693700  0.24870700  1
  C  634  1  0.24399700  0.78570100  0.27091900  1
  C  635  1  0.28156800  0.77416200  0.28299500  1
  C  636  1  0.30262500  0.75332700  0.27259700  1
  C  637  1  0.28474400  0.74473700  0.25034000  1
  C  638  1  0.24773800  0.75628300  0.23866000  1
  C  640  1  0.27623300  0.80390500  0.31459700  1
  C  641  1  0.23926800  0.81532600  0.30263700  1
  C  647  1  0.21741100  0.83568700  0.31179900  1
  C  653  1  0.22626400  0.25130800  0.77031400  1
  C  654  1  0.24400600  0.24254200  0.74810000  1
  C  655  1  0.28157700  0.25408000  0.73602400  1
  C  656  1  0.30264000  0.27491300  0.74642300  1
  C  657  1  0.28475300  0.28350900  0.76867800  1
  C  658  1  0.24775200  0.27195900  0.78036000  1
  C  660  1  0.27623400  0.22433900  0.70442000  1
  C  661  1  0.23926900  0.21291800  0.71638200  1
  C  667  1  0.21740400  0.19256100  0.70721800  1
  C  673  1  0.22626700  0.25331300  0.24668900  1
  C  674  1  0.24400200  0.27552900  0.23792500  1
  C  675  1  0.28157300  0.28760700  0.24946200  1
  C  676  1  0.30263900  0.27720800  0.27029500  1
  C  677  1  0.28476700  0.25494900  0.27888500  1
  C  678  1  0.24776100  0.24326800  0.26733900  1
  C  680  1  0.27621900  0.31921100  0.21972400  1
  C  681  1  0.23925300  0.30724800  0.20830300  1
  C  687  1  0.21738800  0.31641200  0.18794600  1
  C  693  1  0.22624800  0.77493500  0.77232000  1
  C  694  1  0.24399000  0.75272300  0.78108700  1
  C  695  1  0.28156100  0.74064700  0.76955200  1
  C  696  1  0.30262300  0.75104100  0.74871800  1
  C  697  1  0.28473500  0.77329500  0.74011800  1
  C  698  1  0.24773500  0.78497800  0.75166600  1
  C  700  1  0.27621900  0.70904500  0.79929500  1
  C  701  1  0.23925400  0.72100800  0.81071600  1
  C  707  1  0.21739000  0.71184500  0.83107300  1
  N  399  1  0.93514100  0.99022000  0.16579700  1
  N  402  1  0.93845400  0.03907000  0.16458400  1
  N  411  1  0.01762400  0.06459500  0.18163300  1
  N  412  1  0.01153800  0.96378000  0.18313900  1
  N  419  1  0.93512400  0.03804400  0.85322200  1
  N  422  1  0.93845800  0.98919600  0.85446800  1
  N  431  1  0.01762800  0.96366800  0.83742100  1
  N  432  1  0.01152400  0.06448200  0.83588300  1
  N  439  1  0.93513700  0.85785100  0.98560000  1
  N  442  1  0.93845100  0.85907100  0.03444800  1
  N  451  1  0.01762600  0.84202700  0.05997600  1
  N  452  1  0.01153800  0.84051200  0.95916000  1
  N  459  1  0.93513700  0.17042500  0.03342700  1
  N  462  1  0.93846100  0.16918400  0.98457900  1
  N  471  1  0.01762800  0.18623900  0.95904700  1
  N  472  1  0.01154100  0.18776300  0.05986300  1
  N  479  1  0.43519100  0.49014300  0.66565800  1
  N  482  1  0.43833700  0.53899600  0.66442500  1
  N  491  1  0.51749100  0.56458300  0.68141600  1
  N  492  1  0.51172300  0.46379500  0.68295200  1
  N  499  1  0.43519800  0.53811400  0.35334900  1
  N  502  1  0.43835000  0.48926300  0.35460000  1
  N  511  1  0.51749800  0.46367200  0.33761300  1
  N  512  1  0.51173300  0.56446200  0.33605800  1
  N  519  1  0.43519800  0.35797500  0.48552900  1
  N  522  1  0.43834700  0.35920400  0.53438200  1
  N  531  1  0.51749800  0.34221500  0.55996700  1
  N  532  1  0.51172600  0.34068000  0.45917600  1
  N  539  1  0.43517800  0.67028800  0.53349600  1
  N  542  1  0.43833700  0.66903500  0.48464400  1
  N  551  1  0.51748700  0.68602000  0.45905500  1
  N  552  1  0.51170900  0.68758400  0.55984300  1
  N  559  1  0.73260300  0.24435500  0.30442900  1
  N  562  1  0.80359000  0.22258200  0.28146300  1
  N  571  1  0.83796100  0.23935500  0.23809200  1
  N  572  1  0.69091300  0.28586700  0.28393100  1
  N  579  1  0.73262000  0.78390700  0.71458200  1
  N  582  1  0.80360700  0.80567700  0.73755200  1
  N  591  1  0.83798500  0.78889700  0.78091800  1
  N  592  1  0.69095500  0.74238200  0.73506700  1
  N  599  1  0.73261700  0.71920400  0.23974400  1
  N  602  1  0.80360000  0.74217200  0.21796900  1
  N  611  1  0.83797800  0.78553900  0.23474500  1
  N  612  1  0.69094800  0.73969500  0.28126700  1
  N  619  1  0.73260300  0.30905500  0.77928500  1
  N  622  1  0.80359000  0.28609000  0.80105900  1
  N  631  1  0.83797100  0.24272300  0.78428400  1
  N  632  1  0.69093800  0.28856200  0.73776200  1
  N  639  1  0.29593500  0.78395000  0.30451400  1
  N  642  1  0.22496300  0.80556700  0.28139100  1
  N  651  1  0.19084400  0.78864500  0.23808000  1
  N  652  1  0.33782400  0.74235300  0.28419700  1
  N  659  1  0.29594100  0.24429200  0.71450500  1
  N  662  1  0.22496800  0.22267700  0.73762800  1
  N  671  1  0.19085300  0.23960100  0.78093900  1
  N  672  1  0.33782900  0.28588900  0.73481900  1
  N  679  1  0.29593100  0.30912700  0.23967500  1
  N  682  1  0.22495800  0.28600100  0.21806000  1
  N  691  1  0.19085100  0.24269000  0.23498400  1
  N  692  1  0.33783600  0.28881000  0.28126700  1
  N  699  1  0.29592500  0.71912800  0.77934200  1
  N  702  1  0.22495200  0.74225200  0.80095500  1
  N  711  1  0.19083800  0.78556100  0.78402600  1
  N  712  1  0.33781000  0.73943600  0.73774000  1
  O  405  1  0.86086800  0.99034900  0.14919900  1
  O  408  1  0.85645800  0.06164500  0.15704300  1
  O  409  1  0.85192000  0.04104200  0.12587300  1
  O  425  1  0.86084700  0.03791900  0.86981100  1
  O  428  1  0.85646400  0.96661800  0.86200800  1
  O  429  1  0.85189900  0.98723900  0.89316500  1
  O  445  1  0.86086100  0.87444500  0.98572500  1
  O  448  1  0.85645400  0.86661200  0.05702300  1
  O  449  1  0.85191000  0.89777800  0.03641500  1
  O  465  1  0.86086400  0.15383000  0.03330500  1
  O  468  1  0.85646800  0.16163200  0.96200400  1
  O  469  1  0.85191700  0.13047600  0.98262600  1
  O  485  1  0.36086300  0.49019300  0.64913500  1
  O  488  1  0.35624000  0.56149400  0.65695000  1
  O  489  1  0.35162400  0.54085600  0.62580600  1
  O  505  1  0.36086300  0.53806500  0.36986500  1
  O  508  1  0.35625700  0.46676300  0.36207500  1
  O  509  1  0.35162400  0.48741000  0.39321200  1
  O  525  1  0.36087000  0.37449800  0.48558400  1
  O  528  1  0.35625400  0.36667500  0.55688200  1
  O  529  1  0.35163700  0.39782300  0.53624800  1
  O  545  1  0.36084300  0.65377300  0.53344500  1
  O  548  1  0.35624000  0.66156700  0.46214500  1
  O  549  1  0.35160300  0.63042800  0.48278700  1
  O  565  1  0.73609500  0.21613600  0.33608900  1
  O  568  1  0.85211300  0.19029500  0.30880800  1
  O  569  1  0.78986400  0.17320800  0.31492300  1
  O  585  1  0.73610900  0.81213200  0.68292700  1
  O  588  1  0.85213000  0.83796900  0.71021100  1
  O  589  1  0.78987800  0.85505500  0.70409300  1
  O  605  1  0.73609900  0.68754900  0.21152000  1
  O  608  1  0.85211300  0.71482900  0.18567700  1
  O  609  1  0.78986000  0.70871700  0.16859100  1
  O  625  1  0.73608800  0.34071300  0.80750400  1
  O  628  1  0.85210900  0.31343500  0.83334700  1
  O  629  1  0.78985700  0.31955300  0.85043300  1
  O  645  1  0.29206500  0.81222400  0.33611800  1
  O  648  1  0.17603400  0.83780100  0.30858300  1
  O  649  1  0.23811300  0.85502600  0.31478000  1
  O  665  1  0.29206000  0.21602200  0.68290000  1
  O  668  1  0.17602600  0.19045100  0.71043700  1
  O  669  1  0.23809900  0.17322200  0.70423000  1
  O  685  1  0.29204300  0.34073500  0.21140500  1
  O  688  1  0.17601100  0.31319200  0.18583600  1
  O  689  1  0.23808300  0.31939700  0.16860600  1
  O  705  1  0.29204500  0.68752400  0.80761600  1
  O  708  1  0.17601200  0.71506400  0.83318500  1
  O  709  1  0.23808500  0.70885800  0.85041300  1
