# generated using pymatgen
data_NaCuH8(C2O)8
_symmetry_space_group_name_H-M   'P 1'
_cell_length_a   10.57323000
_cell_length_b   10.57542000
_cell_length_c   11.40211000
_cell_angle_alpha   73.52201000
_cell_angle_beta   73.50239000
_cell_angle_gamma   66.94606000
_symmetry_Int_Tables_number   1
_chemical_formula_structural   NaCuH8(C2O)8
_chemical_formula_sum   'Na2 Cu2 H16 C32 O16'
_cell_volume   1103.13024745
_cell_formula_units_Z   2
loop_
 _symmetry_equiv_pos_site_id
 _symmetry_equiv_pos_as_xyz
  1  'x, y, z'
loop_
 _atom_site_type_symbol
 _atom_site_label
 _atom_site_symmetry_multiplicity
 _atom_site_fract_x
 _atom_site_fract_y
 _atom_site_fract_z
 _atom_site_occupancy
  Na  Na0  1  0.00615000  0.00004000  0.49727000  1
  Na  Na1  1  0.00019000  0.99387000  0.99981000  1
  Cu  Cu2  1  0.86964000  0.13000000  0.25011000  1
  Cu  Cu3  1  0.13799000  0.86256000  0.74883000  1
  H  H4  1  0.87469000  0.76439000  0.14847000  1
  H  H5  1  0.85484000  0.53167000  0.17137000  1
  H  H6  1  0.82435000  0.45744000  0.56744000  1
  H  H7  1  0.84109000  0.69299000  0.54650000  1
  H  H8  1  0.23522000  0.12525000  0.35071000  1
  H  H9  1  0.46775000  0.14519000  0.32813000  1
  H  H10  1  0.54306000  0.17570000  0.93218000  1
  H  H11  1  0.30777000  0.15883000  0.95243000  1
  H  H12  1  0.12309000  0.22972000  0.85289000  1
  H  H13  1  0.14122000  0.46116000  0.83780000  1
  H  H14  1  0.17600000  0.54776000  0.44020000  1
  H  H15  1  0.15863000  0.31395000  0.45432000  1
  H  H16  1  0.77097000  0.87685000  0.64604000  1
  H  H17  1  0.53948000  0.85889000  0.66079000  1
  H  H18  1  0.45236000  0.82407000  0.05860000  1
  H  H19  1  0.68612000  0.84118000  0.04467000  1
  C  C20  1  0.85934000  0.74312000  0.34604000  1
  C  C21  1  0.86242000  0.69798000  0.24016000  1
  C  C22  1  0.85164000  0.56794000  0.25266000  1
  C  C23  1  0.83886000  0.48101000  0.37088000  1
  C  C24  1  0.83317000  0.52693000  0.47691000  1
  C  C25  1  0.84267000  0.65808000  0.46493000  1
  C  C26  1  0.87233000  0.88215000  0.32586000  1
  C  C27  1  0.84182000  0.33539000  0.38084000  1
  C  C28  1  0.25680000  0.14057000  0.15306000  1
  C  C29  1  0.30170000  0.13754000  0.25904000  1
  C  C30  1  0.43168000  0.14832000  0.24678000  1
  C  C31  1  0.51899000  0.16108000  0.12882000  1
  C  C32  1  0.47338000  0.16674000  0.02261000  1
  C  C33  1  0.34221000  0.15727000  0.03426000  1
  C  C34  1  0.11757000  0.12760000  0.17369000  1
  C  C35  1  0.66442000  0.15795000  0.11996000  1
  C  C36  1  0.14173000  0.25644000  0.65387000  1
  C  C37  1  0.13606000  0.29814000  0.76235000  1
  C  C38  1  0.14549000  0.42810000  0.75439000  1
  C  C39  1  0.15910000  0.51833000  0.63796000  1
  C  C40  1  0.16626000  0.47626000  0.52944000  1
  C  C41  1  0.15675000  0.34619000  0.53744000  1
  C  C42  1  0.13508000  0.11685000  0.65910000  1
  C  C43  1  0.15703000  0.66378000  0.62809000  1
  C  C44  1  0.74396000  0.85796000  0.84500000  1
  C  C45  1  0.70232000  0.86386000  0.73646000  1
  C  C46  1  0.57230000  0.85464000  0.74430000  1
  C  C47  1  0.48193000  0.84111000  0.86068000  1
  C  C48  1  0.52387000  0.83383000  0.96931000  1
  C  C49  1  0.65405000  0.84313000  0.96142000  1
  C  C50  1  0.88365000  0.86446000  0.83967000  1
  C  C51  1  0.33664000  0.84314000  0.87012000  1
  O  O52  1  0.92457000  0.93564000  0.21498000  1
  O  O53  1  0.82962000  0.95556000  0.41033000  1
  O  O54  1  0.86817000  0.24288000  0.47570000  1
  O  O55  1  0.81922000  0.31701000  0.28132000  1
  O  O56  1  0.06416000  0.07568000  0.28474000  1
  O  O57  1  0.04355000  0.17028000  0.08978000  1
  O  O58  1  0.75775000  0.13161000  0.02554000  1
  O  O59  1  0.68224000  0.18054000  0.21970000  1
  O  O60  1  0.09406000  0.04915000  0.77117000  1
  O  O61  1  0.16793000  0.06454000  0.56473000  1
  O  O62  1  0.13240000  0.75620000  0.53378000  1
  O  O63  1  0.18171000  0.67875000  0.72952000  1
  O  O64  1  0.95111000  0.90569000  0.72749000  1
  O  O65  1  0.93603000  0.83131000  0.93398000  1
  O  O66  1  0.24397000  0.86735000  0.96442000  1
  O  O67  1  0.32191000  0.81895000  0.76840000  1
