# generated using pymatgen
data_Ni2H16C24N4O9
_symmetry_space_group_name_H-M   'P 1'
_cell_length_a   14.07693000
_cell_length_b   19.67495000
_cell_length_c   19.68329000
_cell_angle_alpha   90.06185000
_cell_angle_beta   90.07183000
_cell_angle_gamma   89.92906000
_symmetry_Int_Tables_number   1
_chemical_formula_structural   Ni2H16C24N4O9
_chemical_formula_sum   'Ni16 H128 C192 N32 O72'
_cell_volume   5451.52933014
_cell_formula_units_Z   8
loop_
 _symmetry_equiv_pos_site_id
 _symmetry_equiv_pos_as_xyz
  1  'x, y, z'
loop_
 _atom_site_type_symbol
 _atom_site_label
 _atom_site_symmetry_multiplicity
 _atom_site_fract_x
 _atom_site_fract_y
 _atom_site_fract_z
 _atom_site_occupancy
  Ni  Ni0  1  0.83420000  0.38517000  0.95893000  1
  Ni  Ni1  1  0.83419000  0.11518000  0.53971000  1
  Ni  Ni2  1  0.83232000  0.54032000  0.38509000  1
  Ni  Ni3  1  0.83334000  0.95919000  0.11479000  1
  Ni  Ni4  1  0.66449000  0.61477000  0.45979000  1
  Ni  Ni5  1  0.66557000  0.88507000  0.03998000  1
  Ni  Ni6  1  0.66530000  0.45939000  0.88446000  1
  Ni  Ni7  1  0.66792000  0.04153000  0.61498000  1
  Ni  Ni8  1  0.16556000  0.61451000  0.04033000  1
  Ni  Ni9  1  0.16711000  0.88510000  0.45977000  1
  Ni  Ni10  1  0.16505000  0.45998000  0.61460000  1
  Ni  Ni11  1  0.16440000  0.03886000  0.88464000  1
  Ni  Ni12  1  0.33234000  0.38510000  0.54018000  1
  Ni  Ni13  1  0.33203000  0.11452000  0.95835000  1
  Ni  Ni14  1  0.33322000  0.54011000  0.11488000  1
  Ni  Ni15  1  0.33369000  0.96057000  0.38519000  1
  H  H16  1  0.12319000  0.45601000  0.91342000  1
  H  H17  1  0.27760000  0.49120000  0.86105000  1
  H  H18  1  0.29496000  0.48651000  0.73429000  1
  H  H19  1  0.01741000  0.42027000  0.71097000  1
  H  H20  1  0.88796000  0.61147000  0.80937000  1
  H  H21  1  0.03864000  0.68001000  0.79923000  1
  H  H22  1  0.15279000  0.68211000  0.89774000  1
  H  H23  1  0.98221000  0.55405000  0.00911000  1
  H  H24  1  0.12053000  0.04510000  0.58644000  1
  H  H25  1  0.27515000  0.00901000  0.63797000  1
  H  H26  1  0.29379000  0.01280000  0.76482000  1
  H  H27  1  0.01683000  0.08033000  0.78922000  1
  H  H28  1  0.88995000  0.88911000  0.69064000  1
  H  H29  1  0.03999000  0.81943000  0.70052000  1
  H  H30  1  0.15368000  0.81692000  0.60207000  1
  H  H31  1  0.98350000  0.94580000  0.49066000  1
  H  H32  1  0.12105000  0.58589000  0.45598000  1
  H  H33  1  0.27587000  0.63724000  0.49152000  1
  H  H34  1  0.29543000  0.76388000  0.48623000  1
  H  H35  1  0.01850000  0.78902000  0.41896000  1
  H  H36  1  0.88825000  0.69144000  0.61174000  1
  H  H37  1  0.03901000  0.70117000  0.68071000  1
  H  H38  1  0.15278000  0.60257000  0.68262000  1
  H  H39  1  0.98203000  0.49166000  0.55357000  1
  H  H40  1  0.11966000  0.91274000  0.04389000  1
  H  H41  1  0.27528000  0.86174000  0.00953000  1
  H  H42  1  0.29557000  0.73508000  0.01529000  1
  H  H43  1  0.01826000  0.70957000  0.08069000  1
  H  H44  1  0.88830000  0.80894000  0.88912000  1
  H  H45  1  0.03827000  0.79844000  0.81980000  1
  H  H46  1  0.15231000  0.89677000  0.81707000  1
  H  H47  1  0.98292000  0.00890000  0.94584000  1
  H  H48  1  0.37891000  0.54465000  0.41324000  1
  H  H49  1  0.22423000  0.50810000  0.36188000  1
  H  H50  1  0.20500000  0.51264000  0.23502000  1
  H  H51  1  0.48087000  0.58138000  0.21031000  1
  H  H52  1  0.60922000  0.38828000  0.30884000  1
  H  H53  1  0.45906000  0.31894000  0.29920000  1
  H  H54  1  0.34569000  0.31672000  0.39782000  1
  H  H55  1  0.51668000  0.44500000  0.50927000  1
  H  H56  1  0.38012000  0.95610000  0.08667000  1
  H  H57  1  0.22460000  0.99126000  0.13735000  1
  H  H58  1  0.20454000  0.98634000  0.26404000  1
  H  H59  1  0.48151000  0.91952000  0.28992000  1
  H  H60  1  0.61026000  0.11015000  0.18953000  1
  H  H61  1  0.46017000  0.17985000  0.19983000  1
  H  H62  1  0.34668000  0.18316000  0.10105000  1
  H  H63  1  0.51673000  0.05495000  0.98885000  1
  H  H64  1  0.37797000  0.41338000  0.95587000  1
  H  H65  1  0.22344000  0.36205000  0.99179000  1
  H  H66  1  0.20365000  0.23534000  0.98544000  1
  H  H67  1  0.48008000  0.21046000  0.91740000  1
  H  H68  1  0.61049000  0.30892000  0.11039000  1
  H  H69  1  0.46101000  0.29952000  0.18043000  1
  H  H70  1  0.34745000  0.39830000  0.18300000  1
  H  H71  1  0.51698000  0.50936000  0.05399000  1
  H  H72  1  0.38010000  0.08653000  0.54416000  1
  H  H73  1  0.22473000  0.13716000  0.50859000  1
  H  H74  1  0.20387000  0.26376000  0.51352000  1
  H  H75  1  0.48064000  0.28999000  0.58075000  1
  H  H76  1  0.61088000  0.19017000  0.38851000  1
  H  H77  1  0.46026000  0.20072000  0.31958000  1
  H  H78  1  0.34564000  0.10272000  0.31766000  1
  H  H79  1  0.51646000  0.99042000  0.44541000  1
  H  H80  1  0.87728000  0.54353000  0.08609000  1
  H  H81  1  0.72279000  0.50792000  0.13802000  1
  H  H82  1  0.70414000  0.51355000  0.26471000  1
  H  H83  1  0.98117000  0.58043000  0.28882000  1
  H  H84  1  0.11132000  0.38865000  0.19047000  1
  H  H85  1  0.96081000  0.31986000  0.20055000  1
  H  H86  1  0.84687000  0.31753000  0.10197000  1
  H  H87  1  0.01758000  0.44532000  0.99038000  1
  H  H88  1  0.87931000  0.95603000  0.41369000  1
  H  H89  1  0.72448000  0.99176000  0.36218000  1
  H  H90  1  0.70499000  0.98650000  0.23550000  1
  H  H91  1  0.98151000  0.91829000  0.21089000  1
  H  H92  1  0.10980000  0.11079000  0.30916000  1
  H  H93  1  0.95961000  0.18038000  0.29942000  1
  H  H94  1  0.84617000  0.18284000  0.39803000  1
  H  H95  1  0.01699000  0.05416000  0.50928000  1
  H  H96  1  0.87669000  0.41395000  0.54383000  1
  H  H97  1  0.72268000  0.36183000  0.50751000  1
  H  H98  1  0.70475000  0.23506000  0.51188000  1
  H  H99  1  0.98140000  0.21131000  0.58036000  1
  H  H100  1  0.11007000  0.30902000  0.38808000  1
  H  H101  1  0.95942000  0.29951000  0.31889000  1
  H  H102  1  0.84585000  0.39825000  0.31695000  1
  H  H103  1  0.01743000  0.50951000  0.44497000  1
  H  H104  1  0.87920000  0.08640000  0.95631000  1
  H  H105  1  0.72443000  0.13844000  0.99172000  1
  H  H106  1  0.70538000  0.26513000  0.98542000  1
  H  H107  1  0.98196000  0.28874000  0.91740000  1
  H  H108  1  0.11046000  0.18995000  0.10989000  1
  H  H109  1  0.96080000  0.20030000  0.17963000  1
  H  H110  1  0.84725000  0.10173000  0.18286000  1
  H  H111  1  0.01726000  0.98915000  0.05500000  1
  H  H112  1  0.62001000  0.45504000  0.58577000  1
  H  H113  1  0.77455000  0.49127000  0.63728000  1
  H  H114  1  0.79393000  0.48682000  0.76400000  1
  H  H115  1  0.51736000  0.41902000  0.78859000  1
  H  H116  1  0.39015000  0.61195000  0.69143000  1
  H  H117  1  0.54071000  0.68084000  0.70077000  1
  H  H118  1  0.65363000  0.68282000  0.60186000  1
  H  H119  1  0.48229000  0.55419000  0.49117000  1
  H  H120  1  0.61949000  0.04338000  0.91336000  1
  H  H121  1  0.77537000  0.00904000  0.86290000  1
  H  H122  1  0.79649000  0.01531000  0.73643000  1
  H  H123  1  0.51927000  0.08148000  0.71010000  1
  H  H124  1  0.38836000  0.88864000  0.80965000  1
  H  H125  1  0.53920000  0.82015000  0.79923000  1
  H  H126  1  0.65297000  0.81726000  0.89778000  1
  H  H127  1  0.48228000  0.94482000  0.01016000  1
  H  H128  1  0.61967000  0.58648000  0.04451000  1
  H  H129  1  0.77423000  0.63770000  0.00821000  1
  H  H130  1  0.79365000  0.76443000  0.01324000  1
  H  H131  1  0.51750000  0.78953000  0.08184000  1
  H  H132  1  0.38939000  0.69079000  0.88960000  1
  H  H133  1  0.53912000  0.70033000  0.81981000  1
  H  H134  1  0.65243000  0.60138000  0.81689000  1
  H  H135  1  0.48251000  0.49025000  0.94566000  1
  H  H136  1  0.62037000  0.91364000  0.45515000  1
  H  H137  1  0.77475000  0.86170000  0.49117000  1
  H  H138  1  0.79339000  0.73495000  0.48654000  1
  H  H139  1  0.51656000  0.71092000  0.41869000  1
  H  H140  1  0.39035000  0.81042000  0.61146000  1
  H  H141  1  0.54083000  0.80015000  0.68059000  1
  H  H142  1  0.65481000  0.89848000  0.68285000  1
  H  H143  1  0.48408000  0.01045000  0.55482000  1
  C  C144  1  0.96092000  0.41249000  0.83984000  1
  C  C145  1  0.05847000  0.43412000  0.81576000  1
  C  C146  1  0.13242000  0.45482000  0.85856000  1
  C  C147  1  0.21827000  0.47497000  0.82955000  1
  C  C148  1  0.22867000  0.47369000  0.75918000  1
  C  C149  1  0.07369000  0.43518000  0.74569000  1
  C  C150  1  0.84036000  0.53010000  0.92145000  1
  C  C151  1  0.92303000  0.57759000  0.91061000  1
  C  C152  1  0.93901000  0.61421000  0.85087000  1
  C  C153  1  0.02246000  0.65225000  0.84553000  1
  C  C154  1  0.08667000  0.65361000  0.89957000  1
  C  C155  1  0.99135000  0.58149000  0.96200000  1
  C  C156  1  0.95921000  0.08958000  0.66089000  1
  C  C157  1  0.05676000  0.06677000  0.68437000  1
  C  C158  1  0.13017000  0.04588000  0.64127000  1
  C  C159  1  0.21623000  0.02521000  0.66984000  1
  C  C160  1  0.22728000  0.02588000  0.74018000  1
  C  C161  1  0.07268000  0.06515000  0.75434000  1
  C  C162  1  0.84240000  0.97071000  0.57920000  1
  C  C163  1  0.92482000  0.92279000  0.58940000  1
  C  C164  1  0.94081000  0.88605000  0.64913000  1
  C  C165  1  0.02384000  0.84740000  0.65430000  1
  C  C166  1  0.08771000  0.84573000  0.60019000  1
  C  C167  1  0.99261000  0.91840000  0.53783000  1
  C  C168  1  0.95940000  0.66071000  0.41203000  1
  C  C169  1  0.05773000  0.68400000  0.43340000  1
  C  C170  1  0.13091000  0.64071000  0.45454000  1
  C  C171  1  0.21717000  0.66917000  0.47487000  1
  C  C172  1  0.22876000  0.73946000  0.47333000  1
  C  C173  1  0.07429000  0.75401000  0.43419000  1
  C  C174  1  0.84036000  0.57954000  0.53003000  1
  C  C175  1  0.92310000  0.59021000  0.57761000  1
  C  C176  1  0.93926000  0.64989000  0.61445000  1
  C  C177  1  0.02271000  0.65497000  0.65267000  1
  C  C178  1  0.08669000  0.60077000  0.65395000  1
  C  C179  1  0.99125000  0.53865000  0.58135000  1
  C  C180  1  0.95897000  0.83817000  0.08803000  1
  C  C181  1  0.05696000  0.81479000  0.06643000  1
  C  C182  1  0.13004000  0.85800000  0.04546000  1
  C  C183  1  0.21666000  0.82970000  0.02576000  1
  C  C184  1  0.22857000  0.75944000  0.02751000  1
  C  C185  1  0.07365000  0.74486000  0.06572000  1
  C  C186  1  0.84071000  0.92144000  0.96990000  1
  C  C187  1  0.92349000  0.91032000  0.92261000  1
  C  C188  1  0.93928000  0.85038000  0.88606000  1
  C  C189  1  0.02235000  0.84482000  0.84764000  1
  C  C190  1  0.08640000  0.89882000  0.84582000  1
  C  C191  1  0.99165000  0.96161000  0.91846000  1
  C  C192  1  0.53900000  0.58913000  0.33930000  1
  C  C193  1  0.44166000  0.56687000  0.31527000  1
  C  C194  1  0.36870000  0.54560000  0.35846000  1
  C  C195  1  0.28273000  0.52480000  0.32997000  1
  C  C196  1  0.27136000  0.52597000  0.25966000  1
  C  C197  1  0.42542000  0.56591000  0.24533000  1
  C  C198  1  0.65765000  0.46965000  0.42056000  1
  C  C199  1  0.57499000  0.42201000  0.41025000  1
  C  C200  1  0.55854000  0.38536000  0.35047000  1
  C  C201  1  0.47539000  0.34692000  0.34542000  1
  C  C202  1  0.41169000  0.34543000  0.39963000  1
  C  C203  1  0.50736000  0.41776000  0.46196000  1
  C  C204  1  0.54086000  0.91197000  0.16183000  1
  C  C205  1  0.44274000  0.93378000  0.18487000  1
  C  C206  1  0.36974000  0.95475000  0.14139000  1
  C  C207  1  0.28321000  0.97489000  0.16949000  1
  C  C208  1  0.27132000  0.97355000  0.23973000  1
  C  C209  1  0.42596000  0.93471000  0.25473000  1
  C  C210  1  0.65806000  0.02951000  0.07783000  1
  C  C211  1  0.57554000  0.07736000  0.08795000  1
  C  C212  1  0.55940000  0.11365000  0.14798000  1
  C  C213  1  0.47639000  0.15229000  0.15332000  1
  C  C214  1  0.41262000  0.15433000  0.09903000  1
  C  C215  1  0.50777000  0.08206000  0.03626000  1
  C  C216  1  0.53894000  0.33905000  0.91093000  1
  C  C217  1  0.44103000  0.31542000  0.93256000  1
  C  C218  1  0.36800000  0.35859000  0.95423000  1
  C  C219  1  0.28187000  0.33013000  0.97464000  1
  C  C220  1  0.27018000  0.25987000  0.97246000  1
  C  C221  1  0.42445000  0.24548000  0.93288000  1
  C  C222  1  0.65822000  0.42050000  0.02907000  1
  C  C223  1  0.57585000  0.41041000  0.07694000  1
  C  C224  1  0.55986000  0.35066000  0.11361000  1
  C  C225  1  0.47706000  0.34568000  0.15238000  1
  C  C226  1  0.41322000  0.39993000  0.15407000  1
  C  C227  1  0.50806000  0.46213000  0.08134000  1
  C  C228  1  0.54089000  0.16200000  0.58793000  1
  C  C229  1  0.44236000  0.18485000  0.56661000  1
  C  C230  1  0.36961000  0.14130000  0.54552000  1
  C  C231  1  0.28313000  0.16938000  0.52504000  1
  C  C232  1  0.27086000  0.23964000  0.52635000  1
  C  C233  1  0.42522000  0.25474000  0.56560000  1
  C  C234  1  0.65830000  0.07824000  0.46967000  1
  C  C235  1  0.57566000  0.08894000  0.42208000  1
  C  C236  1  0.55974000  0.14881000  0.38556000  1
  C  C237  1  0.47629000  0.15440000  0.34743000  1
  C  C238  1  0.41189000  0.10059000  0.34611000  1
  C  C239  1  0.50740000  0.03768000  0.41812000  1
  C  C240  1  0.03899000  0.58759000  0.15999000  1
  C  C241  1  0.94116000  0.56618000  0.18390000  1
  C  C242  1  0.86768000  0.54500000  0.14091000  1
  C  C243  1  0.78171000  0.52466000  0.16966000  1
  C  C244  1  0.77058000  0.52634000  0.23995000  1
  C  C245  1  0.92520000  0.56541000  0.25390000  1
  C  C246  1  0.15896000  0.46960000  0.07827000  1
  C  C247  1  0.07637000  0.42216000  0.08910000  1
  C  C248  1  0.06033000  0.38572000  0.14895000  1
  C  C249  1  0.97698000  0.34758000  0.15422000  1
  C  C250  1  0.91296000  0.34605000  0.10007000  1
  C  C251  1  0.00832000  0.41804000  0.03758000  1
  C  C252  1  0.04068000  0.91176000  0.33919000  1
  C  C253  1  0.94248000  0.93327000  0.31578000  1
  C  C254  1  0.86933000  0.95461000  0.35889000  1
  C  C255  1  0.78313000  0.97502000  0.33032000  1
  C  C256  1  0.77158000  0.97343000  0.26003000  1
  C  C257  1  0.92588000  0.93378000  0.24582000  1
  C  C258  1  0.15794000  0.02962000  0.42084000  1
  C  C259  1  0.07531000  0.07731000  0.41051000  1
  C  C260  1  0.05906000  0.11390000  0.35075000  1
  C  C261  1  0.97593000  0.15244000  0.34562000  1
  C  C262  1  0.91217000  0.15409000  0.39979000  1
  C  C263  1  0.00762000  0.08157000  0.46214000  1
  C  C264  1  0.03892000  0.33962000  0.58768000  1
  C  C265  1  0.94105000  0.31606000  0.56594000  1
  C  C266  1  0.86746000  0.35907000  0.54490000  1
  C  C267  1  0.78169000  0.33020000  0.52415000  1
  C  C268  1  0.77098000  0.25983000  0.52522000  1
  C  C269  1  0.92533000  0.24604000  0.56500000  1
  C  C270  1  0.15783000  0.42066000  0.46965000  1
  C  C271  1  0.07547000  0.41053000  0.42176000  1
  C  C272  1  0.05925000  0.35069000  0.38514000  1
  C  C273  1  0.97590000  0.34571000  0.34683000  1
  C  C274  1  0.91202000  0.39997000  0.34550000  1
  C  C275  1  0.00778000  0.46231000  0.41762000  1
  C  C276  1  0.03932000  0.15977000  0.91037000  1
  C  C277  1  0.94216000  0.18407000  0.93274000  1
  C  C278  1  0.86915000  0.14120000  0.95456000  1
  C  C279  1  0.78317000  0.17005000  0.97484000  1
  C  C280  1  0.77194000  0.24038000  0.97279000  1
  C  C281  1  0.92620000  0.25408000  0.93313000  1
  C  C282  1  0.15785000  0.07788000  0.02916000  1
  C  C283  1  0.07571000  0.08827000  0.07713000  1
  C  C284  1  0.05975000  0.14836000  0.11339000  1
  C  C285  1  0.97691000  0.15380000  0.15203000  1
  C  C286  1  0.91313000  0.09962000  0.15410000  1
  C  C287  1  0.00811000  0.03662000  0.08197000  1
  C  C288  1  0.45901000  0.41076000  0.66067000  1
  C  C289  1  0.55687000  0.43305000  0.68380000  1
  C  C290  1  0.62991000  0.45409000  0.64059000  1
  C  C291  1  0.71591000  0.47482000  0.66918000  1
  C  C292  1  0.72735000  0.47373000  0.73950000  1
  C  C293  1  0.57315000  0.43428000  0.75376000  1
  C  C294  1  0.34134000  0.53028000  0.57953000  1
  C  C295  1  0.42411000  0.57784000  0.59002000  1
  C  C296  1  0.44067000  0.61468000  0.64968000  1
  C  C297  1  0.52402000  0.65292000  0.65457000  1
  C  C298  1  0.58754000  0.65426000  0.60026000  1
  C  C299  1  0.49172000  0.58173000  0.53828000  1
  C  C300  1  0.45885000  0.08790000  0.83779000  1
  C  C301  1  0.55730000  0.06642000  0.81510000  1
  C  C302  1  0.63010000  0.04527000  0.85867000  1
  C  C303  1  0.71695000  0.02562000  0.83071000  1
  C  C304  1  0.72943000  0.02774000  0.76054000  1
  C  C305  1  0.57472000  0.06624000  0.74533000  1
  C  C306  1  0.34028000  0.96939000  0.92198000  1
  C  C307  1  0.42288000  0.92171000  0.91140000  1
  C  C308  1  0.43913000  0.88552000  0.85131000  1
  C  C309  1  0.52275000  0.84758000  0.84574000  1
  C  C310  1  0.58676000  0.84577000  0.89984000  1
  C  C311  1  0.49103000  0.91753000  0.96284000  1
  C  C312  1  0.45891000  0.66103000  0.08930000  1
  C  C313  1  0.55662000  0.68451000  0.06706000  1
  C  C314  1  0.62971000  0.64127000  0.04573000  1
  C  C315  1  0.71575000  0.66967000  0.02512000  1
  C  C316  1  0.72722000  0.73997000  0.02656000  1
  C  C317  1  0.57306000  0.75448000  0.06633000  1
  C  C318  1  0.34173000  0.57906000  0.97063000  1
  C  C319  1  0.42403000  0.58924000  0.92281000  1
  C  C320  1  0.44005000  0.64907000  0.88630000  1
  C  C321  1  0.52295000  0.65408000  0.84766000  1
  C  C322  1  0.58660000  0.59972000  0.84574000  1
  C  C323  1  0.49165000  0.53745000  0.91832000  1
  C  C324  1  0.45881000  0.83967000  0.41098000  1
  C  C325  1  0.55654000  0.81582000  0.43289000  1
  C  C326  1  0.62996000  0.85879000  0.45397000  1
  C  C327  1  0.71589000  0.83000000  0.47458000  1
  C  C328  1  0.72695000  0.75964000  0.47339000  1
  C  C329  1  0.57246000  0.74576000  0.43392000  1
  C  C330  1  0.34230000  0.92206000  0.53034000  1
  C  C331  1  0.42512000  0.91173000  0.57795000  1
  C  C332  1  0.44132000  0.85187000  0.61447000  1
  C  C333  1  0.52470000  0.84645000  0.65269000  1
  C  C334  1  0.58874000  0.90050000  0.65419000  1
  C  C335  1  0.49316000  0.96319000  0.58211000  1
  N  N336  1  0.15670000  0.45446000  0.71803000  1
  N  N337  1  0.07082000  0.61879000  0.95737000  1
  N  N338  1  0.15569000  0.04504000  0.78160000  1
  N  N339  1  0.07183000  0.88067000  0.54243000  1
  N  N340  1  0.15763000  0.78121000  0.45369000  1
  N  N341  1  0.07072000  0.54305000  0.61879000  1
  N  N342  1  0.15723000  0.71783000  0.04662000  1
  N  N343  1  0.07066000  0.95671000  0.88072000  1
  N  N344  1  0.34236000  0.54587000  0.21815000  1
  N  N345  1  0.42794000  0.38038000  0.45741000  1
  N  N346  1  0.34248000  0.95423000  0.28156000  1
  N  N347  1  0.42850000  0.11973000  0.04101000  1
  N  N348  1  0.34116000  0.21828000  0.95229000  1
  N  N349  1  0.42897000  0.45763000  0.11904000  1
  N  N350  1  0.34171000  0.28156000  0.54593000  1
  N  N351  1  0.42779000  0.04272000  0.38090000  1
  N  N352  1  0.84204000  0.54602000  0.28132000  1
  N  N353  1  0.92891000  0.38071000  0.04218000  1
  N  N354  1  0.84260000  0.95335000  0.21852000  1
  N  N355  1  0.92830000  0.11916000  0.45754000  1
  N  N356  1  0.84246000  0.21856000  0.54512000  1
  N  N357  1  0.92814000  0.45778000  0.38040000  1
  N  N358  1  0.84319000  0.28166000  0.95282000  1
  N  N359  1  0.92895000  0.04154000  0.11958000  1
  N  N360  1  0.65626000  0.45406000  0.78105000  1
  N  N361  1  0.57104000  0.61920000  0.54257000  1
  N  N362  1  0.65857000  0.04737000  0.71860000  1
  N  N363  1  0.57063000  0.88032000  0.95785000  1
  N  N364  1  0.65620000  0.78159000  0.04652000  1
  N  N365  1  0.57063000  0.54190000  0.88053000  1
  N  N366  1  0.65551000  0.71830000  0.45372000  1
  N  N367  1  0.57268000  0.95839000  0.61947000  1
  O  O368  1  0.95655000  0.39784000  0.90407000  1
  O  O369  1  0.89514000  0.41095000  0.79784000  1
  O  O370  1  0.84736000  0.49105000  0.97254000  1
  O  O371  1  0.77249000  0.53225000  0.87850000  1
  O  O372  1  0.95367000  0.10128000  0.59603000  1
  O  O373  1  0.89503000  0.09444000  0.70370000  1
  O  O374  1  0.84776000  0.00948000  0.52784000  1
  O  O375  1  0.77601000  0.96937000  0.62315000  1
  O  O376  1  0.95332000  0.59637000  0.39772000  1
  O  O377  1  0.89477000  0.70360000  0.41071000  1
  O  O378  1  0.84729000  0.52838000  0.49104000  1
  O  O379  1  0.77254000  0.62260000  0.53209000  1
  O  O380  1  0.95312000  0.90276000  0.10107000  1
  O  O381  1  0.89464000  0.79523000  0.09090000  1
  O  O382  1  0.84741000  0.97243000  0.00923000  1
  O  O383  1  0.77283000  0.87860000  0.96695000  1
  O  O384  1  0.54324000  0.60214000  0.40402000  1
  O  O385  1  0.60431000  0.59250000  0.29715000  1
  O  O386  1  0.65216000  0.50859000  0.47187000  1
  O  O387  1  0.72436000  0.46784000  0.37687000  1
  O  O388  1  0.54663000  0.89899000  0.09722000  1
  O  O389  1  0.60513000  0.90891000  0.20487000  1
  O  O390  1  0.65221000  0.99034000  0.02667000  1
  O  O391  1  0.72472000  0.03127000  0.12167000  1
  O  O392  1  0.54353000  0.40349000  0.89676000  1
  O  O393  1  0.60434000  0.29670000  0.90912000  1
  O  O394  1  0.65208000  0.47155000  0.98989000  1
  O  O395  1  0.72520000  0.37695000  0.03093000  1
  O  O396  1  0.54721000  0.09766000  0.60209000  1
  O  O397  1  0.60517000  0.20506000  0.58947000  1
  O  O398  1  0.65244000  0.02711000  0.50867000  1
  O  O399  1  0.72525000  0.12177000  0.46765000  1
  O  O400  1  0.04356000  0.60174000  0.09562000  1
  O  O401  1  0.10461000  0.58922000  0.20211000  1
  O  O402  1  0.15244000  0.50857000  0.02709000  1
  O  O403  1  0.22653000  0.46754000  0.12145000  1
  O  O404  1  0.04678000  0.89888000  0.40377000  1
  O  O405  1  0.10506000  0.90901000  0.29630000  1
  O  O406  1  0.15243000  0.99071000  0.47202000  1
  O  O407  1  0.22460000  0.03149000  0.37705000  1
  O  O408  1  0.04353000  0.40397000  0.60220000  1
  O  O409  1  0.10416000  0.29711000  0.58924000  1
  O  O410  1  0.15209000  0.47177000  0.50884000  1
  O  O411  1  0.22462000  0.37693000  0.46778000  1
  O  O412  1  0.04349000  0.09474000  0.89883000  1
  O  O413  1  0.10452000  0.20183000  0.90564000  1
  O  O414  1  0.15212000  0.02655000  0.99021000  1
  O  O415  1  0.22432000  0.12174000  0.03068000  1
  O  O416  1  0.45290000  0.39779000  0.59608000  1
  O  O417  1  0.39495000  0.40729000  0.70373000  1
  O  O418  1  0.34745000  0.49129000  0.52833000  1
  O  O419  1  0.27417000  0.53231000  0.62288000  1
  O  O420  1  0.45254000  0.10084000  0.90236000  1
  O  O421  1  0.39479000  0.09087000  0.79460000  1
  O  O422  1  0.34713000  0.00909000  0.97265000  1
  O  O423  1  0.27275000  0.96663000  0.87875000  1
  O  O424  1  0.45308000  0.59617000  0.10094000  1
  O  O425  1  0.39472000  0.70395000  0.09408000  1
  O  O426  1  0.34750000  0.52779000  0.00949000  1
  O  O427  1  0.27520000  0.62301000  0.96910000  1
  O  O428  1  0.45341000  0.90438000  0.39822000  1
  O  O429  1  0.39410000  0.79717000  0.40752000  1
  O  O430  1  0.34772000  0.97332000  0.49145000  1
  O  O431  1  0.27568000  0.87827000  0.53219000  1
  O  O432  1  0.75028000  0.39094000  0.88967000  1
  O  O433  1  0.75153000  0.11060000  0.60897000  1
  O  O434  1  0.74817000  0.60935000  0.39092000  1
  O  O435  1  0.74945000  0.89055000  0.10846000  1
  O  O436  1  0.24849000  0.60871000  0.10984000  1
  O  O437  1  0.25085000  0.89153000  0.39083000  1
  O  O438  1  0.24846000  0.39077000  0.60907000  1
  O  O439  1  0.24787000  0.10771000  0.88943000  1
