# generated using pymatgen
data_Zn2H21C30N3O7
_symmetry_space_group_name_H-M   'P 1'
_cell_length_a   16.42398000
_cell_length_b   17.26982000
_cell_length_c   18.57888000
_cell_angle_alpha   89.99148000
_cell_angle_beta   89.94660000
_cell_angle_gamma   84.68850000
_symmetry_Int_Tables_number   1
_chemical_formula_structural   Zn2H21C30N3O7
_chemical_formula_sum   'Zn8 H84 C120 N12 O28'
_cell_volume   5247.06861119
_cell_formula_units_Z   4
loop_
 _symmetry_equiv_pos_site_id
 _symmetry_equiv_pos_as_xyz
  1  'x, y, z'
loop_
 _atom_site_type_symbol
 _atom_site_label
 _atom_site_symmetry_multiplicity
 _atom_site_fract_x
 _atom_site_fract_y
 _atom_site_fract_z
 _atom_site_occupancy
  Zn  Zn0  1  0.50597000  0.47511000  0.43176000  1
  Zn  Zn1  1  0.32886000  0.50233000  0.44152000  1
  Zn  Zn2  1  0.49387000  0.02475000  0.93243000  1
  Zn  Zn3  1  0.67129000  0.99763000  0.93996000  1
  Zn  Zn4  1  0.49402000  0.52489000  0.56824000  1
  Zn  Zn5  1  0.67113000  0.49767000  0.55848000  1
  Zn  Zn6  1  0.50612000  0.97525000  0.06757000  1
  Zn  Zn7  1  0.32871000  0.00236000  0.06005000  1
  H  H8  1  0.56040000  0.12535000  0.16592000  1
  H  H9  1  0.27482000  0.34825000  0.34109000  1
  H  H10  1  0.86145000  0.64785000  0.47465000  1
  H  H11  1  0.69996000  0.13812000  0.12504000  1
  H  H12  1  0.84369000  0.13732000  0.16530000  1
  H  H13  1  0.87555000  0.17103000  0.29230000  1
  H  H14  1  0.76115000  0.20399000  0.37882000  1
  H  H15  1  0.61797000  0.20191000  0.34012000  1
  H  H16  1  0.29201000  0.18380000  0.21233000  1
  H  H17  1  0.54505000  0.29432000  0.29012000  1
  H  H18  1  0.14142000  0.29541000  0.38625000  1
  H  H19  1  0.00054000  0.27429000  0.34748000  1
  H  H20  1  0.96867000  0.26143000  0.21664000  1
  H  H21  1  0.07831000  0.27124000  0.12582000  1
  H  H22  1  0.21896000  0.29310000  0.16458000  1
  H  H23  1  0.08672000  0.60105000  0.45824000  1
  H  H24  1  0.85144000  0.77412000  0.41659000  1
  H  H25  1  0.02450000  0.93324000  0.48308000  1
  H  H26  1  0.89477000  0.90772000  0.42109000  1
  H  H27  1  0.10875000  0.82356000  0.54158000  1
  H  H28  1  0.06582000  0.69041000  0.53782000  1
  H  H29  1  0.43977000  0.37453000  0.66565000  1
  H  H30  1  0.72511000  0.15165000  0.84071000  1
  H  H31  1  0.13817000  0.85155000  0.97662000  1
  H  H32  1  0.30031000  0.36198000  0.62509000  1
  H  H33  1  0.15665000  0.36282000  0.66553000  1
  H  H34  1  0.12469000  0.32882000  0.79253000  1
  H  H35  1  0.23906000  0.29582000  0.87893000  1
  H  H36  1  0.38225000  0.29776000  0.84001000  1
  H  H37  1  0.70829000  0.31619000  0.71205000  1
  H  H38  1  0.45508000  0.20559000  0.78983000  1
  H  H39  1  0.85856000  0.20443000  0.88621000  1
  H  H40  1  0.99945000  0.22580000  0.84739000  1
  H  H41  1  0.03154000  0.23867000  0.71655000  1
  H  H42  1  0.92209000  0.22859000  0.62573000  1
  H  H43  1  0.78142000  0.20665000  0.66459000  1
  H  H44  1  0.91276000  0.89936000  0.95839000  1
  H  H45  1  0.14829000  0.72602000  0.91643000  1
  H  H46  1  0.97591000  0.56629000  0.98333000  1
  H  H47  1  0.10538000  0.59223000  0.92099000  1
  H  H48  1  0.89100000  0.67581000  0.04151000  1
  H  H49  1  0.93349000  0.80921000  0.03761000  1
  H  H50  1  0.43959000  0.87465000  0.83408000  1
  H  H51  1  0.72517000  0.65174000  0.65891000  1
  H  H52  1  0.13854000  0.35215000  0.52535000  1
  H  H53  1  0.30003000  0.86188000  0.87496000  1
  H  H54  1  0.15631000  0.86267000  0.83470000  1
  H  H55  1  0.12444000  0.82896000  0.70770000  1
  H  H56  1  0.23884000  0.79600000  0.62118000  1
  H  H57  1  0.38203000  0.79809000  0.65988000  1
  H  H58  1  0.70799000  0.81619000  0.78767000  1
  H  H59  1  0.45494000  0.70568000  0.70988000  1
  H  H60  1  0.85858000  0.70458000  0.61375000  1
  H  H61  1  0.99945000  0.72570000  0.65252000  1
  H  H62  1  0.03132000  0.73857000  0.78336000  1
  H  H63  1  0.92169000  0.72876000  0.87418000  1
  H  H64  1  0.78104000  0.70690000  0.83542000  1
  H  H65  1  0.91328000  0.39894000  0.54176000  1
  H  H66  1  0.14855000  0.22588000  0.58341000  1
  H  H67  1  0.97550000  0.06675000  0.51692000  1
  H  H68  1  0.10523000  0.09227000  0.57891000  1
  H  H69  1  0.89124000  0.17644000  0.45842000  1
  H  H70  1  0.93417000  0.30959000  0.46218000  1
  H  H71  1  0.56023000  0.62547000  0.33435000  1
  H  H72  1  0.27489000  0.84835000  0.15929000  1
  H  H73  1  0.86182000  0.14844000  0.02338000  1
  H  H74  1  0.69968000  0.63801000  0.37491000  1
  H  H75  1  0.84335000  0.63718000  0.33447000  1
  H  H76  1  0.87531000  0.67118000  0.20747000  1
  H  H77  1  0.76094000  0.70417000  0.12107000  1
  H  H78  1  0.61775000  0.70224000  0.15999000  1
  H  H79  1  0.29170000  0.68381000  0.28795000  1
  H  H80  1  0.54491000  0.79440000  0.21017000  1
  H  H81  1  0.14143000  0.79556000  0.11379000  1
  H  H82  1  0.00055000  0.77420000  0.15261000  1
  H  H83  1  0.96846000  0.76133000  0.28345000  1
  H  H84  1  0.07790000  0.77140000  0.37427000  1
  H  H85  1  0.21858000  0.79334000  0.33541000  1
  H  H86  1  0.08724000  0.10064000  0.04161000  1
  H  H87  1  0.85170000  0.27398000  0.08357000  1
  H  H88  1  0.02408000  0.43370000  0.01667000  1
  H  H89  1  0.89461000  0.40777000  0.07901000  1
  H  H90  1  0.10900000  0.32419000  0.95849000  1
  H  H91  1  0.06651000  0.19078000  0.96239000  1
  C  C92  1  0.71359000  0.15299000  0.18050000  1
  C  C93  1  0.79439000  0.15273000  0.20337000  1
  C  C94  1  0.81233000  0.17179000  0.27458000  1
  C  C95  1  0.74819000  0.19043000  0.32301000  1
  C  C96  1  0.66695000  0.19062000  0.30113000  1
  C  C97  1  0.64883000  0.17253000  0.22925000  1
  C  C98  1  0.49597000  0.20261000  0.22851000  1
  C  C99  1  0.42099000  0.17362000  0.20534000  1
  C  C100  1  0.34689000  0.20937000  0.22924000  1
  C  C101  1  0.34140000  0.27423000  0.27601000  1
  C  C102  1  0.41611000  0.30368000  0.29858000  1
  C  C103  1  0.49032000  0.26820000  0.27406000  1
  C  C104  1  0.41853000  0.10403000  0.15697000  1
  C  C105  1  0.41864000  0.37197000  0.34798000  1
  C  C106  1  0.18936000  0.29374000  0.27799000  1
  C  C107  1  0.12691000  0.29028000  0.32942000  1
  C  C108  1  0.04798000  0.27838000  0.30717000  1
  C  C109  1  0.03030000  0.27055000  0.23402000  1
  C  C110  1  0.09214000  0.27540000  0.18282000  1
  C  C111  1  0.17134000  0.28709000  0.20435000  1
  C  C112  1  0.17586000  0.46855000  0.47963000  1
  C  C113  1  0.08517000  0.48337000  0.49041000  1
  C  C114  1  0.04814000  0.55798000  0.47816000  1
  C  C115  1  0.96360000  0.57696000  0.48765000  1
  C  C116  1  0.95575000  0.72253000  0.47604000  1
  C  C117  1  0.90780000  0.78536000  0.44391000  1
  C  C118  1  0.00502000  0.87476000  0.48149000  1
  C  C119  1  0.93236000  0.86033000  0.44667000  1
  C  C120  1  0.05254000  0.81291000  0.51375000  1
  C  C121  1  0.02888000  0.73735000  0.51118000  1
  C  C122  1  0.28670000  0.34693000  0.68054000  1
  C  C123  1  0.20590000  0.34719000  0.70352000  1
  C  C124  1  0.18792000  0.32802000  0.77472000  1
  C  C125  1  0.25202000  0.30932000  0.82308000  1
  C  C126  1  0.33333333  0.30909000  0.80111000  1
  C  C127  1  0.35140000  0.32730000  0.72922000  1
  C  C128  1  0.50420000  0.29738000  0.72836000  1
  C  C129  1  0.57918000  0.32633000  0.70487000  1
  C  C130  1  0.65324000  0.29085000  0.72900000  1
  C  C131  1  0.65873000  0.22598000  0.77584000  1
  C  C132  1  0.58406000  0.19630000  0.79839000  1
  C  C133  1  0.50989000  0.23176000  0.77398000  1
  C  C134  1  0.58158000  0.39536000  0.65568000  1
  C  C135  1  0.58188000  0.12788000  0.84780000  1
  C  C136  1  0.81075000  0.20635000  0.77796000  1
  C  C137  1  0.87311000  0.20974000  0.82938000  1
  C  C138  1  0.95207000  0.22167000  0.80709000  1
  C  C139  1  0.96989000  0.22947000  0.73393000  1
  C  C140  1  0.90817000  0.22451000  0.68274000  1
  C  C141  1  0.82894000  0.21284000  0.70431000  1
  C  C142  1  0.82437000  0.03273000  0.97818000  1
  C  C143  1  0.91486000  0.01708000  0.99024000  1
  C  C144  1  0.95154000  0.94224000  0.97829000  1
  C  C145  1  0.03603000  0.92280000  0.98796000  1
  C  C146  1  0.04379000  0.77722000  0.97601000  1
  C  C147  1  0.09196000  0.71456000  0.94378000  1
  C  C148  1  0.99504000  0.62490000  0.98152000  1
  C  C149  1  0.06763000  0.63952000  0.94659000  1
  C  C150  1  0.94720000  0.68665000  0.01368000  1
  C  C151  1  0.97059000  0.76229000  0.01105000  1
  C  C152  1  0.28641000  0.84701000  0.81950000  1
  C  C153  1  0.20561000  0.84727000  0.79663000  1
  C  C154  1  0.18767000  0.82820000  0.72542000  1
  C  C155  1  0.25180000  0.80956000  0.67699000  1
  C  C156  1  0.33305000  0.80937000  0.69887000  1
  C  C157  1  0.35117000  0.82747000  0.77075000  1
  C  C158  1  0.50402000  0.79738000  0.77149000  1
  C  C159  1  0.57900000  0.82638000  0.79466000  1
  C  C160  1  0.65310000  0.79063000  0.77076000  1
  C  C161  1  0.65860000  0.72577000  0.72399000  1
  C  C162  1  0.58388000  0.69632000  0.70142000  1
  C  C163  1  0.50967000  0.73179000  0.72594000  1
  C  C164  1  0.58146000  0.89597000  0.84303000  1
  C  C165  1  0.58135000  0.62802000  0.65202000  1
  C  C166  1  0.81064000  0.70625000  0.72201000  1
  C  C167  1  0.87309000  0.70972000  0.67058000  1
  C  C168  1  0.95202000  0.72162000  0.69283000  1
  C  C169  1  0.96970000  0.72945000  0.76598000  1
  C  C170  1  0.90785000  0.72459000  0.81718000  1
  C  C171  1  0.82865000  0.71290000  0.79565000  1
  C  C172  1  0.82413000  0.53145000  0.52037000  1
  C  C173  1  0.91483000  0.51662000  0.50959000  1
  C  C174  1  0.95185000  0.44201000  0.52185000  1
  C  C175  1  0.03640000  0.42303000  0.51235000  1
  C  C176  1  0.04425000  0.27746000  0.52396000  1
  C  C177  1  0.09219000  0.21463000  0.55610000  1
  C  C178  1  0.99497000  0.12524000  0.51851000  1
  C  C179  1  0.06763000  0.13967000  0.55333000  1
  C  C180  1  0.94746000  0.18709000  0.48625000  1
  C  C181  1  0.97112000  0.26264000  0.48882000  1
  C  C182  1  0.71330000  0.65307000  0.31946000  1
  C  C183  1  0.79410000  0.65281000  0.29649000  1
  C  C184  1  0.81208000  0.67197000  0.22528000  1
  C  C185  1  0.74797000  0.69067000  0.17692000  1
  C  C186  1  0.66672000  0.69090000  0.19890000  1
  C  C187  1  0.64860000  0.67270000  0.27078000  1
  C  C188  1  0.49579000  0.70262000  0.27164000  1
  C  C189  1  0.42081000  0.67367000  0.29513000  1
  C  C190  1  0.34675000  0.70914000  0.27100000  1
  C  C191  1  0.34126000  0.77401000  0.22416000  1
  C  C192  1  0.41594000  0.80370000  0.20161000  1
  C  C193  1  0.49011000  0.76823000  0.22602000  1
  C  C194  1  0.41841000  0.60463000  0.34432000  1
  C  C195  1  0.41812000  0.87211000  0.15220000  1
  C  C196  1  0.18925000  0.79365000  0.22204000  1
  C  C197  1  0.12688000  0.79025000  0.17062000  1
  C  C198  1  0.04792000  0.77833000  0.19291000  1
  C  C199  1  0.03011000  0.77052000  0.26607000  1
  C  C200  1  0.09183000  0.77548000  0.31726000  1
  C  C201  1  0.17106000  0.78716000  0.29569000  1
  C  C202  1  0.17563000  0.96726000  0.02182000  1
  C  C203  1  0.08513000  0.98291000  0.00976000  1
  C  C204  1  0.04846000  0.05776000  0.02171000  1
  C  C205  1  0.96397000  0.07720000  0.01204000  1
  C  C206  1  0.95620000  0.22277000  0.02400000  1
  C  C207  1  0.90803000  0.28543000  0.05622000  1
  C  C208  1  0.00496000  0.37509000  0.01848000  1
  C  C209  1  0.93237000  0.36047000  0.05341000  1
  C  C210  1  0.05280000  0.31335000  0.98632000  1
  C  C211  1  0.02940000  0.23771000  0.98895000  1
  N  N212  1  0.56928000  0.16814000  0.20378000  1
  N  N213  1  0.26809000  0.30646000  0.30213000  1
  N  N214  1  0.92501000  0.64994000  0.47400000  1
  N  N215  1  0.43093000  0.33184000  0.70372000  1
  N  N216  1  0.73193000  0.19381000  0.80202000  1
  N  N217  1  0.07453000  0.84982000  0.97428000  1
  N  N218  1  0.43071000  0.83185000  0.79622000  1
  N  N219  1  0.73191000  0.69354000  0.69787000  1
  N  N220  1  0.07498000  0.35005000  0.52600000  1
  N  N221  1  0.56906000  0.66815000  0.29629000  1
  N  N222  1  0.26806000  0.80619000  0.19798000  1
  N  N223  1  0.92546000  0.15018000  0.02572000  1
  O  O224  1  0.49009000  0.39063000  0.36373000  1
  O  O225  1  0.35092000  0.40573000  0.37066000  1
  O  O226  1  0.48769000  0.06880000  0.13844000  1
  O  O227  1  0.34881000  0.08562000  0.13791000  1
  O  O228  1  0.21036000  0.52331000  0.44743000  1
  O  O229  1  0.21406000  0.40611000  0.50171000  1
  O  O230  1  0.41596000  0.48810000  0.50495000  1
  O  O231  1  0.51071000  0.10963000  0.86488000  1
  O  O232  1  0.64997000  0.09371000  0.86917000  1
  O  O233  1  0.51237000  0.43012000  0.63682000  1
  O  O234  1  0.65115000  0.41395000  0.63629000  1
  O  O235  1  0.78952000  0.97630000  0.94925000  1
  O  O236  1  0.78669000  0.09718000  0.99595000  1
  O  O237  1  0.58440000  0.01180000  0.00403000  1
  O  O238  1  0.50990000  0.60936000  0.63627000  1
  O  O239  1  0.64907000  0.59427000  0.62934000  1
  O  O240  1  0.51230000  0.93120000  0.86156000  1
  O  O241  1  0.65118000  0.91438000  0.86209000  1
  O  O242  1  0.78963000  0.47668000  0.55257000  1
  O  O243  1  0.78594000  0.59388000  0.49829000  1
  O  O244  1  0.58403000  0.51190000  0.49505000  1
  O  O245  1  0.48928000  0.89037000  0.13512000  1
  O  O246  1  0.35003000  0.90629000  0.13083000  1
  O  O247  1  0.48763000  0.56988000  0.36318000  1
  O  O248  1  0.34885000  0.58604000  0.36371000  1
  O  O249  1  0.21048000  0.02369000  0.05075000  1
  O  O250  1  0.21331000  0.90281000  0.00405000  1
  O  O251  1  0.41560000  0.98820000  0.99597000  1
