# generated using pymatgen
data_Zn3H12C20(N3O4)2
_symmetry_space_group_name_H-M   'P 1'
_cell_length_a   9.13947000
_cell_length_b   10.98632000
_cell_length_c   11.52153000
_cell_angle_alpha   117.87222000
_cell_angle_beta   100.47449000
_cell_angle_gamma   98.55581000
_symmetry_Int_Tables_number   1
_chemical_formula_structural   Zn3H12C20(N3O4)2
_chemical_formula_sum   'Zn3 H12 C20 N6 O8'
_cell_volume   968.57488751
_cell_formula_units_Z   1
loop_
 _symmetry_equiv_pos_site_id
 _symmetry_equiv_pos_as_xyz
  1  'x, y, z'
loop_
 _atom_site_type_symbol
 _atom_site_label
 _atom_site_symmetry_multiplicity
 _atom_site_fract_x
 _atom_site_fract_y
 _atom_site_fract_z
 _atom_site_occupancy
  Zn  Zn1  1  0.30813000  0.37723000  0.37858000  1.0
  Zn  Zn2  1  0.69187000  0.62277000  0.62142000  1.0
  Zn  Zn3  1  0.00000000  0.50000000  0.50000000  1.0
  H  H1  1  0.88415000  0.58909000  0.19367000  1.0
  H  H2  1  0.23457000  0.99640000  0.41902000  1.0
  H  H3  1  0.86244000  0.18438000  0.51688000  1.0
  H  H4  1  0.20274000  0.37280000  0.00439000  1.0
  H  H5  1  0.22194000  0.76295000  0.80361000  1.0
  H  H6  1  0.54623000  0.81850000  0.85942000  1.0
  H  H7  1  0.11584000  0.41091000  0.80633000  1.0
  H  H8  1  0.76543000  0.00361000  0.58098000  1.0
  H  H9  1  0.13756000  0.81562000  0.48312000  1.0
  H  H10  1  0.79726000  0.62720000  0.99561000  1.0
  H  H11  1  0.77806000  0.23705000  0.19639000  1.0
  H  H12  1  0.45376000  0.18151000  0.14058000  1.0
  C  C1  1  0.93343000  0.55043000  0.10807000  1.0
  C  C2  1  0.13226000  0.99667000  0.45462000  1.0
  C  C3  1  0.11034000  0.20811000  0.42699000  1.0
  C  C4  1  0.92075000  0.10266000  0.50923000  1.0
  C  C5  1  0.11404000  0.42797000  0.00119000  1.0
  C  C6  1  0.29441000  0.71101000  0.74231000  1.0
  C  C7  1  0.05330000  0.09967000  0.46352000  1.0
  C  C8  1  0.09755000  0.45693000  0.22895000  1.0
  C  C9  1  0.04753000  0.47811000  0.10989000  1.0
  C  C10  1  0.45376000  0.73825000  0.76945000  1.0
  C  C11  1  0.06656000  0.44957000  0.89192000  1.0
  C  C12  1  0.86773000  0.00333000  0.54538000  1.0
  C  C13  1  0.88966000  0.79189000  0.57301000  1.0
  C  C14  1  0.07925000  0.89734000  0.49077000  1.0
  C  C15  1  0.88596000  0.57203000  0.99880000  1.0
  C  C16  1  0.70559000  0.28899000  0.25769000  1.0
  C  C17  1  0.94670000  0.90033000  0.53648000  1.0
  C  C18  1  0.90245000  0.54307000  0.77105000  1.0
  C  C19  1  0.95247000  0.52189000  0.89011000  1.0
  C  C20  1  0.54623000  0.26175000  0.23054000  1.0
  N  N1  1  0.34742000  0.55684000  0.56281000  1.0
  N  N2  1  0.23231000  0.59808000  0.61371000  1.0
  N  N3  1  0.48348000  0.64061000  0.65621000  1.0
  N  N4  1  0.65257000  0.44316000  0.43719000  1.0
  N  N5  1  0.76769000  0.40192000  0.38628000  1.0
  N  N6  1  0.51652000  0.35939000  0.34378000  1.0
  O  O1  1  0.19985000  0.38605000  0.22218000  1.0
  O  O2  1  0.24402000  0.21468000  0.40474000  1.0
  O  O3  1  0.03783000  0.50976000  0.32599000  1.0
  O  O4  1  0.02670000  0.28748000  0.41889000  1.0
  O  O5  1  0.80015000  0.61395000  0.77781000  1.0
  O  O6  1  0.75598000  0.78532000  0.59525000  1.0
  O  O7  1  0.96217000  0.49024000  0.67401000  1.0
  O  O8  1  0.97330000  0.71252000  0.58111000  1.0
