# generated using pymatgen
data_H3C3N
_symmetry_space_group_name_H-M   'P 1'
_cell_length_a   27.62840000
_cell_length_b   27.62840000
_cell_length_c   29.91820610
_cell_angle_alpha   117.49894170
_cell_angle_beta   117.49894170
_cell_angle_gamma   90.00000000
_symmetry_Int_Tables_number   1
_chemical_formula_structural   H3C3N
_chemical_formula_sum   'H288 C288 N96'
_cell_volume   17296.33650981
_cell_formula_units_Z   96
loop_
 _symmetry_equiv_pos_site_id
 _symmetry_equiv_pos_as_xyz
  1  'x, y, z'
loop_
 _atom_site_type_symbol
 _atom_site_label
 _atom_site_symmetry_multiplicity
 _atom_site_fract_x
 _atom_site_fract_y
 _atom_site_fract_z
 _atom_site_occupancy
  C  1  1  0.28116550  0.89171800  0.12617000  1
  C  2  1  0.34168900  0.93297150  0.16230400  1
  C  3  1  0.23849250  0.92616950  0.13807900  1
  C  4  1  0.26085700  0.96527300  0.20600800  1
  C  7  1  0.32206750  0.00274450  0.23869800  1
  C  8  1  0.36669650  0.96887050  0.23013600  1
  C  13  1  0.36810000  0.92717000  0.25278300  1
  C  14  1  0.30755500  0.88541700  0.21882100  1
  C  17  1  0.26714350  0.92355850  0.22932400  1
  C  20  1  0.28585550  0.85126650  0.15081600  1
  C  23  1  0.84478400  0.73443700  0.12639400  1
  C  24  1  0.82040600  0.72944900  0.16258700  1
  C  25  1  0.89938650  0.71191350  0.13841600  1
  C  26  1  0.94494850  0.74089400  0.20637400  1
  C  29  1  0.91641850  0.73625100  0.23911200  1
  C  30  1  0.86319900  0.76154200  0.23043700  1
  C  35  1  0.88437400  0.82583950  0.25290000  1
  C  36  1  0.91098600  0.83349750  0.21890400  1
  C  39  1  0.96192200  0.80588850  0.22952600  1
  C  42  1  0.86471900  0.79950450  0.15089500  1
  C  45  1  0.73434800  0.28092850  0.62602600  1
  C  46  1  0.72917950  0.34145250  0.66206200  1
  C  47  1  0.71194750  0.23836600  0.63813800  1
  C  48  1  0.74087250  0.26091700  0.70611500  1
  C  51  1  0.73607000  0.32214500  0.73870600  1
  C  52  1  0.76125550  0.36665550  0.72993800  1
  C  57  1  0.82560600  0.36812200  0.75253100  1
  C  58  1  0.83342150  0.30755350  0.71868100  1
  C  61  1  0.80589850  0.26725050  0.72937900  1
  C  64  1  0.79945600  0.28568400  0.65063400  1
  C  67  1  0.89198750  0.84478850  0.62659200  1
  C  68  1  0.93325250  0.82042750  0.66275200  1
  C  69  1  0.92642850  0.89940250  0.63853300  1
  C  70  1  0.96547600  0.94497800  0.70647000  1
  C  73  1  0.00295400  0.91647850  0.73919000  1
  C  74  1  0.96909000  0.86324700  0.73059000  1
  C  79  1  0.92734400  0.88445000  0.75318400  1
  C  80  1  0.88558750  0.91100300  0.71919100  1
  C  83  1  0.92371800  0.96195050  0.72973000  1
  C  86  1  0.85149550  0.86469300  0.65119000  1
  C  89  1  0.23815650  0.77768450  0.88613000  1
  C  90  1  0.17750200  0.78516250  0.85534800  1
  C  91  1  0.27770950  0.79381600  0.86726400  1
  C  92  1  0.24794600  0.76572350  0.79809300  1
  C  95  1  0.18783500  0.77569950  0.77152400  1
  C  96  1  0.14788500  0.75470650  0.78708400  1
  C  101  1  0.14109550  0.68938950  0.76299900  1
  C  102  1  0.20047850  0.67692550  0.79043200  1
  C  105  1  0.23709400  0.70011300  0.77339200  1
  C  108  1  0.22898900  0.71156100  0.85978100  1
  C  111  1  0.64790700  0.60812350  0.88630200  1
  C  112  1  0.67795300  0.56996550  0.85570800  1
  C  113  1  0.58946550  0.57296650  0.86724200  1
  C  114  1  0.55023500  0.53183250  0.79804700  1
  C  117  1  0.58397850  0.49540750  0.77167600  1
  C  118  1  0.63950750  0.53210800  0.78742600  1
  C  123  1  0.62222550  0.57331150  0.76329200  1
  C  124  1  0.59005600  0.61306550  0.79049800  1
  C  127  1  0.53640250  0.57270450  0.77330000  1
  C  130  1  0.63071200  0.64783250  0.85987200  1
  C  133  1  0.77790850  0.64805600  0.38641700  1
  C  134  1  0.78546550  0.67810800  0.35582400  1
  C  135  1  0.79394950  0.58959000  0.36731200  1
  C  136  1  0.76585150  0.55038850  0.29811700  1
  C  139  1  0.77589600  0.58412750  0.27173800  1
  C  140  1  0.75499400  0.63968100  0.28753400  1
  C  145  1  0.68966700  0.62243750  0.26344600  1
  C  146  1  0.67712350  0.59027050  0.29065900  1
  C  149  1  0.70023850  0.53658500  0.27341200  1
  C  152  1  0.71177600  0.63091450  0.36003900  1
  C  155  1  0.60800400  0.23799750  0.38602800  1
  C  156  1  0.56967900  0.17735100  0.35517200  1
  C  157  1  0.57303000  0.27761700  0.36724500  1
  C  158  1  0.53196150  0.24794650  0.29807300  1
  C  161  1  0.49536200  0.18784000  0.27144700  1
  C  162  1  0.53186350  0.14782000  0.28691700  1
  C  167  1  0.57308600  0.14102750  0.26282000  1
  C  168  1  0.61303750  0.20040100  0.29032000  1
  C  171  1  0.57287150  0.23709000  0.27337200  1
  C  174  1  0.64775050  0.22883500  0.35965200  1
  C  177  1  0.71861950  0.10806750  0.87361700  1
  C  178  1  0.65809550  0.06681300  0.83748100  1
  C  179  1  0.76129300  0.07361400  0.86170800  1
  C  180  1  0.73892550  0.03451200  0.79377700  1
  C  183  1  0.67771750  0.99703950  0.76108800  1
  C  184  1  0.63308850  0.03091450  0.76965000  1
  C  189  1  0.63168550  0.07261550  0.74700400  1
  C  190  1  0.69223000  0.11436800  0.78096500  1
  C  193  1  0.73264150  0.07622650  0.77046200  1
  C  196  1  0.71392900  0.14851800  0.84896900  1
  C  199  1  0.15500100  0.26534800  0.87339200  1
  C  200  1  0.17937900  0.27033600  0.83719900  1
  C  201  1  0.10039850  0.28787150  0.86137000  1
  C  202  1  0.05483700  0.25889000  0.79341300  1
  C  205  1  0.08336450  0.26353300  0.76067300  1
  C  206  1  0.13658650  0.23824350  0.76935000  1
  C  211  1  0.11541100  0.17394550  0.74688600  1
  C  212  1  0.08879900  0.16628750  0.78088200  1
  C  215  1  0.03786100  0.19389600  0.77025900  1
  C  218  1  0.13506650  0.20027900  0.84889200  1
  C  221  1  0.26543650  0.71885550  0.37376000  1
  C  222  1  0.27060500  0.65833350  0.33772500  1
  C  223  1  0.28783750  0.76141900  0.36164900  1
  C  224  1  0.25891300  0.73886850  0.29367200  1
  C  227  1  0.26371450  0.67764100  0.26108000  1
  C  228  1  0.23852900  0.63312950  0.26984900  1
  C  233  1  0.17417750  0.63166200  0.24725400  1
  C  234  1  0.16636350  0.69223100  0.28110400  1
  C  237  1  0.19388550  0.73253400  0.27040600  1
  C  240  1  0.20032850  0.71410100  0.34915200  1
  C  243  1  0.10779850  0.15499650  0.37319500  1
  C  244  1  0.06653200  0.17935700  0.33703400  1
  C  245  1  0.07335700  0.10038400  0.36125400  1
  C  246  1  0.03430800  0.05480650  0.29331500  1
  C  249  1  0.99683100  0.08330750  0.26059700  1
  C  250  1  0.03069450  0.13653800  0.26919700  1
  C  255  1  0.07244050  0.11533500  0.24660200  1
  C  256  1  0.11419800  0.08878250  0.28059600  1
  C  259  1  0.07606750  0.03783550  0.27005700  1
  C  262  1  0.14828900  0.13509200  0.34859600  1
  C  265  1  0.76162850  0.22210050  0.11365600  1
  C  266  1  0.82228200  0.21462150  0.14443900  1
  C  267  1  0.72207600  0.20596950  0.13252300  1
  C  268  1  0.75183900  0.23406200  0.20169300  1
  C  271  1  0.81195100  0.22408500  0.22826400  1
  C  272  1  0.85190050  0.24507900  0.21270300  1
  C  277  1  0.85869000  0.31039550  0.23678700  1
  C  278  1  0.79930650  0.32285950  0.20935400  1
  C  281  1  0.76268900  0.29967250  0.22639400  1
  C  284  1  0.77079550  0.28822350  0.14000400  1
  C  287  1  0.35187850  0.39166200  0.11348500  1
  C  288  1  0.32183000  0.42981950  0.14407800  1
  C  289  1  0.41032050  0.42681900  0.13254500  1
  C  290  1  0.44955100  0.46795350  0.20174100  1
  C  293  1  0.41580650  0.50437650  0.22811000  1
  C  294  1  0.36027750  0.46767500  0.21236000  1
  C  299  1  0.37756000  0.42647400  0.23649500  1
  C  300  1  0.40972900  0.38671950  0.20928800  1
  C  303  1  0.46338250  0.42708050  0.22648600  1
  C  306  1  0.36907350  0.35195300  0.13991500  1
  C  309  1  0.22187800  0.35173000  0.61337000  1
  C  310  1  0.21431950  0.32167650  0.64396100  1
  C  311  1  0.20583550  0.41019400  0.63247300  1
  C  312  1  0.23393400  0.44939650  0.70167000  1
  C  315  1  0.22388900  0.41565700  0.72804800  1
  C  316  1  0.24478900  0.36010300  0.71225100  1
  C  321  1  0.31011850  0.37734700  0.73634100  1
  C  322  1  0.32266150  0.40951450  0.70912700  1
  C  325  1  0.29954600  0.46319950  0.72637400  1
  C  328  1  0.28800750  0.36887000  0.63974600  1
  C  331  1  0.39178200  0.76178850  0.61375900  1
  C  332  1  0.43010500  0.82243350  0.64461400  1
  C  333  1  0.42675500  0.72216900  0.63254200  1
  C  334  1  0.46782300  0.75183700  0.70171300  1
  C  337  1  0.50442250  0.81194400  0.72833800  1
  C  338  1  0.46792150  0.85196450  0.71286900  1
  C  343  1  0.42669850  0.85875750  0.73696500  1
  C  344  1  0.38674850  0.79938500  0.70946700  1
  C  347  1  0.42691250  0.76269450  0.72641300  1
  C  350  1  0.35203450  0.77095000  0.64013500  1
  C  705  1  0.26577000  0.86260600  0.06242800  1
  C  706  1  0.26310900  0.89481650  0.03634300  1
  C  707  1  0.26215600  0.87269550  0.98287800  1
  C  708  1  0.25872100  0.81345400  0.95170500  1
  C  715  1  0.79640800  0.69974600  0.06265000  1
  C  716  1  0.77302200  0.64146900  0.03668500  1
  C  717  1  0.72052700  0.61005350  0.98319700  1
  C  718  1  0.69289000  0.63807250  0.95192800  1
  C  725  1  0.69966400  0.26539300  0.56223200  1
  C  726  1  0.64134650  0.26267850  0.53620700  1
  C  727  1  0.60994300  0.26185750  0.48281400  1
  C  728  1  0.63795400  0.25839950  0.45158200  1
  C  735  1  0.86292150  0.79642200  0.56285900  1
  C  736  1  0.89513450  0.77304350  0.53677000  1
  C  737  1  0.87298350  0.72058300  0.48324600  1
  C  738  1  0.81370850  0.69295900  0.45205200  1
  C  745  1  0.73401450  0.13717650  0.93735700  1
  C  746  1  0.73667650  0.10496950  0.96344400  1
  C  747  1  0.73762950  0.12709000  0.01690900  1
  C  748  1  0.74106400  0.18633100  0.04808100  1
  C  755  1  0.20337700  0.30003900  0.93713600  1
  C  756  1  0.22676350  0.35831600  0.96310200  1
  C  757  1  0.27925750  0.38973150  0.01658800  1
  C  758  1  0.30689550  0.36171300  0.04785900  1
  C  765  1  0.30012050  0.73439100  0.43755400  1
  C  766  1  0.35843800  0.73710700  0.46357900  1
  C  767  1  0.38984100  0.73792800  0.51697200  1
  C  768  1  0.36183150  0.74138650  0.54820500  1
  C  775  1  0.13686300  0.20336350  0.43692700  1
  C  776  1  0.10465000  0.22674150  0.46301600  1
  C  777  1  0.12680050  0.27920250  0.51654000  1
  C  778  1  0.18607750  0.30682600  0.54773500  1
  C  865  1  0.15460300  0.06518750  0.26027700  1
  C  866  1  0.16264000  0.06821850  0.21817900  1
  C  867  1  0.19921450  0.04008450  0.20001600  1
  C  868  1  0.22345250  0.00323000  0.22059400  1
  C  875  1  0.10561600  0.69547200  0.26073800  1
  C  876  1  0.05550850  0.65029200  0.21883300  1
  C  877  1  0.00074150  0.66020750  0.20064700  1
  C  878  1  0.99700250  0.71760550  0.22107500  1
  C  885  1  0.69548250  0.15469850  0.76055400  1
  C  886  1  0.65030150  0.16284400  0.71860000  1
  C  887  1  0.66020800  0.19939000  0.70038000  1
  C  888  1  0.71761200  0.22361950  0.72087700  1
  C  895  1  0.06518700  0.10557350  0.76061000  1
  C  896  1  0.06860400  0.05542850  0.71888400  1
  C  897  1  0.04051700  0.00069650  0.70078100  1
  C  898  1  0.00341300  0.99700900  0.72108200  1
  C  905  1  0.34724550  0.80012750  0.73179300  1
  C  906  1  0.34236750  0.84755800  0.77488800  1
  C  907  1  0.30853500  0.84116800  0.79722400  1
  C  908  1  0.28264150  0.78500850  0.77852700  1
  C  915  1  0.38451650  0.43115550  0.73154800  1
  C  916  1  0.43245750  0.42664000  0.77451300  1
  C  917  1  0.48865350  0.45539450  0.79694100  1
  C  918  1  0.49592650  0.49291500  0.77833300  1
  C  925  1  0.80005850  0.38470300  0.23173300  1
  C  926  1  0.84753150  0.43264800  0.27469200  1
  C  927  1  0.84119000  0.48883450  0.29705700  1
  C  928  1  0.78505200  0.49608600  0.27839000  1
  C  935  1  0.43137150  0.34729800  0.23172500  1
  C  936  1  0.42679300  0.34224200  0.27462200  1
  C  937  1  0.45553050  0.30844250  0.29701000  1
  C  938  1  0.49315600  0.28268400  0.27850900  1
  C  945  1  0.84518300  0.93459800  0.73951000  1
  C  946  1  0.83714600  0.93156700  0.78160800  1
  C  947  1  0.80057100  0.95970100  0.79977000  1
  C  948  1  0.77633150  0.99655450  0.77919100  1
  C  955  1  0.89416850  0.30431200  0.73904800  1
  C  956  1  0.94427650  0.34949400  0.78095400  1
  C  957  1  0.99904350  0.33957750  0.79913900  1
  C  958  1  0.00278350  0.28218000  0.77871200  1
  C  965  1  0.30430250  0.84508500  0.23923200  1
  C  966  1  0.34948400  0.83694150  0.28118700  1
  C  967  1  0.33957700  0.80039500  0.29940600  1
  C  968  1  0.28217350  0.77616600  0.27891000  1
  C  975  1  0.93459850  0.89421200  0.23917700  1
  C  976  1  0.93118100  0.94435650  0.28090200  1
  C  977  1  0.95926750  0.99908800  0.29900400  1
  C  978  1  0.99637000  0.00277500  0.27870400  1
  C  985  1  0.65253900  0.19965650  0.26799200  1
  C  986  1  0.65741800  0.15222750  0.22489800  1
  C  987  1  0.69124900  0.15861700  0.20256100  1
  C  988  1  0.71714350  0.21477750  0.22126000  1
  C  995  1  0.61526950  0.56862950  0.26823900  1
  C  996  1  0.56732600  0.57314400  0.22527200  1
  C  997  1  0.51113100  0.54439000  0.20284400  1
  C  998  1  0.50385950  0.50687050  0.22145500  1
  C  1005  1  0.19972700  0.61508250  0.76805400  1
  C  1006  1  0.15225350  0.56713700  0.72509400  1
  C  1007  1  0.15859550  0.51095100  0.70273000  1
  C  1008  1  0.21473300  0.50369700  0.72139600  1
  C  1015  1  0.56841350  0.65248650  0.76806100  1
  C  1016  1  0.57299200  0.65754300  0.72516400  1
  C  1017  1  0.54425450  0.69134250  0.70277600  1
  C  1018  1  0.50662800  0.71710150  0.72127800  1
  C  1185  1  0.49364000  0.09462550  0.26806800  1
  C  1186  1  0.50217800  0.03993250  0.24982000  1
  C  1187  1  0.46735200  0.99635650  0.24356000  1
  C  1188  1  0.42315000  0.00900650  0.25632500  1
  C  1195  1  0.77459900  0.67436600  0.26910900  1
  C  1196  1  0.74732100  0.71003950  0.24988500  1
  C  1197  1  0.77582100  0.74736800  0.24358800  1
  C  1198  1  0.83294300  0.74785250  0.25678300  1
  C  1205  1  0.67417550  0.49407200  0.76898400  1
  C  1206  1  0.70968100  0.50198650  0.74953000  1
  C  1207  1  0.74689350  0.46709000  0.74305100  1
  C  1208  1  0.74713800  0.42302550  0.75603500  1
  C  1215  1  0.09470150  0.77410800  0.76830800  1
  C  1216  1  0.04003350  0.74738050  0.75017900  1
  C  1217  1  0.99648650  0.77598250  0.74399100  1
  C  1218  1  0.00918500  0.83294900  0.75679600  1
  C  1225  1  0.50614500  0.90515850  0.73171800  1
  C  1226  1  0.49760800  0.95985250  0.74996700  1
  C  1227  1  0.53243350  0.00342750  0.75622700  1
  C  1228  1  0.57663400  0.99077800  0.74346200  1
  C  1235  1  0.22518600  0.32541950  0.73067700  1
  C  1236  1  0.25246550  0.28974600  0.74990300  1
  C  1237  1  0.22396450  0.25241700  0.75619800  1
  C  1238  1  0.16684200  0.25193250  0.74300300  1
  C  1245  1  0.32561000  0.50571300  0.23080200  1
  C  1246  1  0.29010400  0.49779900  0.25025600  1
  C  1247  1  0.25289250  0.53269450  0.25673500  1
  C  1248  1  0.25264650  0.57675900  0.24375000  1
  C  1255  1  0.90508350  0.22567600  0.23147800  1
  C  1256  1  0.95975050  0.25240450  0.24960800  1
  C  1257  1  0.00329750  0.22380250  0.25579500  1
  C  1258  1  0.99059950  0.16683600  0.24299100  1
  H  5  1  0.19732750  0.89673750  0.11580300  1
  H  6  1  0.23067100  0.95147950  0.11791100  1
  H  9  1  0.31905500  0.03183550  0.22287700  1
  H  10  1  0.33773600  0.02891650  0.28599700  1
  H  11  1  0.34135950  0.96281350  0.14772400  1
  H  12  1  0.36957450  0.90741200  0.15258500  1
  H  15  1  0.38418150  0.95207600  0.30015500  1
  H  16  1  0.39732250  0.90192600  0.24720700  1
  H  18  1  0.28341550  0.94727650  0.27685300  1
  H  19  1  0.22437150  0.89738300  0.20770800  1
  H  21  1  0.31488850  0.82596800  0.14362400  1
  H  22  1  0.24424350  0.82140250  0.12585900  1
  H  27  1  0.91827500  0.71895550  0.11608800  1
  H  28  1  0.88705200  0.66645200  0.11837100  1
  H  31  1  0.90362550  0.69137650  0.22343100  1
  H  32  1  0.94804900  0.75749000  0.28641800  1
  H  33  1  0.80619500  0.68506200  0.14813400  1
  H  34  1  0.78277700  0.74523900  0.15275300  1
  H  37  1  0.91563700  0.84842350  0.30028300  1
  H  38  1  0.84951850  0.84543950  0.24720500  1
  H  40  1  0.99316800  0.82979250  0.27705800  1
  H  41  1  0.98308050  0.81035300  0.20787500  1
  H  43  1  0.82847800  0.81759000  0.14361300  1
  H  44  1  0.88139650  0.80431950  0.12591200  1
  H  49  1  0.71914550  0.19720450  0.61594100  1
  H  50  1  0.66647000  0.23049400  0.61801400  1
  H  53  1  0.69118000  0.31917800  0.72298600  1
  H  54  1  0.75729700  0.33790300  0.78603200  1
  H  55  1  0.68475600  0.34106700  0.64753100  1
  H  56  1  0.74487350  0.36922750  0.65215200  1
  H  59  1  0.84813950  0.38432500  0.79992900  1
  H  60  1  0.84517200  0.39727800  0.74680700  1
  H  62  1  0.82975750  0.28363100  0.77693000  1
  H  63  1  0.81049200  0.22447600  0.70784400  1
  H  65  1  0.81747000  0.31464700  0.64330800  1
  H  66  1  0.80438950  0.24406350  0.62573900  1
  H  71  1  0.89698350  0.91827050  0.61623700  1
  H  72  1  0.95177000  0.88709400  0.61839800  1
  H  75  1  0.03207800  0.90371300  0.72341200  1
  H  76  1  0.02908800  0.94810650  0.78649100  1
  H  77  1  0.96313350  0.80623100  0.64821800  1
  H  78  1  0.90771000  0.78279150  0.65299900  1
  H  81  1  0.95221950  0.91574950  0.80055400  1
  H  82  1  0.90210250  0.84964450  0.74760100  1
  H  84  1  0.94740500  0.99321600  0.77725600  1
  H  85  1  0.89752850  0.98308350  0.70809000  1
  H  87  1  0.82621100  0.82844500  0.64398100  1
  H  88  1  0.82161800  0.88131800  0.62620200  1
  H  93  1  0.31644750  0.78060700  0.88361500  1
  H  94  1  0.29303950  0.83891550  0.88906300  1
  H  97  1  0.19349400  0.82080350  0.78756100  1
  H  98  1  0.16707950  0.75402200  0.72342400  1
  H  99  1  0.17955500  0.82988250  0.87261100  1
  H  100  1  0.15062200  0.76955050  0.86643000  1
  H  103  1  0.11984550  0.66645900  0.71485100  1
  H  104  1  0.11408550  0.67372350  0.77371200  1
  H  106  1  0.21566400  0.67644100  0.72509800  1
  H  107  1  0.27865200  0.69159000  0.78971000  1
  H  109  1  0.20219550  0.69597750  0.87081600  1
  H  110  1  0.27000750  0.70352150  0.88068400  1
  H  115  1  0.56694450  0.60243550  0.88345600  1
  H  116  1  0.59590050  0.54965850  0.88903200  1
  H  119  1  0.59437550  0.46635850  0.78773500  1
  H  120  1  0.55676450  0.46896650  0.72356700  1
  H  121  1  0.69314800  0.54257300  0.87306100  1
  H  122  1  0.71594250  0.59672600  0.86690200  1
  H  125  1  0.59546700  0.54807650  0.71513300  1
  H  126  1  0.65997750  0.59978300  0.77414700  1
  H  128  1  0.50966600  0.54804500  0.72499400  1
  H  129  1  0.51102800  0.59744950  0.78946800  1
  H  131  1  0.66854150  0.67454250  0.87101100  1
  H  132  1  0.61045500  0.67669100  0.88063600  1
  H  137  1  0.78068750  0.56707150  0.38352300  1
  H  138  1  0.83904200  0.59599150  0.38908400  1
  H  141  1  0.82099650  0.59449050  0.28775500  1
  H  142  1  0.75419100  0.55692200  0.22362200  1
  H  143  1  0.83020900  0.69327100  0.37314100  1
  H  144  1  0.76993400  0.71611600  0.36706100  1
  H  147  1  0.66672050  0.59568750  0.21528500  1
  H  148  1  0.67407100  0.66020100  0.27432500  1
  H  150  1  0.67657200  0.50985950  0.22510900  1
  H  151  1  0.69165550  0.51121500  0.28958200  1
  H  153  1  0.69624500  0.66876950  0.37121400  1
  H  154  1  0.70368950  0.61066600  0.38081200  1
  H  159  1  0.60261200  0.31637300  0.38366300  1
  H  160  1  0.54971050  0.29289150  0.38903400  1
  H  163  1  0.46631850  0.19351100  0.28751600  1
  H  164  1  0.46892300  0.16713700  0.22335600  1
  H  165  1  0.54222700  0.17940800  0.37243900  1
  H  166  1  0.59632800  0.15041350  0.36618700  1
  H  169  1  0.54786350  0.11983600  0.21467700  1
  H  170  1  0.59942800  0.11397100  0.27347400  1
  H  172  1  0.54825600  0.21571400  0.22508200  1
  H  173  1  0.59775850  0.27865250  0.28975300  1
  H  175  1  0.67433850  0.20199550  0.37062500  1
  H  176  1  0.67672300  0.26985000  0.38059500  1
  H  181  1  0.80245800  0.10304800  0.88398400  1
  H  182  1  0.76911450  0.04830600  0.88187600  1
  H  185  1  0.68073050  0.96795000  0.77691000  1
  H  186  1  0.66204950  0.97086900  0.71379000  1
  H  187  1  0.65842600  0.03697200  0.85206300  1
  H  188  1  0.63021100  0.09237350  0.84720200  1
  H  191  1  0.61560400  0.04770950  0.69963200  1
  H  192  1  0.60246300  0.09785950  0.75258000  1
  H  194  1  0.71637000  0.05250700  0.72293400  1
  H  195  1  0.77541300  0.10240200  0.79207800  1
  H  197  1  0.68489650  0.17381500  0.85616200  1
  H  198  1  0.75554200  0.17838300  0.87392800  1
  H  203  1  0.08151050  0.28082850  0.88369900  1
  H  204  1  0.11273300  0.33333250  0.88141500  1
  H  207  1  0.09616000  0.30840900  0.77635600  1
  H  208  1  0.05173450  0.24229500  0.71336800  1
  H  209  1  0.19359000  0.31472300  0.85165200  1
  H  210  1  0.21700850  0.25454650  0.84703400  1
  H  213  1  0.08414850  0.15136200  0.69950400  1
  H  214  1  0.15026700  0.15434600  0.75258200  1
  H  216  1  0.00661700  0.16999250  0.72272800  1
  H  217  1  0.01670450  0.18943250  0.79191200  1
  H  219  1  0.17130750  0.18219550  0.85617400  1
  H  220  1  0.11838900  0.19546600  0.87387500  1
  H  225  1  0.28063950  0.80258100  0.38384400  1
  H  226  1  0.33331350  0.76929150  0.38177300  1
  H  229  1  0.30860550  0.68060800  0.27680100  1
  H  230  1  0.24248750  0.66188200  0.21375400  1
  H  231  1  0.31502900  0.65871850  0.35225500  1
  H  232  1  0.25491100  0.63055750  0.34763400  1
  H  235  1  0.15164400  0.61545850  0.19985600  1
  H  236  1  0.15461250  0.60250700  0.25297800  1
  H  238  1  0.17002700  0.71615450  0.22285700  1
  H  239  1  0.18929250  0.77530850  0.29194200  1
  H  241  1  0.18231450  0.68513800  0.35647800  1
  H  242  1  0.19539600  0.75572200  0.37404700  1
  H  247  1  0.10280050  0.08151450  0.38354800  1
  H  248  1  0.04801600  0.11269200  0.38139000  1
  H  251  1  0.96770700  0.09607100  0.27637400  1
  H  252  1  0.97069750  0.05167750  0.21329600  1
  H  253  1  0.03665200  0.19355350  0.35156900  1
  H  254  1  0.09207550  0.21699350  0.34678700  1
  H  257  1  0.04756550  0.08403500  0.19923300  1
  H  258  1  0.09768150  0.15014000  0.25218400  1
  H  260  1  0.05238050  0.00656950  0.22253100  1
  H  261  1  0.10225550  0.01670200  0.29169600  1
  H  263  1  0.17357500  0.17134150  0.35580700  1
  H  264  1  0.17816650  0.11846750  0.37358300  1
  H  269  1  0.68333700  0.21917850  0.11617200  1
  H  270  1  0.70674500  0.16086850  0.11072200  1
  H  273  1  0.80629150  0.17898100  0.21222600  1
  H  274  1  0.83270650  0.24576300  0.27636300  1
  H  275  1  0.82023000  0.16990250  0.12717500  1
  H  276  1  0.84916350  0.23023500  0.13335700  1
  H  279  1  0.87993850  0.33332650  0.28493600  1
  H  280  1  0.88570000  0.32606200  0.22607500  1
  H  282  1  0.78412050  0.32334150  0.27468700  1
  H  283  1  0.72113250  0.30819550  0.21007700  1
  H  285  1  0.79758950  0.30380750  0.12897000  1
  H  286  1  0.72977750  0.29626350  0.11910200  1
  H  291  1  0.43284150  0.39735000  0.11633100  1
  H  292  1  0.40388450  0.45012700  0.11075400  1
  H  295  1  0.40540950  0.53342650  0.21205100  1
  H  296  1  0.44302100  0.53081800  0.27621900  1
  H  297  1  0.30663700  0.45721150  0.12672500  1
  H  298  1  0.28384300  0.40305950  0.13288500  1
  H  301  1  0.40431800  0.45170850  0.28465300  1
  H  302  1  0.33980750  0.40000200  0.22563900  1
  H  304  1  0.49011750  0.45174050  0.27479200  1
  H  305  1  0.48875750  0.40233600  0.21031900  1
  H  307  1  0.33124400  0.32524300  0.12877600  1
  H  308  1  0.38933050  0.32309450  0.11915100  1
  H  313  1  0.21909700  0.43271400  0.61626400  1
  H  314  1  0.16074350  0.40379400  0.61070300  1
  H  317  1  0.17878950  0.40529550  0.71203300  1
  H  318  1  0.24559200  0.44286350  0.77616400  1
  H  319  1  0.16957650  0.30651500  0.62664600  1
  H  320  1  0.22985050  0.28366850  0.63272500  1
  H  323  1  0.33306400  0.40409700  0.78450200  1
  H  324  1  0.32571500  0.33958500  0.72546200  1
  H  326  1  0.32321350  0.48992700  0.77467900  1
  H  327  1  0.30812900  0.48857000  0.71020400  1
  H  329  1  0.30354000  0.33101600  0.62857200  1
  H  330  1  0.29609450  0.38911950  0.61897300  1
  H  335  1  0.39717200  0.68341050  0.61612200  1
  H  336  1  0.45007400  0.70689350  0.61075100  1
  H  339  1  0.53346750  0.80627400  0.71227100  1
  H  340  1  0.53086250  0.83264800  0.77643100  1
  H  341  1  0.45755850  0.82037750  0.62734800  1
  H  342  1  0.40345800  0.84937250  0.63360100  1
  H  345  1  0.45192150  0.87994850  0.78510900  1
  H  346  1  0.40035650  0.88581450  0.72631200  1
  H  348  1  0.45152850  0.78407050  0.77470300  1
  H  349  1  0.40202700  0.72113300  0.71003400  1
  H  351  1  0.32544650  0.79778800  0.62916100  1
  H  352  1  0.32306200  0.72993550  0.61919200  1
  H  712  1  0.26388800  0.95008000  0.98922000  1
  H  713  1  0.25843650  0.90041300  0.92854200  1
  H  714  1  0.26466650  0.93668150  0.05836700  1
  H  722  1  0.72516750  0.53910200  0.98970000  1
  H  723  1  0.67003450  0.52794850  0.92889000  1
  H  724  1  0.79349550  0.62169350  0.05878700  1
  H  732  1  0.53897600  0.26358550  0.48928800  1
  H  733  1  0.52789500  0.25830550  0.42865200  1
  H  734  1  0.62155500  0.26418650  0.55826200  1
  H  742  1  0.95039250  0.72514150  0.48964100  1
  H  743  1  0.90068050  0.67004050  0.42885100  1
  H  744  1  0.93701650  0.79348500  0.55884700  1
  H  752  1  0.73589750  0.04970500  0.01056700  1
  H  753  1  0.74134900  0.09937300  0.07124500  1
  H  754  1  0.73511900  0.06310350  0.94142000  1
  H  762  1  0.27461800  0.46068350  0.01008700  1
  H  763  1  0.32975100  0.47183650  0.07089700  1
  H  764  1  0.20629000  0.37809200  0.94100000  1
  H  772  1  0.46080950  0.73620000  0.51049800  1
  H  773  1  0.47189000  0.74147850  0.57113400  1
  H  774  1  0.37823000  0.73559800  0.44152400  1
  H  782  1  0.04939050  0.27464250  0.51014500  1
  H  783  1  0.09910450  0.32974350  0.57093500  1
  H  784  1  0.06276700  0.20629900  0.44093800  1
  H  872  1  0.19316950  0.07822350  0.15396200  1
  H  873  1  0.24008100  0.04161100  0.15861500  1
  H  874  1  0.14315200  0.09267550  0.20195700  1
  H  882  1  0.96080950  0.57602450  0.15482800  1
  H  883  1  0.91850900  0.61726250  0.15937500  1
  H  884  1  0.05882000  0.60962700  0.20272600  1
  H  892  1  0.57600150  0.19338900  0.65445800  1
  H  893  1  0.61720650  0.24023300  0.65897000  1
  H  894  1  0.60963900  0.14340850  0.70247600  1
  H  902  1  0.07881050  0.96061250  0.65482600  1
  H  903  1  0.04187250  0.91825600  0.65906300  1
  H  904  1  0.09334450  0.05869550  0.70294600  1
  H  912  1  0.32017800  0.92654350  0.84492000  1
  H  913  1  0.27585750  0.88881100  0.84658600  1
  H  914  1  0.36322600  0.88725200  0.78983600  1
  H  922  1  0.52464900  0.41768900  0.84462200  1
  H  923  1  0.57069950  0.45722300  0.84647800  1
  H  924  1  0.42650450  0.40184050  0.78939200  1
  H  932  1  0.92657900  0.52483200  0.34473800  1
  H  933  1  0.88889250  0.57086500  0.34649000  1
  H  934  1  0.88721350  0.42670600  0.28960000  1
  H  942  1  0.41784750  0.32011900  0.34475200  1
  H  943  1  0.45742500  0.27599450  0.34667900  1
  H  944  1  0.40187000  0.36294600  0.28938400  1
  H  952  1  0.80661500  0.92156200  0.84582400  1
  H  953  1  0.75970400  0.95817400  0.84117100  1
  H  954  1  0.85663200  0.90710950  0.79782800  1
  H  962  1  0.03897450  0.42376050  0.84495700  1
  H  963  1  0.08127650  0.38252250  0.84041200  1
  H  964  1  0.94096500  0.39015650  0.79706000  1
  H  972  1  0.42378400  0.80639650  0.34532900  1
  H  973  1  0.38257850  0.75955100  0.34081600  1
  H  974  1  0.39014600  0.85637650  0.29731000  1
  H  982  1  0.92097450  0.03917200  0.34496000  1
  H  983  1  0.95791050  0.08152900  0.34072200  1
  H  984  1  0.90644150  0.94109000  0.29684100  1
  H  992  1  0.67960750  0.07324250  0.15486700  1
  H  993  1  0.72392800  0.11097400  0.15320000  1
  H  994  1  0.63655900  0.11253300  0.20994900  1
  H  1002  1  0.47513700  0.58209650  0.15516400  1
  H  1003  1  0.42908600  0.54256300  0.15330900  1
  H  1004  1  0.57328150  0.59794450  0.21039500  1
  H  1012  1  0.07320650  0.47495350  0.65504900  1
  H  1013  1  0.11089200  0.42891900  0.65329500  1
  H  1014  1  0.11257150  0.57307900  0.71018600  1
  H  1022  1  0.58193750  0.67966600  0.65503400  1
  H  1023  1  0.54236050  0.72379050  0.65310800  1
  H  1024  1  0.59791500  0.63683900  0.71040200  1
  H  1192  1  0.50930850  0.93829800  0.21835300  1
  H  1193  1  0.45936550  0.91470850  0.22451800  1
  H  1194  1  0.53416350  0.03189800  0.24151800  1
  H  1202  1  0.70840750  0.77974650  0.21778700  1
  H  1203  1  0.76462050  0.80981900  0.22433500  1
  H  1204  1  0.70687000  0.70939900  0.24115500  1
  H  1212  1  0.77924200  0.50873750  0.71726200  1
  H  1213  1  0.80914200  0.45889250  0.72350500  1
  H  1214  1  0.70902550  0.53370700  0.74079800  1
  H  1222  1  0.93829350  0.70872750  0.71849400  1
  H  1223  1  0.91470750  0.76483250  0.72468100  1
  H  1224  1  0.03199900  0.70710850  0.74191500  1
  H  1232  1  0.49047700  0.06148700  0.78143300  1
  H  1233  1  0.54041950  0.08507650  0.77526800  1
  H  1234  1  0.46562150  0.96788750  0.75826800  1
  H  1242  1  0.29137700  0.22003800  0.78199800  1
  H  1243  1  0.23516250  0.18996600  0.77545100  1
  H  1244  1  0.29291500  0.29038500  0.75863000  1
  H  1252  1  0.22054350  0.49104800  0.28252500  1
  H  1253  1  0.19064250  0.54089300  0.27628100  1
  H  1254  1  0.29075950  0.46607700  0.25898800  1
  H  1262  1  0.06149100  0.29105800  0.28129300  1
  H  1263  1  0.08507750  0.23495250  0.27510500  1
  H  1264  1  0.96778650  0.29267700  0.25787200  1
  N  709  1  0.26068950  0.78525250  0.97966200  1
  N  710  1  0.26559200  0.80789300  0.03143000  1
  N  711  1  0.26215450  0.91059200  0.96549200  1
  N  719  1  0.71876500  0.69423600  0.97981200  1
  N  720  1  0.76560150  0.72342050  0.03160100  1
  N  721  1  0.70319050  0.55478550  0.96587800  1
  N  729  1  0.69414900  0.26054750  0.47952200  1
  N  730  1  0.72334100  0.26543200  0.53127600  1
  N  731  1  0.55467200  0.26185650  0.46551200  1
  N  739  1  0.78548000  0.71888300  0.47998700  1
  N  740  1  0.80816100  0.76569000  0.53181400  1
  N  741  1  0.91087000  0.70322150  0.46583800  1
  N  749  1  0.73909550  0.21453250  0.02012400  1
  N  750  1  0.73419300  0.19189200  0.96835600  1
  N  751  1  0.73763100  0.08919300  0.03429500  1
  N  759  1  0.28102000  0.30554900  0.01997400  1
  N  760  1  0.23418400  0.27636500  0.96818600  1
  N  761  1  0.29659500  0.44499950  0.03390900  1
  N  769  1  0.30563500  0.73923700  0.52026400  1
  N  770  1  0.27644300  0.73435350  0.46851000  1
  N  771  1  0.44511100  0.73792800  0.53427400  1
  N  779  1  0.21430550  0.28090050  0.51979900  1
  N  780  1  0.19162400  0.23409500  0.46797200  1
  N  781  1  0.08891500  0.29656400  0.53394800  1
  N  869  1  0.21456550  0.00533900  0.26248400  1
  N  870  1  0.18376650  0.03363050  0.28113500  1
  N  871  1  0.20940150  0.05138300  0.16495500  1
  N  879  1  0.04776550  0.75743650  0.26285500  1
  N  880  1  0.09725050  0.74786350  0.28150500  1
  N  881  1  0.95553300  0.61383450  0.16572400  1
  N  889  1  0.75745450  0.21466267  0.76266800  1
  N  890  1  0.74787800  0.18383650  0.78133200  1
  N  891  1  0.61381700  0.20960650  0.66539400  1
  N  899  1  0.00513650  0.04781300  0.76261500  1
  N  900  1  0.03335250  0.09727650  0.78120800  1
  N  901  1  0.05219900  0.95550650  0.66613300  1
  N  909  1  0.28826000  0.74279400  0.73524400  1
  N  910  1  0.31728000  0.74917950  0.71352900  1
  N  911  1  0.30288500  0.88952400  0.83488200  1
  N  919  1  0.44704500  0.49191750  0.73508100  1
  N  920  1  0.39627500  0.46385800  0.71333300  1
  N  921  1  0.53193000  0.44468750  0.83461700  1
  N  929  1  0.74280100  0.44720300  0.23515700  1
  N  930  1  0.74913000  0.39643500  0.21345700  1
  N  931  1  0.88957150  0.53211250  0.33470700  1
  N  939  1  0.49229250  0.28847000  0.23539100  1
  N  940  1  0.46422500  0.31748250  0.21364300  1
  N  941  1  0.44460100  0.30259900  0.33443900  1
  N  949  1  0.78521850  0.99444550  0.73730100  1
  N  950  1  0.81601850  0.96615400  0.71865100  1
  N  951  1  0.79038350  0.94840250  0.83483100  1
  N  959  1  0.95201900  0.24235000  0.73693200  1
  N  960  1  0.90253450  0.25192200  0.71828200  1
  N  961  1  0.04425150  0.38595050  0.83406100  1
  N  969  1  0.24233100  0.78512800  0.23711800  1
  N  970  1  0.25190700  0.81594850  0.21845400  1
  N  971  1  0.38596850  0.79017850  0.33439300  1
  N  979  1  0.99464750  0.95197150  0.23717000  1
  N  980  1  0.96643300  0.90250900  0.21857900  1
  N  981  1  0.94758550  0.04427650  0.33365200  1
  N  989  1  0.71152350  0.25699050  0.26454100  1
  N  990  1  0.68250500  0.25060600  0.28625900  1
  N  991  1  0.69689900  0.11026050  0.16490400  1
  N  999  1  0.55273850  0.50786650  0.26470400  1
  N  1000  1  0.60351050  0.53592750  0.28645300  1
  N  1001  1  0.46785450  0.55509650  0.16516800  1
  N  1009  1  0.25698300  0.55258150  0.76462800  1
  N  1010  1  0.25065550  0.60335050  0.78633000  1
  N  1011  1  0.11021400  0.46767300  0.66508000  1
  N  1019  1  0.50749300  0.71131550  0.76439600  1
  N  1020  1  0.53555950  0.68230200  0.78614200  1
  N  1021  1  0.55518450  0.69718700  0.66534800  1
  N  1189  1  0.42269600  0.06417900  0.27855400  1
  N  1190  1  0.45488650  0.10325850  0.28468300  1
  N  1191  1  0.47827050  0.94485900  0.22552500  1
  N  1199  1  0.85590000  0.71531750  0.27948400  1
  N  1200  1  0.82999450  0.68249350  0.28586500  1
  N  1201  1  0.74669600  0.78053700  0.22516600  1
  N  1209  1  0.71503500  0.42304900  0.77923100  1
  N  1210  1  0.68239850  0.45550400  0.78584000  1
  N  1211  1  0.77996000  0.47774250  0.72451100  1
  N  1219  1  0.06431850  0.85559500  0.77887400  1
  N  1220  1  0.10335150  0.82947400  0.78489800  1
  N  1221  1  0.94501700  0.74709000  0.72607800  1
  N  1229  1  0.57708900  0.93560500  0.72123200  1
  N  1230  1  0.54489950  0.89652700  0.71510400  1
  N  1231  1  0.52151550  0.05492650  0.77426200  1
  N  1239  1  0.14388450  0.28446750  0.72030100  1
  N  1240  1  0.16979100  0.31729200  0.71392200  1
  N  1241  1  0.25308750  0.21924750  0.77461900  1
  N  1249  1  0.28475000  0.57673650  0.22055500  1
  N  1250  1  0.31738700  0.54428100  0.21394700  1
  N  1251  1  0.21982400  0.52204300  0.27527500  1
  N  1259  1  0.93546650  0.14419000  0.22091200  1
  N  1260  1  0.89643350  0.17031050  0.21488800  1
  N  1261  1  0.05476650  0.25269550  0.27370800  1
