# generated using pymatgen
data_BaH6C5NO4
_symmetry_space_group_name_H-M   'P 1'
_cell_length_a   9.16233000
_cell_length_b   19.35122000
_cell_length_c   19.35122000
_cell_angle_alpha   90.00000000
_cell_angle_beta   90.00000000
_cell_angle_gamma   90.00000000
_symmetry_Int_Tables_number   1
_chemical_formula_structural   BaH6C5NO4
_chemical_formula_sum   'Ba16 H96 C80 N16 O64'
_cell_volume   3431.01510831
_cell_formula_units_Z   16
loop_
 _symmetry_equiv_pos_site_id
 _symmetry_equiv_pos_as_xyz
  1  'x, y, z'
loop_
 _atom_site_type_symbol
 _atom_site_label
 _atom_site_symmetry_multiplicity
 _atom_site_fract_x
 _atom_site_fract_y
 _atom_site_fract_z
 _atom_site_occupancy
  Ba  Ba1  1  0.76611000  0.82163000  0.64321000  1.0
  Ba  Ba2  1  0.76595000  0.68987000  0.87185000  1.0
  Ba  Ba3  1  0.76611000  0.17837000  0.35679000  1.0
  Ba  Ba4  1  0.76595000  0.31013000  0.12815000  1.0
  Ba  Ba5  1  0.76611000  0.35679000  0.82163000  1.0
  Ba  Ba6  1  0.76595000  0.12815000  0.68987000  1.0
  Ba  Ba7  1  0.76611000  0.64321000  0.17837000  1.0
  Ba  Ba8  1  0.76595000  0.87185000  0.31013000  1.0
  Ba  Ba9  1  0.26592000  0.32149000  0.85691000  1.0
  Ba  Ba10  1  0.26745000  0.18921000  0.62962000  1.0
  Ba  Ba11  1  0.26592000  0.67851000  0.14308000  1.0
  Ba  Ba12  1  0.26746000  0.81078000  0.37038000  1.0
  Ba  Ba13  1  0.26592000  0.85691000  0.67851000  1.0
  Ba  Ba14  1  0.26746000  0.62962000  0.81078000  1.0
  Ba  Ba15  1  0.26592000  0.14308000  0.32149000  1.0
  Ba  Ba16  1  0.26746000  0.37038000  0.18921000  1.0
  H  H1  1  0.66330000  0.89179000  0.00559000  1.0
  H  H2  1  0.75571000  0.81543000  0.03054000  1.0
  H  H3  1  0.47155000  0.79782000  0.03585000  1.0
  H  H4  1  0.43172000  0.73827000  0.96989000  1.0
  H  H5  1  0.44721000  0.87492000  0.92475000  1.0
  H  H6  1  0.59906000  0.87349000  0.86799000  1.0
  H  H7  1  0.91399000  0.90500000  0.97197000  1.0
  H  H8  1  0.81154000  0.89315000  0.89574000  1.0
  H  H9  1  0.10747000  0.78833000  0.84855000  1.0
  H  H10  1  0.08214000  0.87662000  0.86372000  1.0
  H  H11  1  0.97396000  0.77915000  0.02377000  1.0
  H  H12  1  0.12530000  0.82231000  0.98697000  1.0
  H  H13  1  0.66330000  0.10821000  0.99440000  1.0
  H  H14  1  0.75571000  0.18456000  0.96946000  1.0
  H  H15  1  0.47155000  0.20218000  0.96415000  1.0
  H  H16  1  0.43172000  0.26172000  0.03011000  1.0
  H  H17  1  0.44721000  0.12508000  0.07525000  1.0
  H  H18  1  0.59906000  0.12651000  0.13201000  1.0
  H  H19  1  0.91399000  0.09500000  0.02803000  1.0
  H  H20  1  0.81154000  0.10684000  0.10426000  1.0
  H  H21  1  0.10747000  0.21167000  0.15145000  1.0
  H  H22  1  0.08214000  0.12337000  0.13627000  1.0
  H  H23  1  0.97396000  0.22084000  0.97623000  1.0
  H  H24  1  0.12530000  0.17768000  0.01303000  1.0
  H  H25  1  0.66330000  0.99440000  0.89179000  1.0
  H  H26  1  0.75571000  0.96946000  0.81543000  1.0
  H  H27  1  0.47155000  0.96415000  0.79782000  1.0
  H  H28  1  0.43172000  0.03011000  0.73827000  1.0
  H  H29  1  0.44721000  0.07525000  0.87492000  1.0
  H  H30  1  0.59906000  0.13201000  0.87349000  1.0
  H  H31  1  0.91399000  0.02803000  0.90500000  1.0
  H  H32  1  0.81154000  0.10426000  0.89315000  1.0
  H  H33  1  0.10747000  0.15145000  0.78833000  1.0
  H  H34  1  0.08214000  0.13627000  0.87662000  1.0
  H  H35  1  0.97396000  0.97623000  0.77915000  1.0
  H  H36  1  0.12530000  0.01303000  0.82231000  1.0
  H  H37  1  0.66330000  0.00559000  0.10821000  1.0
  H  H38  1  0.75571000  0.03054000  0.18456000  1.0
  H  H39  1  0.47155000  0.03585000  0.20218000  1.0
  H  H40  1  0.43172000  0.96989000  0.26172000  1.0
  H  H41  1  0.44721000  0.92475000  0.12508000  1.0
  H  H42  1  0.59906000  0.86799000  0.12651000  1.0
  H  H43  1  0.91399000  0.97197000  0.09500000  1.0
  H  H44  1  0.81154000  0.89574000  0.10684000  1.0
  H  H45  1  0.10747000  0.84855000  0.21167000  1.0
  H  H46  1  0.08214000  0.86372000  0.12337000  1.0
  H  H47  1  0.97396000  0.02377000  0.22084000  1.0
  H  H48  1  0.12530000  0.98697000  0.17768000  1.0
  H  H49  1  0.15937000  0.39050000  0.49489000  1.0
  H  H50  1  0.25340000  0.31464000  0.47004000  1.0
  H  H51  1  0.97207000  0.29632000  0.46476000  1.0
  H  H52  1  0.93047000  0.23701000  0.53087000  1.0
  H  H53  1  0.94474000  0.37264000  0.57711000  1.0
  H  H54  1  0.09684000  0.37132000  0.63380000  1.0
  H  H55  1  0.40979000  0.40542000  0.52830000  1.0
  H  H56  1  0.30818000  0.39279000  0.60467000  1.0
  H  H57  1  0.60845000  0.29031000  0.65098000  1.0
  H  H58  1  0.58038000  0.37840000  0.63528000  1.0
  H  H59  1  0.47383000  0.27962000  0.47628000  1.0
  H  H60  1  0.62407000  0.32326000  0.51321000  1.0
  H  H61  1  0.15937000  0.60950000  0.50511000  1.0
  H  H62  1  0.25340000  0.68536000  0.52996000  1.0
  H  H63  1  0.97207000  0.70368000  0.53524000  1.0
  H  H64  1  0.93047000  0.76299000  0.46913000  1.0
  H  H65  1  0.94474000  0.62736000  0.42288000  1.0
  H  H66  1  0.09684000  0.62868000  0.36620000  1.0
  H  H67  1  0.40979000  0.59458000  0.47169000  1.0
  H  H68  1  0.30818000  0.60721000  0.39532000  1.0
  H  H69  1  0.60845000  0.70968000  0.34902000  1.0
  H  H70  1  0.58038000  0.62160000  0.36472000  1.0
  H  H71  1  0.47383000  0.72038000  0.52372000  1.0
  H  H72  1  0.62407000  0.67674000  0.48679000  1.0
  H  H73  1  0.15937000  0.49489000  0.60950000  1.0
  H  H74  1  0.25340000  0.47004000  0.68536000  1.0
  H  H75  1  0.97207000  0.46476000  0.70368000  1.0
  H  H76  1  0.93047000  0.53087000  0.76299000  1.0
  H  H77  1  0.94474000  0.57711000  0.62736000  1.0
  H  H78  1  0.09684000  0.63380000  0.62868000  1.0
  H  H79  1  0.40979000  0.52830000  0.59458000  1.0
  H  H80  1  0.30818000  0.60467000  0.60721000  1.0
  H  H81  1  0.60845000  0.65098000  0.70968000  1.0
  H  H82  1  0.58038000  0.63528000  0.62160000  1.0
  H  H83  1  0.47383000  0.47628000  0.72038000  1.0
  H  H84  1  0.62407000  0.51321000  0.67674000  1.0
  H  H85  1  0.15937000  0.50511000  0.39050000  1.0
  H  H86  1  0.25340000  0.52996000  0.31464000  1.0
  H  H87  1  0.97207000  0.53524000  0.29632000  1.0
  H  H88  1  0.93047000  0.46913000  0.23701000  1.0
  H  H89  1  0.94474000  0.42288000  0.37264000  1.0
  H  H90  1  0.09684000  0.36620000  0.37132000  1.0
  H  H91  1  0.40979000  0.47169000  0.40542000  1.0
  H  H92  1  0.30818000  0.39532000  0.39279000  1.0
  H  H93  1  0.60845000  0.34902000  0.29031000  1.0
  H  H94  1  0.58038000  0.36472000  0.37840000  1.0
  H  H95  1  0.47383000  0.52372000  0.27962000  1.0
  H  H96  1  0.62407000  0.48679000  0.32326000  1.0
  C  C1  1  0.71814000  0.84495000  0.98548000  1.0
  C  C2  1  0.52250000  0.76329000  0.99726000  1.0
  C  C3  1  0.60372000  0.70608000  0.03603000  1.0
  C  C4  1  0.52620000  0.84056000  0.89869000  1.0
  C  C5  1  0.44269000  0.79710000  0.84549000  1.0
  C  C6  1  0.84936000  0.86677000  0.94243000  1.0
  C  C7  1  0.02289000  0.82722000  0.85814000  1.0
  C  C8  1  0.93064000  0.83050000  0.79245000  1.0
  C  C9  1  0.03742000  0.78474000  0.97593000  1.0
  C  C10  1  0.10896000  0.71389000  0.96418000  1.0
  C  C11  1  0.71814000  0.15505000  0.01452000  1.0
  C  C12  1  0.52250000  0.23671000  0.00273000  1.0
  C  C13  1  0.60372000  0.29392000  0.96396000  1.0
  C  C14  1  0.52620000  0.15944000  0.10130000  1.0
  C  C15  1  0.44269000  0.20290000  0.15450000  1.0
  C  C16  1  0.84936000  0.13322000  0.05757000  1.0
  C  C17  1  0.02289000  0.17278000  0.14185000  1.0
  C  C18  1  0.93064000  0.16949000  0.20755000  1.0
  C  C19  1  0.03742000  0.21526000  0.02407000  1.0
  C  C20  1  0.10896000  0.28611000  0.03582000  1.0
  C  C21  1  0.71814000  0.01452000  0.84495000  1.0
  C  C22  1  0.52250000  0.00273000  0.76329000  1.0
  C  C23  1  0.60372000  0.96396000  0.70608000  1.0
  C  C24  1  0.52620000  0.10130000  0.84056000  1.0
  C  C25  1  0.44269000  0.15450000  0.79710000  1.0
  C  C26  1  0.84936000  0.05757000  0.86677000  1.0
  C  C27  1  0.02289000  0.14185000  0.82722000  1.0
  C  C28  1  0.93064000  0.20755000  0.83050000  1.0
  C  C29  1  0.03742000  0.02407000  0.78474000  1.0
  C  C30  1  0.10896000  0.03582000  0.71389000  1.0
  C  C31  1  0.71814000  0.98548000  0.15505000  1.0
  C  C32  1  0.52250000  0.99726000  0.23671000  1.0
  C  C33  1  0.60372000  0.03603000  0.29392000  1.0
  C  C34  1  0.52620000  0.89869000  0.15944000  1.0
  C  C35  1  0.44269000  0.84549000  0.20290000  1.0
  C  C36  1  0.84936000  0.94243000  0.13322000  1.0
  C  C37  1  0.02289000  0.85814000  0.17278000  1.0
  C  C38  1  0.93064000  0.79245000  0.16949000  1.0
  C  C39  1  0.03742000  0.97593000  0.21526000  1.0
  C  C40  1  0.10896000  0.96418000  0.28611000  1.0
  C  C41  1  0.21558000  0.34406000  0.51513000  1.0
  C  C42  1  0.02175000  0.26179000  0.50368000  1.0
  C  C43  1  0.10325000  0.20436000  0.46539000  1.0
  C  C44  1  0.02461000  0.33837000  0.60272000  1.0
  C  C45  1  0.94242000  0.29325000  0.65513000  1.0
  C  C46  1  0.34653000  0.36672000  0.55789000  1.0
  C  C47  1  0.52274000  0.32868000  0.64156000  1.0
  C  C48  1  0.43229000  0.33200000  0.70768000  1.0
  C  C49  1  0.53653000  0.28551000  0.52429000  1.0
  C  C50  1  0.60908000  0.21509000  0.53684000  1.0
  C  C51  1  0.21558000  0.65593000  0.48487000  1.0
  C  C52  1  0.02175000  0.73821000  0.49632000  1.0
  C  C53  1  0.10325000  0.79563000  0.53461000  1.0
  C  C54  1  0.02461000  0.66162000  0.39728000  1.0
  C  C55  1  0.94242000  0.70675000  0.34487000  1.0
  C  C56  1  0.34653000  0.63328000  0.44211000  1.0
  C  C57  1  0.52274000  0.67132000  0.35844000  1.0
  C  C58  1  0.43229000  0.66799000  0.29232000  1.0
  C  C59  1  0.53653000  0.71449000  0.47571000  1.0
  C  C60  1  0.60908000  0.78491000  0.46315000  1.0
  C  C61  1  0.21558000  0.51513000  0.65593000  1.0
  C  C62  1  0.02175000  0.50368000  0.73821000  1.0
  C  C63  1  0.10325000  0.46539000  0.79563000  1.0
  C  C64  1  0.02461000  0.60272000  0.66162000  1.0
  C  C65  1  0.94242000  0.65513000  0.70675000  1.0
  C  C66  1  0.34653000  0.55789000  0.63328000  1.0
  C  C67  1  0.52274000  0.64156000  0.67132000  1.0
  C  C68  1  0.43229000  0.70768000  0.66799000  1.0
  C  C69  1  0.53653000  0.52429000  0.71449000  1.0
  C  C70  1  0.60908000  0.53684000  0.78491000  1.0
  C  C71  1  0.21558000  0.48487000  0.34406000  1.0
  C  C72  1  0.02175000  0.49632000  0.26179000  1.0
  C  C73  1  0.10325000  0.53461000  0.20436000  1.0
  C  C74  1  0.02461000  0.39728000  0.33837000  1.0
  C  C75  1  0.94242000  0.34487000  0.29325000  1.0
  C  C76  1  0.34653000  0.44211000  0.36672000  1.0
  C  C77  1  0.52274000  0.35844000  0.32868000  1.0
  C  C78  1  0.43229000  0.29232000  0.33200000  1.0
  C  C79  1  0.53653000  0.47571000  0.28551000  1.0
  C  C80  1  0.60908000  0.46315000  0.21509000  1.0
  N  N1  1  0.61463000  0.80062000  0.94771000  1.0
  N  N2  1  0.94053000  0.80821000  0.92017000  1.0
  N  N3  1  0.61463000  0.19938000  0.05229000  1.0
  N  N4  1  0.94053000  0.19179000  0.07983000  1.0
  N  N5  1  0.61463000  0.05229000  0.80061000  1.0
  N  N6  1  0.94053000  0.07983000  0.80821000  1.0
  N  N7  1  0.61463000  0.94771000  0.19938000  1.0
  N  N8  1  0.94053000  0.92017000  0.19179000  1.0
  N  N9  1  0.11352000  0.29926000  0.55320000  1.0
  N  N10  1  0.43946000  0.30877000  0.58007000  1.0
  N  N11  1  0.11352000  0.70074000  0.44680000  1.0
  N  N12  1  0.43946000  0.69123000  0.41993000  1.0
  N  N13  1  0.11352000  0.55320000  0.70074000  1.0
  N  N14  1  0.43946000  0.58007000  0.69123000  1.0
  N  N15  1  0.11352000  0.44680000  0.29926000  1.0
  N  N16  1  0.43946000  0.41993000  0.30877000  1.0
  O  O1  1  0.72568000  0.68390000  0.01397000  1.0
  O  O2  1  0.54107000  0.68333000  0.09045000  1.0
  O  O3  1  0.47385000  0.73289000  0.84039000  1.0
  O  O4  1  0.34878000  0.82939000  0.81002000  1.0
  O  O5  1  0.79903000  0.80928000  0.79263000  1.0
  O  O6  1  0.99359000  0.85459000  0.73891000  1.0
  O  O7  1  0.20791000  0.69741000  0.00675000  1.0
  O  O8  1  0.06629000  0.67708000  0.91323000  1.0
  O  O9  1  0.72568000  0.31610000  0.98603000  1.0
  O  O10  1  0.54107000  0.31666000  0.90955000  1.0
  O  O11  1  0.47385000  0.26710000  0.15960000  1.0
  O  O12  1  0.34878000  0.17061000  0.18997000  1.0
  O  O13  1  0.79903000  0.19072000  0.20736000  1.0
  O  O14  1  0.99359000  0.14541000  0.26109000  1.0
  O  O15  1  0.20791000  0.30258000  0.99324000  1.0
  O  O16  1  0.06629000  0.32291000  0.08677000  1.0
  O  O17  1  0.72568000  0.98603000  0.68390000  1.0
  O  O18  1  0.54107000  0.90955000  0.68333000  1.0
  O  O19  1  0.47385000  0.15960000  0.73289000  1.0
  O  O20  1  0.34878000  0.18997000  0.82939000  1.0
  O  O21  1  0.79903000  0.20736000  0.80927000  1.0
  O  O22  1  0.99359000  0.26109000  0.85459000  1.0
  O  O23  1  0.20791000  0.99324000  0.69741000  1.0
  O  O24  1  0.06629000  0.08677000  0.67708000  1.0
  O  O25  1  0.72568000  0.01397000  0.31610000  1.0
  O  O26  1  0.54107000  0.09045000  0.31666000  1.0
  O  O27  1  0.47385000  0.84039000  0.26710000  1.0
  O  O28  1  0.34878000  0.81002000  0.17061000  1.0
  O  O29  1  0.79903000  0.79263000  0.19072000  1.0
  O  O30  1  0.99359000  0.73891000  0.14541000  1.0
  O  O31  1  0.20791000  0.00675000  0.30258000  1.0
  O  O32  1  0.06629000  0.91323000  0.32291000  1.0
  O  O33  1  0.22227000  0.18058000  0.48911000  1.0
  O  O34  1  0.04348000  0.18330000  0.40956000  1.0
  O  O35  1  0.97748000  0.22947000  0.65971000  1.0
  O  O36  1  0.84513000  0.32326000  0.69046000  1.0
  O  O37  1  0.30177000  0.30928000  0.70819000  1.0
  O  O38  1  0.49535000  0.35762000  0.76055000  1.0
  O  O39  1  0.70473000  0.19717000  0.49323000  1.0
  O  O40  1  0.57002000  0.18010000  0.58973000  1.0
  O  O41  1  0.22227000  0.81941000  0.51088000  1.0
  O  O42  1  0.04348000  0.81670000  0.59043000  1.0
  O  O43  1  0.97748000  0.77053000  0.34029000  1.0
  O  O44  1  0.84513000  0.67674000  0.30953000  1.0
  O  O45  1  0.30177000  0.69071000  0.29181000  1.0
  O  O46  1  0.49535000  0.64238000  0.23945000  1.0
  O  O47  1  0.70473000  0.80282000  0.50677000  1.0
  O  O48  1  0.57002000  0.81989000  0.41027000  1.0
  O  O49  1  0.22227000  0.48911000  0.81941000  1.0
  O  O50  1  0.04348000  0.40956000  0.81670000  1.0
  O  O51  1  0.97748000  0.65971000  0.77053000  1.0
  O  O52  1  0.84513000  0.69046000  0.67674000  1.0
  O  O53  1  0.30177000  0.70819000  0.69071000  1.0
  O  O54  1  0.49535000  0.76055000  0.64238000  1.0
  O  O55  1  0.70473000  0.49323000  0.80282000  1.0
  O  O56  1  0.57002000  0.58973000  0.81989000  1.0
  O  O57  1  0.22227000  0.51088000  0.18058000  1.0
  O  O58  1  0.04348000  0.59043000  0.18330000  1.0
  O  O59  1  0.97748000  0.34029000  0.22947000  1.0
  O  O60  1  0.84513000  0.30953000  0.32326000  1.0
  O  O61  1  0.30177000  0.29181000  0.30928000  1.0
  O  O62  1  0.49535000  0.23945000  0.35762000  1.0
  O  O63  1  0.70473000  0.50677000  0.19717000  1.0
  O  O64  1  0.57002000  0.41027000  0.18010000  1.0
