# generated using pymatgen
data_CdH8C14(NO2)2
_symmetry_space_group_name_H-M   'P 1'
_cell_length_a   8.30587000
_cell_length_b   16.53803000
_cell_length_c   16.55468886
_cell_angle_alpha   117.22670097
_cell_angle_beta   99.63648834
_cell_angle_gamma   99.50949000
_symmetry_Int_Tables_number   1
_chemical_formula_structural   CdH8C14(NO2)2
_chemical_formula_sum   'Cd6 H48 C84 N12 O24'
_cell_volume   1916.18565881
_cell_formula_units_Z   6
loop_
 _symmetry_equiv_pos_site_id
 _symmetry_equiv_pos_as_xyz
  1  'x, y, z'
loop_
 _atom_site_type_symbol
 _atom_site_label
 _atom_site_symmetry_multiplicity
 _atom_site_fract_x
 _atom_site_fract_y
 _atom_site_fract_z
 _atom_site_occupancy
  Cd  Cd0  1  0.79603000  0.24369000  0.59657000  1
  Cd  Cd1  1  0.20407000  0.75925000  0.40589000  1
  Cd  Cd2  1  0.55415000  0.35530000  0.75897000  1
  Cd  Cd3  1  0.44659000  0.64991000  0.24345000  1
  Cd  Cd4  1  0.19947000  0.40553000  0.64640000  1
  Cd  Cd5  1  0.79905000  0.59761000  0.35386000  1
  H  H6  1  0.25184000  0.88649000  0.22127000  1
  H  H7  1  0.73583000  0.92620000  0.53072000  1
  H  H8  1  0.60088000  0.13488000  0.26163000  1
  H  H9  1  0.85881000  0.88569000  0.65055000  1
  H  H10  1  0.89782000  0.00110000  0.21503000  1
  H  H11  1  0.14455000  0.11956000  0.35417000  1
  H  H12  1  0.32435000  0.00988000  0.17537000  1
  H  H13  1  0.67522000  0.99231000  0.82685000  1
  H  H14  1  0.39979000  0.86671000  0.73941000  1
  H  H15  1  0.76853000  0.84870000  0.20477000  1
  H  H16  1  0.74720000  0.11665000  0.78218000  1
  H  H17  1  0.23304000  0.15705000  0.79814000  1
  H  H18  1  0.20214000  0.86182000  0.60616000  1
  H  H19  1  0.79839000  0.14047000  0.39540000  1
  H  H20  1  0.26543000  0.07770000  0.47324000  1
  H  H21  1  0.10469000  0.00542000  0.78962000  1
  H  H22  1  0.46439000  0.13014000  0.86782000  1
  H  H23  1  0.07936000  0.64359000  0.84580000  1
  H  H24  1  0.63309000  0.66714000  0.88499000  1
  H  H25  1  0.89872000  0.21789000  0.00270000  1
  H  H26  1  0.65829000  0.25780000  0.86243000  1
  H  H27  1  0.02517000  0.23825000  0.88331000  1
  H  H28  1  0.18927000  0.39871000  0.92474000  1
  H  H29  1  0.31080000  0.16978000  0.99225000  1
  H  H30  1  0.97476000  0.76693000  0.11694000  1
  H  H31  1  0.36400000  0.33891000  0.11612000  1
  H  H32  1  0.92210000  0.36011000  0.15494000  1
  H  H33  1  0.10320000  0.78635000  0.99766000  1
  H  H34  1  0.53578000  0.87501000  0.13504000  1
  H  H35  1  0.68519000  0.83606000  0.00888000  1
  H  H36  1  0.81090000  0.60675000  0.07638000  1
  H  H37  1  0.34286000  0.74687000  0.14027000  1
  H  H38  1  0.14758000  0.82758000  0.83446000  1
  H  H39  1  0.03006000  0.78216000  0.66555000  1
  H  H40  1  0.40351000  0.60760000  0.74549000  1
  H  H41  1  0.79391000  0.52785000  0.60302000  1
  H  H42  1  0.66031000  0.26259000  0.12648000  1
  H  H43  1  0.21093000  0.35465000  0.23661000  1
  H  H44  1  0.68481000  0.78668000  0.78536000  1
  H  H45  1  0.33902000  0.74159000  0.87349000  1
  H  H46  1  0.85235000  0.17611000  0.16427000  1
  H  H47  1  0.96897000  0.21988000  0.33292000  1
  H  H48  1  0.56408000  0.79732000  0.64375000  1
  H  H49  1  0.59617000  0.39592000  0.25538000  1
  H  H50  1  0.79158000  0.64661000  0.76392000  1
  H  H51  1  0.43845000  0.20550000  0.35899000  1
  H  H52  1  0.20761000  0.47400000  0.39702000  1
  H  H53  1  0.31804000  0.21500000  0.21661000  1
  C  C54  1  0.58711000  0.99149000  0.76966000  1
  C  C55  1  0.48389000  0.94197000  0.33083000  1
  C  C56  1  0.41242000  0.01110000  0.23282000  1
  C  C57  1  0.15451000  0.02929000  0.41439000  1
  C  C58  1  0.67777000  0.08570000  0.35753000  1
  C  C59  1  0.84715000  0.97497000  0.58921000  1
  C  C60  1  0.32233000  0.91686000  0.64449000  1
  C  C61  1  0.95143000  0.98505000  0.26884000  1
  C  C62  1  0.37161000  0.94177000  0.25771000  1
  C  C63  1  0.56634000  0.08182000  0.28182000  1
  C  C64  1  0.05088000  0.02056000  0.73512000  1
  C  C65  1  0.12168000  0.10626000  0.74117000  1
  C  C66  1  0.83904000  0.78493000  0.31814000  1
  C  C67  1  0.08520000  0.94127000  0.40640000  1
  C  C68  1  0.63671000  0.01615000  0.38259000  1
  C  C69  1  0.87993000  0.89904000  0.26199000  1
  C  C70  1  0.36303000  0.98697000  0.62010000  1
  C  C71  1  0.56728000  0.13449000  0.64499000  1
  C  C72  1  0.43331000  0.86900000  0.35837000  1
  C  C73  1  0.91482000  0.95371000  0.65751000  1
  C  C74  1  0.16212000  0.21928000  0.68373000  1
  C  C75  1  0.62762000  0.06128000  0.74535000  1
  C  C76  1  0.91582000  0.06273000  0.59646000  1
  C  C77  1  0.43380000  0.92040000  0.71999000  1
  C  C78  1  0.05811000  0.12908000  0.67262000  1
  C  C79  1  0.51571000  0.06130000  0.67224000  1
  C  C80  1  0.08780000  0.05131000  0.34654000  1
  C  C81  1  0.94314000  0.87536000  0.32993000  1
  C  C82  1  0.48354000  0.20341000  0.92096000  1
  C  C83  1  0.98300000  0.36675000  0.10433000  1
  C  C84  1  0.14586000  0.46845000  0.06141000  1
  C  C85  1  0.62211000  0.36951000  0.98708000  1
  C  C86  1  0.93118000  0.54611000  0.87361000  1
  C  C87  1  0.01835000  0.63733000  0.89653000  1
  C  C88  1  0.45679000  0.61314000  0.94052000  1
  C  C89  1  0.06974000  0.45811000  0.12756000  1
  C  C90  1  0.96290000  0.70603000  0.04889000  1
  C  C91  1  0.94420000  0.46706000  0.78321000  1
  C  C92  1  0.51604000  0.80184000  0.08149000  1
  C  C93  1  0.59251000  0.27491000  0.91735000  1
  C  C94  1  0.87368000  0.61661000  0.02764000  1
  C  C95  1  0.85493000  0.53623000  0.93995000  1
  C  C96  1  0.59831000  0.78004000  0.01023000  1
  C  C97  1  0.56564000  0.49280000  0.13442000  1
  C  C98  1  0.03753000  0.29889000  0.95165000  1
  C  C99  1  0.39958000  0.22563000  0.99155000  1
  C  C100  1  0.37858000  0.63558000  0.01505000  1
  C  C101  1  0.12674000  0.38845000  0.97337000  1
  C  C102  1  0.42956000  0.31980000  0.06119000  1
  C  C103  1  0.96803000  0.28758000  0.01831000  1
  C  C104  1  0.54345000  0.39233000  0.06147000  1
  C  C105  1  0.05641000  0.53694000  0.21796000  1
  C  C106  1  0.43537000  0.51288000  0.86723000  1
  C  C107  1  0.40801000  0.73003000  0.08509000  1
  C  C108  1  0.03323000  0.71683000  0.98224000  1
  C  C109  1  0.56913000  0.68599000  0.94058000  1
  C  C110  1  0.61869000  0.73996000  0.63665000  1
  C  C111  1  0.28437000  0.72133000  0.80029000  1
  C  C112  1  0.32140000  0.40717000  0.46693000  1
  C  C113  1  0.71502000  0.28220000  0.19947000  1
  C  C114  1  0.68396000  0.73275000  0.71549000  1
  C  C115  1  0.38798000  0.33081000  0.45680000  1
  C  C116  1  0.74529000  0.38188000  0.36595000  1
  C  C117  1  0.25480000  0.62074000  0.63414000  1
  C  C118  1  0.26010000  0.41508000  0.38685000  1
  C  C119  1  0.88583000  0.25685000  0.31452000  1
  C  C120  1  0.38349000  0.26260000  0.36549000  1
  C  C121  1  0.25964000  0.34707000  0.29732000  1
  C  C122  1  0.07485000  0.64522000  0.51121000  1
  C  C123  1  0.84651000  0.32953000  0.38782000  1
  C  C124  1  0.61363000  0.67209000  0.54506000  1
  C  C125  1  0.31846000  0.26920000  0.28623000  1
  C  C126  1  0.74157000  0.58696000  0.61379000  1
  C  C127  1  0.48061000  0.31935000  0.53568000  1
  C  C128  1  0.67991000  0.59544000  0.53413000  1
  C  C129  1  0.32066000  0.64565000  0.72864000  1
  C  C130  1  0.82064000  0.23293000  0.22065000  1
  C  C131  1  0.17886000  0.77025000  0.77841000  1
  C  C132  1  0.92559000  0.35618000  0.48797000  1
  C  C133  1  0.11360000  0.74558000  0.68434000  1
  C  C134  1  0.52100000  0.68433000  0.46677000  1
  C  C135  1  0.74252000  0.65460000  0.70357000  1
  C  C136  1  0.67897000  0.35754000  0.27165000  1
  C  C137  1  0.15329000  0.67257000  0.61158000  1
  N  N138  1  0.74751000  0.00931000  0.45140000  1
  N  N139  1  0.82944000  0.08353000  0.52892000  1
  N  N140  1  0.25229000  0.99396000  0.55142000  1
  N  N141  1  0.17075000  0.91990000  0.47366000  1
  N  N142  1  0.25278000  0.55677000  0.08243000  1
  N  N143  1  0.26065000  0.56020000  0.00822000  1
  N  N144  1  0.74796000  0.44797000  0.91926000  1
  N  N145  1  0.74018000  0.44468000  0.99356000  1
  N  N146  1  0.30250000  0.47442000  0.55529000  1
  N  N147  1  0.70306000  0.45051000  0.44161000  1
  N  N148  1  0.69815000  0.52836000  0.44541000  1
  N  N149  1  0.29758000  0.55208000  0.55875000  1
  O  O150  1  0.68102000  0.76747000  0.28484000  1
  O  O151  1  0.51424000  0.11552000  0.56105000  1
  O  O152  1  0.32013000  0.23702000  0.71703000  1
  O  O153  1  0.08840000  0.27165000  0.66176000  1
  O  O154  1  0.67757000  0.21378000  0.70987000  1
  O  O155  1  0.91230000  0.73226000  0.33970000  1
  O  O156  1  0.32448000  0.78926000  0.29328000  1
  O  O157  1  0.48529000  0.88830000  0.44250000  1
  O  O158  1  0.53478000  0.50740000  0.21392000  1
  O  O159  1  0.18254000  0.61084000  0.27014000  1
  O  O160  1  0.08380000  0.48262000  0.76473000  1
  O  O161  1  0.81864000  0.39278000  0.73148000  1
  O  O162  1  0.59955000  0.55762000  0.11516000  1
  O  O163  1  0.91617000  0.52164000  0.23583000  1
  O  O164  1  0.40209000  0.44792000  0.88646000  1
  O  O165  1  0.46585000  0.49839000  0.78780000  1
  O  O166  1  0.03031000  0.71030000  0.49640000  1
  O  O167  1  0.60619000  0.28643000  0.52018000  1
  O  O168  1  0.04290000  0.56102000  0.44659000  1
  O  O169  1  0.95747000  0.44040000  0.55283000  1
  O  O170  1  0.57383000  0.66395000  0.39312000  1
  O  O171  1  0.42822000  0.34084000  0.60959000  1
  O  O172  1  0.39520000  0.71687000  0.48245000  1
  O  O173  1  0.97015000  0.29102000  0.50239000  1
