# generated using pymatgen
data_Zn7H36(C36O13)2
_symmetry_space_group_name_H-M   'P 1'
_cell_length_a   13.05578000
_cell_length_b   13.07157000
_cell_length_c   24.43125000
_cell_angle_alpha   90.31721000
_cell_angle_beta   90.19505000
_cell_angle_gamma   82.85616000
_symmetry_Int_Tables_number   1
_chemical_formula_structural   Zn7H36(C36O13)2
_chemical_formula_sum   'Zn14 H72 C144 O52'
_cell_volume   4136.98009353
_cell_formula_units_Z   2
loop_
 _symmetry_equiv_pos_site_id
 _symmetry_equiv_pos_as_xyz
  1  'x, y, z'
loop_
 _atom_site_type_symbol
 _atom_site_label
 _atom_site_symmetry_multiplicity
 _atom_site_fract_x
 _atom_site_fract_y
 _atom_site_fract_z
 _atom_site_occupancy
  Zn  Zn0  1  0.84530000  0.99919000  0.60635000  1
  Zn  Zn1  1  0.65770000  0.50210000  0.10632000  1
  Zn  Zn2  1  0.50111000  0.65831000  0.89338000  1
  Zn  Zn3  1  0.99771000  0.84079000  0.39356000  1
  Zn  Zn4  1  0.15979000  0.00253000  0.39600000  1
  Zn  Zn5  1  0.33996000  0.49460000  0.89359000  1
  Zn  Zn6  1  0.49581000  0.34075000  0.10401000  1
  Zn  Zn7  1  0.00670000  0.16029000  0.60409000  1
  Zn  Zn8  1  0.82069000  0.18393000  0.52264000  1
  Zn  Zn9  1  0.68012000  0.31597000  0.02288000  1
  Zn  Zn10  1  0.31658000  0.67943000  0.97686000  1
  Zn  Zn11  1  0.18390000  0.81703000  0.47676000  1
  Zn  Zn12  1  0.99802000  0.99797000  0.49911000  1
  Zn  Zn13  1  0.50215000  0.50138000  0.99868000  1
  H  H14  1  0.09367000  0.64901000  0.56544000  1
  H  H15  1  0.08317000  0.45968000  0.57151000  1
  H  H16  1  0.71800000  0.43022000  0.56223000  1
  H  H17  1  0.56022000  0.55601000  0.56247000  1
  H  H18  1  0.57163000  0.74356000  0.56468000  1
  H  H19  1  0.74243000  0.80664000  0.56631000  1
  H  H20  1  0.40644000  0.85150000  0.06621000  1
  H  H21  1  0.41713000  0.04095000  0.07197000  1
  H  H22  1  0.78183000  0.07021000  0.06258000  1
  H  H23  1  0.93977000  0.94465000  0.06221000  1
  H  H24  1  0.92843000  0.75707000  0.06423000  1
  H  H25  1  0.75787000  0.69382000  0.06642000  1
  H  H26  1  0.85073000  0.40682000  0.93419000  1
  H  H27  1  0.04055000  0.41708000  0.92868000  1
  H  H28  1  0.07018000  0.78176000  0.93785000  1
  H  H29  1  0.94434000  0.93936000  0.93768000  1
  H  H30  1  0.75645000  0.92797000  0.93550000  1
  H  H31  1  0.69331000  0.75743000  0.93362000  1
  H  H32  1  0.64937000  0.09145000  0.43372000  1
  H  H33  1  0.45902000  0.08153000  0.42857000  1
  H  H34  1  0.42850000  0.71741000  0.43784000  1
  H  H35  1  0.55372000  0.55943000  0.43809000  1
  H  H36  1  0.74162000  0.57008000  0.43610000  1
  H  H37  1  0.80558000  0.74025000  0.43387000  1
  H  H38  1  0.90844000  0.35401000  0.43461000  1
  H  H39  1  0.92092000  0.54281000  0.42892000  1
  H  H40  1  0.28649000  0.56871000  0.43777000  1
  H  H41  1  0.44335000  0.44170000  0.43850000  1
  H  H42  1  0.43005000  0.25442000  0.43649000  1
  H  H43  1  0.25903000  0.19298000  0.43422000  1
  H  H44  1  0.59053000  0.14511000  0.93550000  1
  H  H45  1  0.57903000  0.95606000  0.92944000  1
  H  H46  1  0.21468000  0.92798000  0.93879000  1
  H  H47  1  0.05687000  0.05377000  0.93974000  1
  H  H48  1  0.06850000  0.24128000  0.93664000  1
  H  H49  1  0.23898000  0.30426000  0.93345000  1
  H  H50  1  0.14452000  0.59208000  0.06535000  1
  H  H51  1  0.95534000  0.57931000  0.07160000  1
  H  H52  1  0.92990000  0.21452000  0.06258000  1
  H  H53  1  0.05711000  0.05781000  0.06138000  1
  H  H54  1  0.24469000  0.07122000  0.06333000  1
  H  H55  1  0.30610000  0.24202000  0.06581000  1
  H  H56  1  0.35632000  0.90926000  0.56456000  1
  H  H57  1  0.54563000  0.92112000  0.57119000  1
  H  H58  1  0.57271000  0.28518000  0.56156000  1
  H  H59  1  0.44657000  0.44237000  0.56027000  1
  H  H60  1  0.25865000  0.43036000  0.56332000  1
  H  H61  1  0.19616000  0.25998000  0.56644000  1
  H  H62  1  0.96303000  0.04709000  0.79207000  1
  H  H63  1  0.91390000  0.08900000  0.88913000  1
  H  H64  1  0.63265000  0.36565000  0.87752000  1
  H  H65  1  0.54106000  0.45934000  0.80113000  1
  H  H66  1  0.58988000  0.41399000  0.70404000  1
  H  H67  1  0.73239000  0.27620000  0.68509000  1
  H  H68  1  0.54028000  0.45632000  0.29183000  1
  H  H69  1  0.58615000  0.41203000  0.38880000  1
  H  H70  1  0.86556000  0.13314000  0.37732000  1
  H  H71  1  0.95824000  0.03996000  0.30091000  1
  H  H72  1  0.91072000  0.08603000  0.20384000  1
  H  H73  1  0.76973000  0.22518000  0.18484000  1
  H  H74  1  0.45438000  0.53866000  0.70625000  1
  H  H75  1  0.40960000  0.58648000  0.60930000  1
  H  H76  1  0.13379000  0.86824000  0.62204000  1
  H  H77  1  0.04010000  0.95925000  0.69873000  1
  H  H78  1  0.08555000  0.90980000  0.79559000  1
  H  H79  1  0.22468000  0.76862000  0.81409000  1
  H  H80  1  0.04405000  0.96002000  0.20803000  1
  H  H81  1  0.08839000  0.91357000  0.11093000  1
  H  H82  1  0.36652000  0.63385000  0.12224000  1
  H  H83  1  0.46014000  0.54182000  0.19840000  1
  H  H84  1  0.41408000  0.58949000  0.29557000  1
  H  H85  1  0.27476000  0.73032000  0.31482000  1
  C  C86  1  0.92942000  0.68954000  0.56703000  1
  C  C87  1  0.01918000  0.61989000  0.56668000  1
  C  C88  1  0.01316000  0.51396000  0.56955000  1
  C  C89  1  0.91875000  0.47457000  0.56911000  1
  C  C90  1  0.82423000  0.54434000  0.56650000  1
  C  C91  1  0.72411000  0.51201000  0.56481000  1
  C  C92  1  0.63565000  0.58302000  0.56471000  1
  C  C93  1  0.64195000  0.68933000  0.56586000  1
  C  C94  1  0.73782000  0.72419000  0.56613000  1
  C  C95  1  0.83055000  0.65383000  0.56692000  1
  C  C96  1  0.93856000  0.80293000  0.56776000  1
  C  C97  1  0.92347000  0.35918000  0.57107000  1
  C  C98  1  0.57072000  0.81074000  0.06771000  1
  C  C99  1  0.48099000  0.88046000  0.06745000  1
  C  C100  1  0.48702000  0.98646000  0.07004000  1
  C  C101  1  0.58141000  0.02579000  0.06937000  1
  C  C102  1  0.67586000  0.95598000  0.06680000  1
  C  C103  1  0.77589000  0.98842000  0.06492000  1
  C  C104  1  0.86442000  0.91757000  0.06462000  1
  C  C105  1  0.85814000  0.81127000  0.06567000  1
  C  C106  1  0.76235000  0.77628000  0.06628000  1
  C  C107  1  0.66958000  0.84650000  0.06736000  1
  C  C108  1  0.56146000  0.69731000  0.06852000  1
  C  C109  1  0.57670000  0.14120000  0.07110000  1
  C  C110  1  0.81035000  0.57073000  0.93192000  1
  C  C111  1  0.88006000  0.48109000  0.93285000  1
  C  C112  1  0.98619000  0.48701000  0.93047000  1
  C  C113  1  0.02563000  0.58130000  0.93099000  1
  C  C114  1  0.95582000  0.67572000  0.93346000  1
  C  C115  1  0.98828000  0.77568000  0.93531000  1
  C  C116  1  0.91722000  0.86405000  0.93542000  1
  C  C117  1  0.81078000  0.85777000  0.93421000  1
  C  C118  1  0.77583000  0.76204000  0.93366000  1
  C  C119  1  0.84620000  0.66943000  0.93261000  1
  C  C120  1  0.69684000  0.56148000  0.93030000  1
  C  C121  1  0.14113000  0.57662000  0.92892000  1
  C  C122  1  0.68891000  0.92735000  0.43230000  1
  C  C123  1  0.61964000  0.01732000  0.43273000  1
  C  C124  1  0.51349000  0.01170000  0.43038000  1
  C  C125  1  0.47386000  0.91755000  0.43099000  1
  C  C126  1  0.54321000  0.82292000  0.43351000  1
  C  C127  1  0.51040000  0.72314000  0.43537000  1
  C  C128  1  0.58114000  0.63455000  0.43566000  1
  C  C129  1  0.68763000  0.64047000  0.43461000  1
  C  C130  1  0.72297000  0.73601000  0.43399000  1
  C  C131  1  0.65283000  0.82880000  0.43288000  1
  C  C132  1  0.80229000  0.93641000  0.43064000  1
  C  C133  1  0.35852000  0.92250000  0.42906000  1
  C  C134  1  0.07262000  0.31128000  0.43230000  1
  C  C135  1  0.98349000  0.38190000  0.43315000  1
  C  C136  1  0.99046000  0.48776000  0.43058000  1
  C  C137  1  0.08536000  0.52612000  0.43058000  1
  C  C138  1  0.17924000  0.45556000  0.43333000  1
  C  C139  1  0.27971000  0.48705000  0.43529000  1
  C  C140  1  0.36764000  0.41541000  0.43577000  1
  C  C141  1  0.36030000  0.30931000  0.43480000  1
  C  C142  1  0.26409000  0.27529000  0.43413000  1
  C  C143  1  0.17188000  0.34626000  0.43284000  1
  C  C144  1  0.06306000  0.19779000  0.43070000  1
  C  C145  1  0.08215000  0.64129000  0.42779000  1
  C  C146  1  0.42631000  0.18700000  0.93273000  1
  C  C147  1  0.51570000  0.11672000  0.93386000  1
  C  C148  1  0.50922000  0.01072000  0.93124000  1
  C  C149  1  0.41453000  0.97189000  0.93126000  1
  C  C150  1  0.32051000  0.04210000  0.93391000  1
  C  C151  1  0.22051000  0.00977000  0.93611000  1
  C  C152  1  0.13214000  0.08077000  0.93660000  1
  C  C153  1  0.13870000  0.18698000  0.93502000  1
  C  C154  1  0.23455000  0.22182000  0.93393000  1
  C  C155  1  0.32725000  0.15150000  0.93305000  1
  C  C156  1  0.43610000  0.30048000  0.93075000  1
  C  C157  1  0.41811000  0.85664000  0.92817000  1
  C  C158  1  0.18739000  0.42832000  0.06754000  1
  C  C159  1  0.11650000  0.51718000  0.06690000  1
  C  C160  1  0.01058000  0.50998000  0.06974000  1
  C  C161  1  0.97244000  0.41504000  0.06962000  1
  C  C162  1  0.04326000  0.32149000  0.06691000  1
  C  C163  1  0.01170000  0.22119000  0.06492000  1
  C  C164  1  0.08344000  0.13340000  0.06427000  1
  C  C165  1  0.18965000  0.14082000  0.06522000  1
  C  C166  1  0.22369000  0.23695000  0.06594000  1
  C  C167  1  0.15262000  0.32903000  0.06726000  1
  C  C168  1  0.30097000  0.43832000  0.06916000  1
  C  C169  1  0.85714000  0.41792000  0.07213000  1
  C  C170  1  0.31401000  0.07314000  0.56733000  1
  C  C171  1  0.38467000  0.98405000  0.56632000  1
  C  C172  1  0.49081000  0.99075000  0.56920000  1
  C  C173  1  0.52957000  0.08541000  0.56920000  1
  C  C174  1  0.45889000  0.17910000  0.56636000  1
  C  C175  1  0.49086000  0.27912000  0.56415000  1
  C  C176  1  0.41955000  0.36721000  0.56351000  1
  C  C177  1  0.31325000  0.36043000  0.56499000  1
  C  C178  1  0.27868000  0.26456000  0.56606000  1
  C  C179  1  0.34937000  0.17215000  0.56705000  1
  C  C180  1  0.20029000  0.06354000  0.56910000  1
  C  C181  1  0.64512000  0.08246000  0.57206000  1
  C  C182  1  0.84696000  0.16122000  0.75927000  1
  C  C183  1  0.90045000  0.10748000  0.80150000  1
  C  C184  1  0.87335000  0.13111000  0.85573000  1
  C  C185  1  0.79388000  0.20824000  0.86968000  1
  C  C186  1  0.73736000  0.26572000  0.82673000  1
  C  C187  1  0.65478000  0.34589000  0.83570000  1
  C  C188  1  0.60331000  0.39815000  0.79238000  1
  C  C189  1  0.63072000  0.37310000  0.73790000  1
  C  C190  1  0.71055000  0.29553000  0.72723000  1
  C  C191  1  0.76524000  0.24088000  0.77061000  1
  C  C192  1  0.87615000  0.13087000  0.70160000  1
  C  C193  1  0.77589000  0.22230000  0.93069000  1
  C  C194  1  0.65608000  0.34147000  0.25899000  1
  C  C195  1  0.60204000  0.39518000  0.30116000  1
  C  C196  1  0.62741000  0.37040000  0.35539000  1
  C  C197  1  0.70618000  0.29289000  0.36947000  1
  C  C198  1  0.76312000  0.23511000  0.32658000  1
  C  C199  1  0.84458000  0.15385000  0.33551000  1
  C  C200  1  0.89648000  0.10163000  0.29218000  1
  C  C201  1  0.86997000  0.12727000  0.23769000  1
  C  C202  1  0.79096000  0.20555000  0.22700000  1
  C  C203  1  0.73651000  0.26068000  0.27041000  1
  C  C204  1  0.62700000  0.37169000  0.20140000  1
  C  C205  1  0.72324000  0.27961000  0.43060000  1
  C  C206  1  0.34004000  0.65468000  0.73956000  1
  C  C207  1  0.39357000  0.60099000  0.69718000  1
  C  C208  1  0.36880000  0.62745000  0.64308000  1
  C  C209  1  0.29177000  0.70713000  0.62958000  1
  C  C210  1  0.23461000  0.76395000  0.67255000  1
  C  C211  1  0.15408000  0.84624000  0.66376000  1
  C  C212  1  0.10170000  0.89733000  0.70724000  1
  C  C213  1  0.12690000  0.86964000  0.76160000  1
  C  C214  1  0.20510000  0.79041000  0.77204000  1
  C  C215  1  0.26001000  0.73618000  0.72852000  1
  C  C216  1  0.36968000  0.62492000  0.79716000  1
  C  C217  1  0.27712000  0.72467000  0.56882000  1
  C  C218  1  0.15843000  0.84390000  0.24074000  1
  C  C219  1  0.10496000  0.89793000  0.19859000  1
  C  C220  1  0.12987000  0.87230000  0.14430000  1
  C  C221  1  0.20748000  0.79335000  0.13023000  1
  C  C222  1  0.26479000  0.73656000  0.17313000  1
  C  C223  1  0.34599000  0.65509000  0.16406000  1
  C  C224  1  0.39830000  0.60339000  0.20727000  1
  C  C225  1  0.37273000  0.63004000  0.26178000  1
  C  C226  1  0.29432000  0.70896000  0.27262000  1
  C  C227  1  0.23915000  0.76330000  0.22930000  1
  C  C228  1  0.12829000  0.87286000  0.29840000  1
  C  C229  1  0.22235000  0.77605000  0.06917000  1
  O  O230  1  0.98426000  0.83862000  0.52807000  1
  O  O231  1  0.89833000  0.85284000  0.60925000  1
  O  O232  1  0.84303000  0.31822000  0.55845000  1
  O  O233  1  0.00951000  0.30855000  0.58575000  1
  O  O234  1  0.83444000  0.05512000  0.68267000  1
  O  O235  1  0.51569000  0.66110000  0.02859000  1
  O  O236  1  0.60156000  0.64816000  0.11020000  1
  O  O237  1  0.65698000  0.18190000  0.05837000  1
  O  O238  1  0.49081000  0.19218000  0.08575000  1
  O  O239  1  0.66571000  0.44933000  0.18311000  1
  O  O240  1  0.66071000  0.51482000  0.96947000  1
  O  O241  1  0.64730000  0.60244000  0.88893000  1
  O  O242  1  0.18194000  0.65711000  0.94155000  1
  O  O243  1  0.19190000  0.49080000  0.91400000  1
  O  O244  1  0.44486000  0.66640000  0.81688000  1
  O  O245  1  0.83906000  0.98487000  0.46936000  1
  O  O246  1  0.85084000  0.89366000  0.38933000  1
  O  O247  1  0.31772000  0.84230000  0.44153000  1
  O  O248  1  0.30782000  0.00829000  0.41439000  1
  O  O249  1  0.05072000  0.83399000  0.31679000  1
  O  O250  1  0.01529000  0.16131000  0.46931000  1
  O  O251  1  0.10582000  0.14822000  0.38951000  1
  O  O252  1  0.16227000  0.68172000  0.44151000  1
  O  O253  1  0.99749000  0.69204000  0.41120000  1
  O  O254  1  0.18123000  0.93516000  0.32220000  1
  O  O255  1  0.48413000  0.33831000  0.96925000  1
  O  O256  1  0.39378000  0.34836000  0.88909000  1
  O  O257  1  0.33866000  0.81523000  0.94154000  1
  O  O258  1  0.50308000  0.80670000  0.91131000  1
  O  O259  1  0.31881000  0.55978000  0.81956000  1
  O  O260  1  0.33831000  0.48473000  0.03037000  1
  O  O261  1  0.34971000  0.39700000  0.11088000  1
  O  O262  1  0.81674000  0.33793000  0.05831000  1
  O  O263  1  0.80642000  0.50270000  0.08874000  1
  O  O264  1  0.56451000  0.31890000  0.17762000  1
  O  O265  1  0.16221000  0.01595000  0.53059000  1
  O  O266  1  0.15215000  0.10618000  0.61080000  1
  O  O267  1  0.68573000  0.16214000  0.55837000  1
  O  O268  1  0.69616000  0.99831000  0.58873000  1
  O  O269  1  0.94050000  0.18129000  0.67823000  1
  O  O270  1  0.82933000  0.16558000  0.96357000  1
  O  O271  1  0.70322000  0.29518000  0.94491000  1
  O  O272  1  0.92299000  0.08036000  0.55842000  1
  O  O273  1  0.67169000  0.33913000  0.46320000  1
  O  O274  1  0.79294000  0.20430000  0.44505000  1
  O  O275  1  0.57895000  0.42039000  0.05847000  1
  O  O276  1  0.33399000  0.67120000  0.53591000  1
  O  O277  1  0.20347000  0.79659000  0.55476000  1
  O  O278  1  0.41961000  0.57806000  0.93966000  1
  O  O279  1  0.16534000  0.82942000  0.03634000  1
  O  O280  1  0.29604000  0.70421000  0.05488000  1
  O  O281  1  0.08024000  0.91925000  0.44117000  1
