# generated using pymatgen
data_MgH8C13NO5
_symmetry_space_group_name_H-M   'P 1'
_cell_length_a   12.19672000
_cell_length_b   12.46963000
_cell_length_c   12.46953000
_cell_angle_alpha   94.63183000
_cell_angle_beta   112.26398000
_cell_angle_gamma   112.26428000
_symmetry_Int_Tables_number   1
_chemical_formula_structural   MgH8C13NO5
_chemical_formula_sum   'Mg4 H32 C52 N4 O20'
_cell_volume   1567.54716759
_cell_formula_units_Z   4
loop_
 _symmetry_equiv_pos_site_id
 _symmetry_equiv_pos_as_xyz
  1  'x, y, z'
loop_
 _atom_site_type_symbol
 _atom_site_label
 _atom_site_symmetry_multiplicity
 _atom_site_fract_x
 _atom_site_fract_y
 _atom_site_fract_z
 _atom_site_occupancy
  Mg  Mg1  1  0.74999000  0.69571000  0.30421000  1.0
  Mg  Mg2  1  0.25001000  0.30429000  0.69579000  1.0
  Mg  Mg3  1  0.50000000  0.50000000  0.00000000  1.0
  Mg  Mg4  1  0.00000000  0.00000000  0.50000000  1.0
  H  H1  1  0.59794000  0.93116000  0.89345000  1.0
  H  H2  1  0.64607000  0.76374000  0.96142000  1.0
  H  H3  1  0.44341000  0.93523000  0.15442000  1.0
  H  H4  1  0.02118000  0.58621000  0.33524000  1.0
  H  H5  1  0.75005000  0.15131000  0.27314000  1.0
  H  H6  1  0.65299000  0.27044000  0.14819000  1.0
  H  H7  1  0.12121000  0.46641000  0.45642000  1.0
  H  H8  1  0.50605000  0.77218000  0.21471000  1.0
  H  H9  1  0.90208000  0.10655000  0.06889000  1.0
  H  H10  1  0.85388000  0.03852000  0.23625000  1.0
  H  H11  1  0.05661000  0.84559000  0.06479000  1.0
  H  H12  1  0.47875000  0.66471000  0.41382000  1.0
  H  H13  1  0.74992000  0.72681000  0.84871000  1.0
  H  H14  1  0.84697000  0.85179000  0.72960000  1.0
  H  H15  1  0.37875000  0.54355000  0.53363000  1.0
  H  H16  1  0.99389000  0.78523000  0.22777000  1.0
  H  H17  1  0.40206000  0.06884000  0.10655000  1.0
  H  H18  1  0.35393000  0.23626000  0.03858000  1.0
  H  H19  1  0.55659000  0.06477000  0.84558000  1.0
  H  H20  1  0.97882000  0.41379000  0.66476000  1.0
  H  H21  1  0.24996000  0.84869000  0.72686000  1.0
  H  H22  1  0.34702000  0.72956000  0.85181000  1.0
  H  H23  1  0.87880000  0.53359000  0.54358000  1.0
  H  H24  1  0.49396000  0.22782000  0.78529000  1.0
  H  H25  1  0.09793000  0.89346000  0.93111000  1.0
  H  H26  1  0.14613000  0.96148000  0.76375000  1.0
  H  H27  1  0.94340000  0.15441000  0.93521000  1.0
  H  H28  1  0.52126000  0.33529000  0.58618000  1.0
  H  H29  1  0.25009000  0.27320000  0.15129000  1.0
  H  H30  1  0.15303000  0.14821000  0.27040000  1.0
  H  H31  1  0.62126000  0.45646000  0.46637000  1.0
  H  H32  1  0.00612000  0.21477000  0.77223000  1.0
  C  C1  1  0.57556000  0.90143000  0.96549000  1.0
  C  C2  1  0.60528000  0.80998000  0.00125000  1.0
  C  C3  1  0.00165000  0.23446000  0.45004000  1.0
  C  C4  1  0.51672000  0.95157000  0.01884000  1.0
  C  C5  1  0.94233000  0.30168000  0.37043000  1.0
  C  C6  1  0.76632000  0.50653000  0.16827000  1.0
  C  C7  1  0.83154000  0.43428000  0.23254000  1.0
  C  C8  1  0.48986000  0.90290000  0.10916000  1.0
  C  C9  1  0.75580000  0.31131000  0.21418000  1.0
  C  C10  1  0.52103000  0.81175000  0.14388000  1.0
  C  C11  1  0.81002000  0.24547000  0.28301000  1.0
  C  C12  1  0.01931000  0.42430000  0.38711000  1.0
  C  C13  1  0.96405000  0.49025000  0.31956000  1.0
  C  C14  1  0.92442000  0.03448000  0.09858000  1.0
  C  C15  1  0.89465000  0.99868000  0.18999000  1.0
  C  C16  1  0.49824000  0.54997000  0.76552000  1.0
  C  C17  1  0.98327000  0.98115000  0.04843000  1.0
  C  C18  1  0.55761000  0.62957000  0.69834000  1.0
  C  C19  1  0.73351000  0.83156000  0.49335000  1.0
  C  C20  1  0.66839000  0.76745000  0.56574000  1.0
  C  C21  1  0.01012000  0.89083000  0.09709000  1.0
  C  C22  1  0.74415000  0.78582000  0.68872000  1.0
  C  C23  1  0.97890000  0.85606000  0.18821000  1.0
  C  C24  1  0.68994000  0.71696000  0.75456000  1.0
  C  C25  1  0.48063000  0.61287000  0.57573000  1.0
  C  C26  1  0.53589000  0.68043000  0.50979000  1.0
  C  C27  1  0.42444000  0.09858000  0.03451000  1.0
  C  C28  1  0.39473000  0.19002000  0.99875000  1.0
  C  C29  1  0.99836000  0.76554000  0.54996000  1.0
  C  C30  1  0.48328000  0.04843000  0.98116000  1.0
  C  C31  1  0.05767000  0.69833000  0.62957000  1.0
  C  C32  1  0.23369000  0.49348000  0.83173000  1.0
  C  C33  1  0.16847000  0.56572000  0.76746000  1.0
  C  C34  1  0.51014000  0.09711000  0.89084000  1.0
  C  C35  1  0.24420000  0.68869000  0.78582000  1.0
  C  C36  1  0.47897000  0.18825000  0.85612000  1.0
  C  C37  1  0.18999000  0.75454000  0.71699000  1.0
  C  C38  1  0.98069000  0.57571000  0.61289000  1.0
  C  C39  1  0.03596000  0.50976000  0.68044000  1.0
  C  C40  1  0.07559000  0.96552000  0.90142000  1.0
  C  C41  1  0.10536000  0.00132000  0.81001000  1.0
  C  C42  1  0.50176000  0.45004000  0.23448000  1.0
  C  C43  1  0.01674000  0.01885000  0.95157000  1.0
  C  C44  1  0.44240000  0.37043000  0.30166000  1.0
  C  C45  1  0.26649000  0.16845000  0.50665000  1.0
  C  C46  1  0.33161000  0.23256000  0.43426000  1.0
  C  C47  1  0.98988000  0.10918000  0.90291000  1.0
  C  C48  1  0.25585000  0.21418000  0.31128000  1.0
  C  C49  1  0.02110000  0.14394000  0.81179000  1.0
  C  C50  1  0.31006000  0.28304000  0.24544000  1.0
  C  C51  1  0.51937000  0.38714000  0.42427000  1.0
  C  C52  1  0.46412000  0.31957000  0.49021000  1.0
  N  N1  1  0.57911000  0.76725000  0.09029000  1.0
  N  N2  1  0.92079000  0.90963000  0.23270000  1.0
  N  N3  1  0.42089000  0.23275000  0.90971000  1.0
  N  N4  1  0.07921000  0.09037000  0.76730000  1.0
  O  O1  1  0.60999000  0.68055000  0.12394000  1.0
  O  O2  1  0.82609000  0.62045000  0.21372000  1.0
  O  O3  1  0.11710000  0.29611000  0.53403000  1.0
  O  O4  1  0.93268000  0.12120000  0.42795000  1.0
  O  O5  1  0.65441000  0.45083000  0.07708000  1.0
  O  O6  1  0.88993000  0.87597000  0.31941000  1.0
  O  O7  1  0.67363000  0.78587000  0.37945000  1.0
  O  O8  1  0.38265000  0.46617000  0.70389000  1.0
  O  O9  1  0.56730000  0.57188000  0.87873000  1.0
  O  O10  1  0.84539000  0.92279000  0.54890000  1.0
  O  O11  1  0.39002000  0.31945000  0.87606000  1.0
  O  O12  1  0.17391000  0.37956000  0.78628000  1.0
  O  O13  1  0.88291000  0.70389000  0.46597000  1.0
  O  O14  1  0.06732000  0.87881000  0.57205000  1.0
  O  O15  1  0.34560000  0.54917000  0.92292000  1.0
  O  O16  1  0.11007000  0.12403000  0.68059000  1.0
  O  O17  1  0.32637000  0.21413000  0.62055000  1.0
  O  O18  1  0.61736000  0.53383000  0.29611000  1.0
  O  O19  1  0.43270000  0.42813000  0.12127000  1.0
  O  O20  1  0.15461000  0.07721000  0.45110000  1.0
