# generated using pymatgen
data_Cr3H32C31NO14
_symmetry_space_group_name_H-M   'P 1'
_cell_length_a   11.29832854
_cell_length_b   11.31305376
_cell_length_c   18.70896000
_cell_angle_alpha   89.91233444
_cell_angle_beta   89.86151984
_cell_angle_gamma   60.12721182
_symmetry_Int_Tables_number   1
_chemical_formula_structural   Cr3H32C31NO14
_chemical_formula_sum   'Cr6 H64 C62 N2 O28'
_cell_volume   2073.61589177
_cell_formula_units_Z   2
loop_
 _symmetry_equiv_pos_site_id
 _symmetry_equiv_pos_as_xyz
  1  'x, y, z'
loop_
 _atom_site_type_symbol
 _atom_site_label
 _atom_site_symmetry_multiplicity
 _atom_site_fract_x
 _atom_site_fract_y
 _atom_site_fract_z
 _atom_site_occupancy
  C  C0  1  0.68663000  0.76645000  0.14475000  1
  C  C1  1  0.23371000  0.31393000  0.85562000  1
  C  C2  1  0.76041000  0.20505000  0.03398000  1
  C  C3  1  0.78650000  0.25326000  0.96325500  1
  C  C4  1  0.19339500  0.20126500  0.96181000  1
  C  C5  1  0.79210000  0.82864000  0.04190000  1
  C  C6  1  0.20305500  0.19784500  0.04387000  1
  C  C7  1  0.79690500  0.82261500  0.96009000  1
  C  C8  1  0.29351000  0.36029000  0.97465000  1
  C  C9  1  0.66693500  0.69134500  0.02504000  1
  C  C10  1  0.05153500  0.44849500  0.94630000  1
  C  C11  1  0.54358000  0.93610000  0.05436000  1
  C  C12  1  0.19326000  0.32912000  0.93225000  1
  C  C13  1  0.67468500  0.80525500  0.06849000  1
  C  C14  1  0.14649500  0.34750500  0.07114000  1
  C  C15  1  0.65527000  0.85083000  0.92940000  1
  C  C16  1  0.25781500  0.38426500  0.05471000  1
  C  C17  1  0.65296000  0.71798000  0.94302000  1
  C  C18  1  0.01900500  0.44479500  0.02660000  1
  C  C19  1  0.53262000  0.96032000  0.97325000  1
  C  C20  1  0.80366000  0.20124000  0.54012000  1
  C  C21  1  0.79889500  0.19661500  0.45979000  1
  C  C22  1  0.73671000  0.37193000  0.13747000  1
  C  C23  1  0.62476000  0.25892000  0.86220000  1
  C  C24  1  0.54504000  0.32110000  0.52768000  1
  C  C25  1  0.67866000  0.45512000  0.47244000  1
  C  C26  1  0.65704000  0.45212000  0.55392000  1
  C  C27  1  0.54773000  0.34311000  0.44623000  1
  C  C28  1  0.66407000  0.31771000  0.56960000  1
  C  C29  1  0.68223000  0.33615000  0.43045000  1
  C  C30  1  0.16019000  0.47519000  0.54129000  1
  C  C31  1  0.52446500  0.83999500  0.45876000  1
  C  C32  1  0.16655500  0.47096500  0.46079000  1
  C  C33  1  0.52876000  0.83362000  0.53925000  1
  C  C34  1  0.29890000  0.21746000  0.52653500  1
  C  C35  1  0.78247000  0.70131000  0.47317000  1
  C  C36  1  0.05828500  0.32567500  0.55754000  1
  C  C37  1  0.67413000  0.94183000  0.44256000  1
  C  C38  1  0.18536500  0.33481500  0.57049000  1
  C  C39  1  0.66495000  0.81493000  0.42946000  1
  C  C40  1  0.14085000  0.35511000  0.43249000  1
  C  C41  1  0.64505000  0.85893000  0.56752500  1
  C  C42  1  0.26763500  0.21970500  0.44628000  1
  C  C43  1  0.78039000  0.73214000  0.55349000  1
  C  C44  1  0.10390000  0.37500000  0.14766000  1
  C  C45  1  0.62487500  0.89682500  0.85289000  1
  C  C46  1  0.02679000  0.35253000  0.47705000  1
  C  C47  1  0.64790000  0.97282000  0.52316000  1
  C  C48  1  0.68273000  0.77063000  0.35388000  1
  C  C49  1  0.22970000  0.31706000  0.64605500  1
  C  C50  1  0.70740000  0.35298000  0.35394000  1
  C  C51  1  0.64717000  0.29251000  0.64608000  1
  C  C52  1  0.09808000  0.37990000  0.35646000  1
  C  C53  1  0.62034500  0.90159500  0.64359000  1
  C  C54  1  0.58598000  0.43308000  0.96671000  1
  C  C55  1  0.55954500  0.38383500  0.03972500  1
  C  C56  1  0.73038500  0.39725500  0.99171000  1
  C  C57  1  0.61896000  0.23718000  0.00924000  1
  C  C58  1  0.70310000  0.34836000  0.06424000  1
  C  C59  1  0.64527000  0.28811000  0.93692000  1
  C  C60  1  0.14593500  0.11688500  0.07403500  1
  C  C61  1  0.86638000  0.89064000  0.92937000  1
  Cr  Cr62  1  0.93434000  0.60642000  0.25089000  1
  Cr  Cr63  1  0.39358000  0.06566000  0.74911000  1
  Cr  Cr64  1  0.62169000  0.60305000  0.24927000  1
  Cr  Cr65  1  0.39695000  0.37831000  0.75073000  1
  Cr  Cr66  1  0.93739000  0.29057000  0.25079000  1
  Cr  Cr67  1  0.70943000  0.06261000  0.74921000  1
  H  H68  1  0.78396500  0.44510500  0.96773000  1
  H  H69  1  0.58500500  0.16535500  0.02406000  1
  H  H70  1  0.05474000  0.54224000  0.93315000  1
  H  H71  1  0.45611000  0.92531000  0.07379000  1
  H  H72  1  0.97399000  0.44377000  0.91187500  1
  H  H73  1  0.54103000  0.02227000  0.08403000  1
  H  H74  1  0.94855500  0.40519500  0.03357500  1
  H  H75  1  0.51139500  0.06258500  0.95854000  1
  H  H76  1  0.97214500  0.54849500  0.04795000  1
  H  H77  1  0.44620500  0.94748500  0.95769000  1
  H  H78  1  0.29449000  0.45183000  0.95351000  1
  H  H79  1  0.57893000  0.68017000  0.04290000  1
  H  H80  1  0.22152000  0.49311000  0.06764000  1
  H  H81  1  0.55649500  0.72522500  0.92363000  1
  H  H82  1  0.83633000  0.09733000  0.55966000  1
  H  H83  1  0.90297000  0.16379000  0.44015000  1
  H  H84  1  0.88571000  0.22097000  0.55708500  1
  H  H85  1  0.77902000  0.11470000  0.44281000  1
  H  H86  1  0.56270000  0.22098000  0.53682000  1
  H  H87  1  0.77863500  0.43796500  0.46303500  1
  H  H88  1  0.53752000  0.26452000  0.41575500  1
  H  H89  1  0.73588000  0.46220000  0.58426000  1
  H  H90  1  0.51175500  0.52859500  0.93930500  1
  H  H91  1  0.46651000  0.44277000  0.07253000  1
  H  H92  1  0.55498000  0.53678000  0.56981000  1
  H  H93  1  0.46298500  0.44513500  0.43058000  1
  H  H94  1  0.60090000  0.55376000  0.45044000  1
  H  H95  1  0.44627000  0.39841000  0.54988000  1
  H  H96  1  0.23219000  0.50781000  0.55977000  1
  H  H97  1  0.49202500  0.76788500  0.44029000  1
  H  H98  1  0.05889500  0.55624500  0.55952000  1
  H  H99  1  0.44320000  0.94112000  0.44063000  1
  H  H100  1  0.09541500  0.57505500  0.44169000  1
  H  H101  1  0.42459000  0.90490000  0.55845000  1
  H  H102  1  0.26797000  0.45031000  0.44236000  1
  H  H103  1  0.54915500  0.73238500  0.55760000  1
  H  H104  1  0.37995000  0.23850000  0.53075500  1
  H  H105  1  0.76133000  0.62041000  0.46864500  1
  H  H106  1  0.35454000  0.20788000  0.41303000  1
  H  H107  1  0.79199500  0.64529500  0.58656000  1
  H  H108  1  0.07822000  0.22206000  0.57213000  1
  H  H109  1  0.77773500  0.92211500  0.42771000  1
  H  H110  1  0.97177500  0.40139500  0.59054000  1
  H  H111  1  0.59801000  0.02843000  0.40987000  1
  H  H112  1  0.94553500  0.45425500  0.47261500  1
  H  H113  1  0.54630500  0.05426500  0.52812500  1
  H  H114  1  0.00062000  0.27866000  0.45490000  1
  H  H115  1  0.72238500  0.99837500  0.54518500  1
  H  H116  1  0.32532500  0.11790500  0.54951000  1
  H  H117  1  0.88214500  0.67499500  0.45015000  1
  H  H118  1  0.24747500  0.13562500  0.43290000  1
  H  H119  1  0.86475500  0.75194500  0.56690000  1
  H  H120  1  0.26844000  0.10752000  0.93693000  1
  H  H121  1  0.89361000  0.75729000  0.06427000  1
  H  H122  1  0.09745000  0.20821000  0.94516000  1
  H  H123  1  0.77028500  0.92999500  0.06047000  1
  H  H124  1  0.31074500  0.14222500  0.05874000  1
  H  H125  1  0.86951000  0.71681000  0.94676000  1
  H  H126  1  0.39538000  0.27488000  0.96642000  1
  H  H127  1  0.75847000  0.59690000  0.03868000  1
  H  H128  1  0.34993000  0.32055000  0.08766000  1
  H  H129  1  0.73663000  0.63329000  0.91270000  1
  H  H130  1  0.91021000  0.01955000  0.03610000  1
  H  H131  1  0.97428000  0.11472000  0.95222500  1
  N  N132  1  0.10529500  0.05018500  0.09865000  1
  N  N133  1  0.92699000  0.93667000  0.90322500  1
  O  O134  1  0.07730000  0.49444000  0.17011000  1
  O  O135  1  0.50556000  0.92270000  0.82989000  1
  O  O136  1  0.63365000  0.47363000  0.32477000  1
  O  O137  1  0.52637000  0.36635000  0.67523000  1
  O  O138  1  0.82553000  0.26013000  0.33162000  1
  O  O139  1  0.73987000  0.17447000  0.66838000  1
  O  O140  1  0.05424000  0.30402000  0.32687000  1
  O  O141  1  0.69598000  0.94576000  0.67313000  1
  O  O142  1  0.83114000  0.50000000  0.25032000  1
  O  O143  1  0.50000000  0.16886000  0.74968000  1
  O  O144  1  0.80480000  0.72310000  0.17473000  1
  O  O145  1  0.27690000  0.19520000  0.82527000  1
  O  O146  1  0.59125000  0.74455000  0.16769000  1
  O  O147  1  0.25545000  0.40875000  0.83231000  1
  O  O148  1  0.63488000  0.47212000  0.17376000  1
  O  O149  1  0.52788000  0.36512000  0.82624000  1
  O  O150  1  0.82686000  0.25852000  0.16872000  1
  O  O151  1  0.74148000  0.17314000  0.83128000  1
  O  O152  1  0.05548000  0.30252000  0.17587000  1
  O  O153  1  0.69748000  0.94452000  0.82413000  1
  O  O154  1  0.07597000  0.49605000  0.33300000  1
  O  O155  1  0.50395000  0.92403000  0.66700000  1
  O  O156  1  0.80356000  0.72460000  0.32574000  1
  O  O157  1  0.27540000  0.19644000  0.67426000  1
  O  O158  1  0.58992000  0.74616000  0.33059000  1
  O  O159  1  0.25384000  0.41008000  0.66941000  1
  O  O160  1  0.84989000  0.08722000  0.07166000  1
  O  O161  1  0.90517500  0.18846500  0.92203500  1
