# generated using pymatgen
data_AlH3C4O5
_symmetry_space_group_name_H-M   'P 1'
_cell_length_a   6.67546000
_cell_length_b   11.79636000
_cell_length_c   12.52987000
_cell_angle_alpha   90.00000000
_cell_angle_beta   90.00000000
_cell_angle_gamma   100.45684000
_symmetry_Int_Tables_number   1
_chemical_formula_structural   AlH3C4O5
_chemical_formula_sum   'Al4 H12 C16 O20'
_cell_volume   970.29190754
_cell_formula_units_Z   4
loop_
 _symmetry_equiv_pos_site_id
 _symmetry_equiv_pos_as_xyz
  1  'x, y, z'
loop_
 _atom_site_type_symbol
 _atom_site_label
 _atom_site_symmetry_multiplicity
 _atom_site_fract_x
 _atom_site_fract_y
 _atom_site_fract_z
 _atom_site_occupancy
  Al  Al1  1  0.50000000  0.00000000  0.50000000  1.0
  Al  Al2  1  0.00000000  0.50000000  0.00000000  1.0
  Al  Al3  1  0.00000000  0.00000000  0.50000000  1.0
  Al  Al4  1  0.50000000  0.50000000  0.00000000  1.0
  H  H1  1  0.51479000  0.75434000  0.76550000  1.0
  H  H2  1  0.97927000  0.76143000  0.74827000  1.0
  H  H3  1  0.20411000  0.85127000  0.47662000  1.0
  H  H4  1  0.98523000  0.74566000  0.26550000  1.0
  H  H5  1  0.52074000  0.73857000  0.24827000  1.0
  H  H6  1  0.29590000  0.64873000  0.97662000  1.0
  H  H7  1  0.48522000  0.24566000  0.23450000  1.0
  H  H8  1  0.02074000  0.23857000  0.25173000  1.0
  H  H9  1  0.79590000  0.14873000  0.52337000  1.0
  H  H10  1  0.01478000  0.25434000  0.73450000  1.0
  H  H11  1  0.47927000  0.26143000  0.75173000  1.0
  H  H12  1  0.70411000  0.35127000  0.02338000  1.0
  C  C1  1  0.69894000  0.86666000  0.64843000  1.0
  C  C2  1  0.66999000  0.78032000  0.73601000  1.0
  C  C3  1  0.82350000  0.73435000  0.77665000  1.0
  C  C4  1  0.79030000  0.64632000  0.86250000  1.0
  C  C5  1  0.80107000  0.63334000  0.14844000  1.0
  C  C6  1  0.83002000  0.71968000  0.23601000  1.0
  C  C7  1  0.67651000  0.76565000  0.27665000  1.0
  C  C8  1  0.70971000  0.85368000  0.36250000  1.0
  C  C9  1  0.30107000  0.13334000  0.35156000  1.0
  C  C10  1  0.33001000  0.21968000  0.26399000  1.0
  C  C11  1  0.17651000  0.26565000  0.22335000  1.0
  C  C12  1  0.20971000  0.35368000  0.13750000  1.0
  C  C13  1  0.19894000  0.36666000  0.85156000  1.0
  C  C14  1  0.16999000  0.28032000  0.76399000  1.0
  C  C15  1  0.32349000  0.23435000  0.72335000  1.0
  C  C16  1  0.29030000  0.14632000  0.63750000  1.0
  O  O1  1  0.87319000  0.88816000  0.60356000  1.0
  O  O2  1  0.54190000  0.90910000  0.62439000  1.0
  O  O3  1  0.95040000  0.62250000  0.90659000  1.0
  O  O4  1  0.60687000  0.60225000  0.88614000  1.0
  O  O5  1  0.22794000  0.92940000  0.50412000  1.0
  O  O6  1  0.62682000  0.61184000  0.10356000  1.0
  O  O7  1  0.95811000  0.59090000  0.12439000  1.0
  O  O8  1  0.54961000  0.87750000  0.40660000  1.0
  O  O9  1  0.89314000  0.89775000  0.38615000  1.0
  O  O10  1  0.27207000  0.57060000  0.00412000  1.0
  O  O11  1  0.12682000  0.11184000  0.39644000  1.0
  O  O12  1  0.45811000  0.09090000  0.37561000  1.0
  O  O13  1  0.04960000  0.37750000  0.09340000  1.0
  O  O14  1  0.39314000  0.39775000  0.11385000  1.0
  O  O15  1  0.77207000  0.07060000  0.49588000  1.0
  O  O16  1  0.37319000  0.38816000  0.89644000  1.0
  O  O17  1  0.04190000  0.40910000  0.87561000  1.0
  O  O18  1  0.45040000  0.12250000  0.59340000  1.0
  O  O19  1  0.10687000  0.10225000  0.61385000  1.0
  O  O20  1  0.72794000  0.42940000  0.99588000  1.0
