# generated using pymatgen
data_H12C19N5O2
_symmetry_space_group_name_H-M   'P 1'
_cell_length_a   10.02226667
_cell_length_b   15.38180000
_cell_length_c   15.38180000
_cell_angle_alpha   90.00000000
_cell_angle_beta   90.00000000
_cell_angle_gamma   90.00000000
_symmetry_Int_Tables_number   1
_chemical_formula_structural   H12C19N5O2
_chemical_formula_sum   'H24 C38 N10 O4'
_cell_volume   2371.26600064
_cell_formula_units_Z   2
loop_
 _symmetry_equiv_pos_site_id
 _symmetry_equiv_pos_as_xyz
  1  'x, y, z'
loop_
 _atom_site_type_symbol
 _atom_site_label
 _atom_site_symmetry_multiplicity
 _atom_site_fract_x
 _atom_site_fract_y
 _atom_site_fract_z
 _atom_site_occupancy
  C  1  1  0.97524000  0.03787700  0.03592100  1
  C  2  1  0.92770200  0.11888200  0.00312900  1
  C  3  1  0.89860500  0.18862300  0.06058600  1
  C  4  1  0.91701500  0.17574300  0.15038700  1
  C  5  1  0.96361700  0.09678000  0.18593700  1
  C  6  1  0.99319100  0.02704200  0.12762600  1
  C  7  1  0.90044600  0.12596900  0.91341300  1
  C  8  1  0.05031900  0.94808700  0.15666000  1
  C  10  1  0.00658100  0.96882900  0.97653900  1
  C  11  1  0.98620900  0.97901600  0.88491100  1
  C  12  1  0.01501300  0.90916700  0.82641000  1
  C  13  1  0.06192300  0.83039900  0.86215700  1
  C  14  1  0.08502200  0.81898600  0.95164900  1
  C  15  1  0.05509400  0.88812000  0.00940200  1
  C  16  1  0.92600500  0.05721200  0.85650700  1
  C  18  1  0.07804300  0.87978200  0.09950900  1
  C  23  1  0.98167000  0.09387200  0.27755100  1
  C  24  1  0.86980000  0.27428700  0.03239500  1
  C  25  1  0.99565400  0.91167300  0.73483100  1
  C  26  1  0.11184200  0.73314700  0.97947100  1
  C  31  1  0.99879300  0.99244100  0.59875600  1
  C  32  1  0.88306500  0.95887900  0.55714300  1
  C  33  1  0.86412200  0.96889700  0.46602700  1
  C  34  1  0.95697200  0.01618200  0.41488800  1
  C  35  1  0.06885800  0.05226400  0.45807800  1
  C  36  1  0.08799100  0.04205200  0.54780000  1
  C  38  1  0.65151600  0.89841800  0.47739100  1
  C  39  1  0.66612400  0.89190000  0.56809700  1
  C  45  1  0.45049300  0.91253800  0.63612600  1
  C  54  1  0.97145300  0.40626400  0.97970200  1
  C  55  1  0.85987100  0.46010400  0.96287400  1
  C  56  1  0.86993900  0.55212900  0.96866900  1
  C  57  1  0.99365900  0.59292600  0.98875800  1
  C  58  1  0.10538600  0.53805500  0.00180400  1
  C  59  1  0.09506400  0.44726500  0.99585400  1
  C  61  1  0.64078500  0.56371500  0.92438000  1
  C  62  1  0.63222700  0.47292000  0.91607100  1
  C  68  1  0.45599600  0.36954900  0.94660500  1
  H  9  1  0.89778100  0.22678400  0.19136600  1
  H  17  1  0.08098100  0.77877900  0.82176900  1
  H  19  1  0.89574700  0.06555400  0.79382900  1
  H  20  1  0.85664800  0.18052000  0.88821100  1
  H  21  1  0.11886200  0.82433600  0.12491500  1
  H  22  1  0.07565700  0.93878000  0.22018400  1
  H  41  1  0.56733300  0.87678500  0.44684900  1
  H  42  1  0.17303200  0.06705400  0.57493600  1
  H  43  1  0.14227400  0.08310700  0.42381500  1
  H  46  1  0.60461600  0.83669200  0.67944700  1
  H  47  1  0.40165600  0.92991300  0.57507700  1
  H  48  1  0.48173300  0.97198500  0.66939000  1
  H  49  1  0.37729700  0.87922600  0.67679200  1
  H  51  1  0.87799100  0.98549500  0.29850400  1
  H  53  1  0.08912300  0.02329000  0.71149900  1
  H  64  1  0.56173500  0.60292300  0.90952800  1
  H  65  1  0.17664300  0.41069600  0.01167800  1
  H  66  1  0.19477200  0.56300500  0.02154700  1
  H  69  1  0.53580800  0.40247400  0.82806500  1
  H  70  1  0.43308800  0.40054000  0.00872100  1
  H  71  1  0.52350500  0.31486900  0.95795900  1
  H  72  1  0.36340200  0.34427800  0.91916600  1
  H  74  1  0.91738500  0.71268100  0.99891100  1
  H  76  1  0.04807900  0.28635300  0.97474500  1
  N  37  1  0.74909200  0.93761000  0.43073300  1
  N  40  1  0.78163700  0.92214700  0.60324700  1
  N  44  1  0.56537300  0.85400500  0.62021600  1
  N  50  1  0.93854800  0.02600600  0.32721400  1
  N  52  1  0.02693200  0.98203300  0.68514900  1
  N  60  1  0.75869700  0.59923800  0.94901300  1
  N  63  1  0.74249900  0.42534800  0.93530200  1
  N  67  1  0.51438200  0.43338400  0.88554900  1
  N  73  1  0.00217200  0.68178800  0.99287000  1
  N  75  1  0.96470300  0.31772200  0.98545300  1
  O  27  1  0.00727100  0.16989100  0.31947000  1
  O  28  1  0.78572700  0.32139600  0.08336200  1
  O  29  1  0.97992000  0.83532700  0.69140300  1
  O  30  1  0.22029500  0.69771900  0.94033700  1
