# generated using pymatgen
data_H28C51(NO2)4
_symmetry_space_group_name_H-M   'P 1'
_cell_length_a   30.65560000
_cell_length_b   32.08090000
_cell_length_c   32.08090000
_cell_angle_alpha   120.00000000
_cell_angle_beta   90.00000000
_cell_angle_gamma   90.00000000
_symmetry_Int_Tables_number   1
_chemical_formula_structural   H28C51(NO2)4
_chemical_formula_sum   'H168 C306 N24 O48'
_cell_volume   27323.32446465
_cell_formula_units_Z   6
loop_
 _symmetry_equiv_pos_site_id
 _symmetry_equiv_pos_as_xyz
  1  'x, y, z'
loop_
 _atom_site_type_symbol
 _atom_site_label
 _atom_site_symmetry_multiplicity
 _atom_site_fract_x
 _atom_site_fract_y
 _atom_site_fract_z
 _atom_site_occupancy
  H  3  1  0.76987200  0.99364100  0.64676200  1
  H  13  1  0.61256700  0.98445900  0.44501600  1
  H  15  1  0.26515500  0.97119200  0.62220000  1
  H  41  1  0.58907700  0.59953200  0.43521500  1
  H  42  1  0.65319900  0.62469100  0.41127900  1
  H  43  1  0.81795700  0.63033500  0.40150400  1
  H  44  1  0.88890500  0.60693700  0.41468900  1
  H  45  1  0.83035400  0.52369200  0.46671800  1
  H  46  1  0.66645900  0.51715500  0.47528000  1
  H  47  1  0.74326100  0.63351000  0.52697000  1
  H  48  1  0.76516600  0.62115500  0.64938300  1
  H  49  1  0.76607500  0.53481400  0.59971100  1
  H  50  1  0.74306500  0.48647900  0.36285300  1
  H  51  1  0.76695400  0.38580300  0.43315000  1
  H  52  1  0.76990600  0.35110500  0.34743400  1
  H  55  1  0.73572700  0.59438100  0.37921600  1
  H  56  1  0.73671400  0.64488200  0.43810700  1
  H  58  1  0.78938100  0.46806000  0.51076000  1
  H  59  1  0.73211300  0.46335900  0.51405600  1
  H  81  1  0.58913900  0.83294600  0.39831500  1
  H  82  1  0.65327100  0.78386100  0.37318800  1
  H  83  1  0.81803300  0.76847300  0.36757200  1
  H  84  1  0.88897500  0.80507000  0.39097000  1
  H  85  1  0.83040200  0.94033700  0.47418000  1
  H  86  1  0.66650500  0.95541400  0.48065400  1
  H  87  1  0.74338500  0.89074400  0.36434100  1
  H  88  1  0.76518200  0.02553900  0.37670500  1
  H  89  1  0.76604000  0.06220900  0.46304900  1
  H  90  1  0.74308100  0.87368100  0.51137900  1
  H  91  1  0.76693100  0.04465600  0.61206300  1
  H  94  1  0.73578900  0.78213700  0.40351200  1
  H  95  1  0.73679700  0.79050000  0.35299300  1
  H  97  1  0.78937200  0.04002700  0.52981700  1
  H  98  1  0.73209900  0.04798100  0.53448200  1
  H  123  1  0.58913900  0.56263700  0.16490300  1
  H  124  1  0.65326700  0.58660100  0.21398300  1
  H  125  1  0.81802800  0.59641200  0.22936200  1
  H  126  1  0.88896600  0.58323100  0.19276400  1
  H  127  1  0.83038700  0.53117300  0.05750000  1
  H  128  1  0.66648800  0.52255100  0.04243600  1
  H  129  1  0.74337200  0.47091200  0.10710900  1
  H  130  1  0.76508400  0.34846200  0.97231000  1
  H  131  1  0.76595900  0.39812700  0.93563000  1
  H  132  1  0.74312000  0.63500300  0.12415600  1
  H  133  1  0.76688000  0.56468300  0.95315900  1
  H  134  1  0.76986900  0.65039200  0.00415700  1
  H  137  1  0.73578500  0.61868100  0.21570700  1
  H  138  1  0.73679200  0.55979600  0.20733500  1
  H  140  1  0.78933500  0.48707200  0.95780000  1
  H  141  1  0.73206000  0.48379200  0.94985900  1
  H  166  1  0.08907700  0.39726600  0.56374200  1
  H  167  1  0.15320200  0.37210100  0.58767300  1
  H  168  1  0.31796100  0.36640600  0.59738800  1
  H  169  1  0.38890800  0.38978800  0.58418700  1
  H  170  1  0.33036000  0.47303500  0.53216100  1
  H  171  1  0.16646200  0.47961900  0.52365000  1
  H  172  1  0.24321800  0.36325500  0.47193400  1
  H  173  1  0.26525700  0.37561200  0.34954200  1
  H  174  1  0.26619000  0.46195500  0.39922200  1
  H  175  1  0.24306500  0.51026900  0.63605800  1
  H  176  1  0.26707400  0.61094600  0.56578200  1
  H  177  1  0.27001300  0.64563100  0.65149600  1
  H  180  1  0.23573800  0.40238300  0.61970000  1
  H  181  1  0.23671000  0.35187700  0.56080900  1
  H  183  1  0.28946700  0.52868300  0.48818000  1
  H  184  1  0.23220900  0.53342300  0.48486100  1
  H  206  1  0.08914200  0.16380300  0.60060800  1
  H  207  1  0.15326700  0.21288800  0.62574600  1
  H  208  1  0.31803300  0.22827400  0.63138900  1
  H  209  1  0.38897600  0.19167900  0.60799300  1
  H  210  1  0.33040300  0.05641500  0.52476400  1
  H  211  1  0.16650800  0.04134100  0.51824900  1
  H  212  1  0.24334200  0.10598900  0.63458800  1
  H  213  1  0.26604300  0.93453500  0.53585800  1
  H  214  1  0.24312700  0.12309600  0.48756500  1
  H  215  1  0.26690400  0.95211300  0.38686600  1
  H  216  1  0.26988900  0.00313600  0.35217200  1
  H  219  1  0.23579700  0.21461700  0.59543400  1
  H  220  1  0.23678900  0.20624600  0.64594800  1
  H  221  1  0.28937600  0.95673700  0.46910600  1
  H  222  1  0.23210400  0.94877300  0.46442800  1
  H  247  1  0.08913900  0.43411300  0.83402400  1
  H  248  1  0.15326700  0.41015900  0.78494300  1
  H  249  1  0.31802700  0.40039000  0.76956300  1
  H  250  1  0.38896600  0.41357800  0.80616100  1
  H  251  1  0.33039000  0.46560500  0.94142300  1
  H  252  1  0.16648800  0.47418300  0.95648700  1
  H  253  1  0.24332600  0.52585600  0.89183300  1
  H  254  1  0.26516800  0.64827800  0.02661100  1
  H  255  1  0.26606200  0.59860800  0.06328200  1
  H  256  1  0.24310700  0.36174300  0.87476000  1
  H  257  1  0.26694300  0.43205300  0.04574300  1
  H  258  1  0.26989800  0.34633700  0.99473200  1
  H  261  1  0.23579400  0.37809700  0.78320900  1
  H  262  1  0.23678200  0.43699000  0.79160200  1
  H  264  1  0.28937900  0.50966500  0.04110000  1
  H  265  1  0.23210800  0.51295100  0.04907200  1
  H  272  1  0.89871300  0.47442300  0.39332600  1
  H  279  1  0.04323500  0.47124300  0.58362700  1
  H  280  1  0.11252800  0.44400300  0.45897600  1
  H  281  1  0.92296300  0.61198800  0.51207400  1
  H  282  1  0.05300800  0.47389300  0.43408400  1
  H  283  1  0.98343200  0.58045600  0.53489600  1
  H  295  1  0.89875500  0.91622400  0.52345700  1
  H  301  1  0.04329400  0.10969500  0.52663900  1
  H  302  1  0.11257600  0.01228400  0.55388300  1
  H  303  1  0.92302500  0.89738500  0.38588000  1
  H  304  1  0.05305700  0.95750500  0.52398700  1
  H  305  1  0.98349800  0.95174300  0.41741800  1
  H  317  1  0.89874600  0.60455000  0.08158100  1
  H  324  1  0.04327400  0.41423100  0.88813000  1
  H  325  1  0.11257300  0.53888300  0.98552100  1
  H  326  1  0.92301800  0.48583900  0.10045100  1
  H  327  1  0.05305100  0.56379100  0.04030000  1
  H  328  1  0.98348300  0.46300700  0.04609200  1
  H  341  1  0.39870000  0.52228400  0.60556400  1
  H  348  1  0.54323500  0.52554800  0.41531500  1
  H  349  1  0.61252800  0.55276100  0.53995800  1
  H  350  1  0.42298000  0.38473200  0.48679500  1
  H  351  1  0.55300800  0.52285400  0.56483400  1
  H  352  1  0.48345500  0.41629100  0.46400100  1
  H  365  1  0.39873300  0.08052100  0.47549800  1
  H  370  1  0.54330400  0.88705900  0.47229300  1
  H  371  1  0.42305500  0.09938000  0.61307400  1
  H  372  1  0.55304700  0.03924300  0.47492500  1
  H  373  1  0.48352700  0.04502500  0.58152000  1
  H  385  1  0.39875600  0.39221100  0.91730700  1
  H  392  1  0.54327800  0.58250400  0.11080400  1
  H  393  1  0.61257000  0.45785800  0.01339000  1
  H  394  1  0.42301200  0.51096500  0.89850600  1
  H  395  1  0.55304700  0.43296900  0.95860900  1
  H  396  1  0.48347800  0.53378200  0.95286400  1
  H  409  1  0.82295900  0.37210600  0.06489500  1
  H  416  1  0.72397000  0.33567800  0.27103800  1
  H  417  1  0.80325800  0.45580000  0.30479700  1
  H  418  1  0.68751600  0.38948500  0.08797900  1
  H  419  1  0.80398000  0.43507000  0.22298300  1
  H  420  1  0.69420700  0.37683200  0.15452300  1
  H  433  1  0.82293400  0.69005500  0.62571000  1
  H  440  1  0.72398100  0.93267600  0.66220700  1
  H  441  1  0.80324900  0.84631100  0.54206600  1
  H  442  1  0.68748600  0.69585100  0.60842700  1
  H  443  1  0.80398700  0.78523100  0.56279900  1
  H  444  1  0.69420900  0.77504500  0.62108300  1
  H  457  1  0.82300900  0.93294600  0.30768000  1
  H  464  1  0.72393600  0.72681100  0.06517000  1
  H  465  1  0.80331400  0.69304700  0.15146200  1
  H  466  1  0.68759400  0.90984000  0.30204200  1
  H  467  1  0.80405800  0.77486000  0.21254600  1
  H  468  1  0.69425600  0.84331700  0.22284900  1
  H  481  1  0.32297800  0.62456600  0.93401100  1
  H  488  1  0.22407600  0.66109600  0.72789700  1
  H  489  1  0.30325600  0.54089100  0.69410500  1
  H  490  1  0.18752500  0.60733600  0.91096700  1
  H  491  1  0.30398400  0.56161800  0.77591800  1
  H  492  1  0.19424800  0.61997300  0.84441500  1
  H  505  1  0.32292300  0.30674900  0.37325000  1
  H  512  1  0.22401800  0.06409600  0.33672800  1
  H  513  1  0.30327200  0.15047400  0.45687700  1
  H  514  1  0.18747300  0.30088200  0.39045700  1
  H  515  1  0.30400300  0.21155100  0.43614100  1
  H  516  1  0.19422200  0.22169700  0.37781700  1
  H  529  1  0.32296500  0.06377700  0.69121300  1
  H  536  1  0.22396900  0.26994100  0.93375200  1
  H  537  1  0.30330200  0.30368400  0.84741100  1
  H  538  1  0.18755100  0.08689800  0.69689900  1
  H  539  1  0.30402900  0.22186700  0.78633300  1
  H  540  1  0.19423500  0.15342700  0.77608300  1
  C  1  1  0.75514600  0.98925300  0.54029000  1
  C  2  1  0.75519900  0.99804900  0.46533600  1
  C  4  1  0.26009300  0.99213500  0.60689400  1
  C  5  1  0.26129600  0.98817700  0.40852900  1
  C  6  1  0.05028400  0.98964800  0.52465000  1
  C  7  1  0.51206000  0.99599700  0.49130200  1
  C  9  1  0.76279400  0.97863500  0.61093400  1
  C  10  1  0.25809600  0.97557600  0.48006600  1
  C  12  1  0.58553700  0.97483300  0.45697800  1
  C  14  1  0.26054300  0.97076100  0.55625800  1
  C  16  1  0.97740700  0.96646600  0.48950400  1
  C  17  1  0.74816800  0.48666700  0.42845100  1
  C  18  1  0.75513600  0.45757100  0.44951900  1
  C  19  1  0.75516900  0.53251800  0.53326700  1
  C  20  1  0.74869100  0.56175700  0.51227300  1
  C  21  1  0.74703200  0.61245500  0.54242600  1
  C  22  1  0.75258800  0.63516400  0.59264500  1
  C  23  1  0.76008200  0.60584000  0.61313500  1
  C  24  1  0.76052400  0.55520100  0.58388100  1
  C  25  1  0.76128500  0.40745800  0.41875300  1
  C  26  1  0.76281300  0.38693000  0.36825700  1
  C  27  1  0.75734700  0.41575600  0.34676000  1
  C  28  1  0.74791100  0.46496400  0.37759700  1
  C  29  1  0.70201300  0.55550400  0.44905000  1
  C  30  1  0.69851800  0.58693800  0.43017300  1
  C  31  1  0.78149100  0.59043300  0.42592900  1
  C  32  1  0.78533000  0.55940600  0.44524900  1
  C  33  1  0.82003000  0.60765700  0.41521800  1
  C  34  1  0.86168800  0.59416700  0.42308300  1
  C  35  1  0.86580100  0.56247600  0.44132600  1
  C  36  1  0.82751200  0.54599600  0.45257900  1
  C  37  1  0.66350400  0.54008200  0.46191900  1
  C  38  1  0.62152400  0.55601700  0.45812900  1
  C  39  1  0.61869000  0.58662700  0.43832400  1
  C  40  1  0.65649000  0.60166200  0.42446300  1
  C  53  1  0.74575800  0.54064700  0.45859300  1
  C  54  1  0.73793500  0.60556300  0.41741100  1
  C  57  1  0.75809000  0.47900400  0.50288300  1
  C  60  1  0.74820000  0.93908400  0.51118400  1
  C  61  1  0.74876000  0.94781100  0.43609300  1
  C  62  1  0.74711000  0.92726300  0.38539400  1
  C  63  1  0.75268300  0.95477700  0.36269300  1
  C  64  1  0.76011800  0.00460000  0.39201500  1
  C  65  1  0.76055200  0.02598000  0.44265400  1
  C  66  1  0.76127300  0.00859900  0.59040300  1
  C  67  1  0.75732400  0.92831300  0.58211100  1
  C  68  1  0.74792200  0.90994200  0.53289700  1
  C  69  1  0.70206900  0.89083800  0.44232800  1
  C  70  1  0.69858200  0.84052200  0.41090900  1
  C  71  1  0.78155600  0.83279400  0.40745300  1
  C  72  1  0.78538700  0.88314800  0.43847200  1
  C  73  1  0.82010000  0.80486700  0.39024500  1
  C  74  1  0.86175400  0.82623000  0.40373600  1
  C  75  1  0.86586000  0.87616900  0.43541900  1
  C  76  1  0.82756600  0.90389200  0.45189100  1
  C  77  1  0.66355900  0.91912600  0.45771600  1
  C  78  1  0.62158000  0.89938900  0.44179100  1
  C  79  1  0.61875200  0.84897600  0.41119200  1
  C  80  1  0.65655900  0.82008500  0.39615900  1
  C  92  1  0.74581000  0.91524200  0.45720500  1
  C  93  1  0.73800300  0.80914000  0.39231500  1
  C  96  1  0.75809300  0.02118000  0.51885300  1
  C  99  1  0.74818000  0.56940600  0.05874700  1
  C  100  1  0.75512200  0.54832700  0.00857400  1
  C  101  1  0.75516900  0.46458900  0.99979600  1
  C  102  1  0.74874300  0.48559300  0.05003700  1
  C  103  1  0.74711400  0.45544900  0.07059400  1
  C  104  1  0.75265500  0.40522900  0.04308200  1
  C  105  1  0.76005500  0.38471700  0.99325000  1
  C  106  1  0.76050900  0.41397000  0.97186700  1
  C  107  1  0.76126700  0.57908600  0.98922300  1
  C  108  1  0.76274600  0.62958700  0.01917200  1
  C  109  1  0.75734000  0.65108600  0.06950200  1
  C  110  1  0.74790300  0.62026200  0.08788800  1
  C  111  1  0.70205900  0.54880400  0.10700700  1
  C  112  1  0.69857400  0.56770200  0.15732400  1
  C  113  1  0.78154800  0.57197000  0.16504300  1
  C  114  1  0.78537700  0.55264000  0.11469100  1
  C  115  1  0.82009300  0.58269000  0.19296800  1
  C  116  1  0.86174600  0.57481100  0.17160300  1
  C  117  1  0.86584800  0.55657400  0.12166600  1
  C  118  1  0.82755400  0.54531900  0.09394400  1
  C  119  1  0.66354300  0.53592100  0.07872600  1
  C  120  1  0.62157000  0.53970100  0.09846200  1
  C  121  1  0.61874500  0.55951000  0.14887600  1
  C  122  1  0.65655200  0.57340400  0.17776900  1
  C  135  1  0.74579700  0.53927600  0.08259900  1
  C  136  1  0.73799700  0.58048100  0.18870000  1
  C  139  1  0.75806000  0.49496400  0.97665200  1
  C  142  1  0.24819000  0.51009000  0.57046500  1
  C  143  1  0.25518700  0.53918800  0.54940300  1
  C  144  1  0.25520900  0.46424700  0.46565300  1
  C  145  1  0.24868500  0.43500900  0.48663700  1
  C  146  1  0.24696600  0.38431200  0.45647500  1
  C  147  1  0.25254100  0.36160700  0.40625700  1
  C  148  1  0.26013500  0.39092600  0.38578300  1
  C  149  1  0.26061500  0.44156300  0.41504300  1
  C  150  1  0.26133900  0.58930000  0.58017600  1
  C  151  1  0.26288800  0.60981300  0.63067000  1
  C  152  1  0.25739500  0.58098500  0.65216000  1
  C  153  1  0.24792900  0.53178600  0.62131700  1
  C  154  1  0.20201900  0.44126200  0.54987000  1
  C  155  1  0.19852200  0.40983000  0.56875100  1
  C  156  1  0.28149500  0.40631100  0.57296800  1
  C  157  1  0.28533400  0.43733800  0.55364400  1
  C  158  1  0.32003300  0.38908200  0.58367100  1
  C  159  1  0.36169200  0.40256200  0.57579600  1
  C  160  1  0.36580600  0.43425000  0.55754900  1
  C  161  1  0.32751900  0.45073400  0.54630100  1
  C  162  1  0.16350700  0.45669600  0.53701700  1
  C  163  1  0.12152800  0.44076900  0.54081700  1
  C  164  1  0.11869000  0.41016100  0.56062200  1
  C  165  1  0.15649300  0.39510300  0.57445700  1
  C  178  1  0.24576300  0.45611100  0.54031900  1
  C  179  1  0.23793700  0.39119900  0.58150300  1
  C  182  1  0.25816200  0.51775800  0.49604300  1
  C  185  1  0.24821900  0.05768500  0.48774800  1
  C  186  1  0.25515100  0.00751200  0.45863800  1
  C  187  1  0.25519000  0.99869900  0.53357800  1
  C  188  1  0.24874700  0.04893500  0.56283000  1
  C  189  1  0.24709300  0.06947100  0.61352500  1
  C  190  1  0.25261900  0.04195100  0.63622700  1
  C  191  1  0.26274800  0.01813100  0.38798400  1
  C  192  1  0.25736600  0.06846600  0.41683200  1
  C  193  1  0.24795100  0.08683200  0.46604400  1
  C  194  1  0.20207100  0.10591700  0.55659300  1
  C  195  1  0.19858400  0.15622900  0.58802000  1
  C  196  1  0.28155700  0.16395700  0.59150100  1
  C  197  1  0.28539000  0.11360300  0.56047900  1
  C  198  1  0.32010100  0.19188000  0.60871900  1
  C  199  1  0.36175400  0.17051500  0.59525500  1
  C  200  1  0.36586100  0.12058100  0.56354400  1
  C  201  1  0.32756800  0.09286000  0.54706400  1
  C  202  1  0.16355900  0.07762800  0.54119400  1
  C  203  1  0.12158300  0.09736000  0.55712100  1
  C  204  1  0.11875200  0.14777400  0.58772800  1
  C  205  1  0.15655900  0.17666500  0.60276900  1
  C  217  1  0.24581200  0.08151000  0.54172500  1
  C  218  1  0.23800500  0.18761200  0.60662900  1
  C  223  1  0.24819600  0.42734700  0.94017000  1
  C  224  1  0.25515100  0.44841800  0.99033800  1
  C  225  1  0.25518700  0.53216000  0.99913100  1
  C  226  1  0.24873400  0.51116400  0.94889400  1
  C  227  1  0.24708400  0.54131500  0.92834800  1
  C  228  1  0.25262300  0.59153500  0.95586000  1
  C  229  1  0.26009600  0.61202800  0.00567700  1
  C  230  1  0.26053000  0.58277800  0.02706200  1
  C  231  1  0.26128700  0.41765400  0.00969100  1
  C  232  1  0.26281700  0.36716000  0.97972700  1
  C  233  1  0.25736600  0.34565600  0.92940000  1
  C  234  1  0.24794500  0.37649100  0.91102100  1
  C  235  1  0.20206100  0.44794000  0.89191500  1
  C  236  1  0.19857400  0.42905000  0.84159900  1
  C  237  1  0.28154700  0.42481200  0.83388000  1
  C  238  1  0.28537700  0.44413400  0.88423200  1
  C  239  1  0.32009200  0.41410300  0.80595600  1
  C  240  1  0.36174500  0.42197000  0.82732000  1
  C  241  1  0.36584800  0.44021300  0.87725500  1
  C  242  1  0.32755500  0.45146400  0.90498000  1
  C  243  1  0.16354600  0.46082900  0.92019800  1
  C  244  1  0.12157000  0.45702500  0.90046000  1
  C  245  1  0.11874200  0.43718400  0.85004200  1
  C  246  1  0.15654900  0.42334000  0.82115700  1
  C  259  1  0.24579800  0.45748200  0.91632500  1
  C  260  1  0.23799600  0.41629200  0.81022500  1
  C  263  1  0.25809600  0.50178000  0.02226600  1
  C  266  1  0.90649600  0.54646400  0.44925700  1
  C  267  1  0.93149000  0.57665600  0.49042300  1
  C  268  1  0.96651300  0.55783600  0.50425600  1
  C  269  1  0.97735500  0.50837400  0.47752400  1
  C  270  1  0.95289600  0.47777600  0.43555200  1
  C  271  1  0.91759500  0.49716500  0.42220200  1
  C  273  1  0.01200400  0.49025400  0.49369700  1
  C  274  1  0.00928000  0.48853000  0.53702100  1
  C  275  1  0.04523800  0.47101300  0.55166900  1
  C  276  1  0.08410500  0.45521600  0.52431300  1
  C  277  1  0.08549500  0.45595700  0.48055700  1
  C  278  1  0.05023500  0.47323200  0.46556500  1
  C  290  1  0.90655500  0.90012300  0.45141500  1
  C  291  1  0.93155100  0.91107500  0.42121300  1
  C  292  1  0.96657300  0.94373000  0.44003900  1
  C  293  1  0.95294300  0.95509800  0.52010400  1
  C  294  1  0.91764000  0.92235700  0.50071600  1
  C  296  1  0.01206000  0.00075600  0.50762500  1
  C  297  1  0.00933600  0.04580400  0.50934800  1
  C  298  1  0.04529300  0.07797000  0.52686800  1
  C  299  1  0.08415800  0.06641600  0.54268000  1
  C  300  1  0.08554700  0.02191400  0.54192800  1
  C  311  1  0.90653800  0.54863800  0.09771700  1
  C  312  1  0.93154000  0.50747900  0.08675600  1
  C  313  1  0.96656000  0.49364000  0.05410000  1
  C  314  1  0.97739600  0.52036000  0.03135400  1
  C  315  1  0.95293200  0.56232500  0.04271400  1
  C  316  1  0.91763100  0.57568200  0.07545700  1
  C  318  1  0.01204300  0.50418200  0.99706100  1
  C  319  1  0.00931600  0.46085000  0.95201900  1
  C  320  1  0.04527400  0.44619200  0.91985400  1
  C  321  1  0.08414400  0.47354600  0.93140300  1
  C  322  1  0.08553700  0.51730600  0.97589700  1
  C  323  1  0.05027500  0.53230800  0.00816200  1
  C  335  1  0.40650600  0.45025300  0.54960700  1
  C  336  1  0.43150400  0.42006400  0.50845100  1
  C  337  1  0.46652800  0.43890200  0.49463700  1
  C  338  1  0.47735800  0.48836500  0.52138100  1
  C  339  1  0.45289300  0.51895400  0.56335400  1
  C  340  1  0.41758800  0.49955400  0.57669300  1
  C  342  1  0.51200800  0.50650100  0.50522300  1
  C  343  1  0.50928100  0.50824000  0.46190600  1
  C  344  1  0.54523500  0.52577000  0.44726800  1
  C  345  1  0.58410500  0.54156400  0.47462700  1
  C  346  1  0.58549200  0.54081100  0.51837600  1
  C  347  1  0.55023600  0.52352500  0.53335900  1
  C  359  1  0.40655900  0.09663000  0.54754000  1
  C  360  1  0.43156900  0.08568500  0.57773600  1
  C  361  1  0.46659000  0.05303000  0.55890200  1
  C  362  1  0.47741000  0.03028900  0.50943300  1
  C  363  1  0.45293200  0.04165100  0.47883700  1
  C  364  1  0.41763000  0.07439300  0.49823300  1
  C  366  1  0.50933900  0.95095300  0.48958600  1
  C  367  1  0.54529700  0.91878400  0.47205600  1
  C  368  1  0.58415400  0.93033300  0.45623200  1
  C  369  1  0.55028100  0.00709900  0.47426400  1
  C  379  1  0.40653900  0.44814500  0.90120400  1
  C  380  1  0.43153600  0.48931400  0.91218600  1
  C  381  1  0.46655700  0.50314300  0.94484300  1
  C  382  1  0.47739700  0.47640700  0.96756900  1
  C  383  1  0.45293500  0.43443600  0.95618900  1
  C  384  1  0.41763700  0.42108600  0.92344500  1
  C  386  1  0.51204300  0.49257500  0.00186300  1
  C  387  1  0.50932000  0.53589900  0.04691100  1
  C  388  1  0.54527700  0.55054700  0.07907700  1
  C  389  1  0.58414400  0.52318900  0.06752000  1
  C  390  1  0.58553400  0.47943600  0.02301900  1
  C  391  1  0.55027500  0.46444600  0.99075500  1
  C  403  1  0.75436300  0.37930300  0.06834200  1
  C  404  1  0.71721600  0.37906400  0.09428500  1
  C  405  1  0.72130900  0.37183300  0.13386600  1
  C  406  1  0.76267900  0.36507000  0.14917100  1
  C  407  1  0.80003000  0.36257900  0.12166800  1
  C  408  1  0.79540000  0.36931700  0.08139200  1
  C  410  1  0.76608900  0.37123500  0.19648400  1
  C  411  1  0.74309100  0.34231200  0.21125300  1
  C  412  1  0.74221200  0.35570800  0.26073200  1
  C  413  1  0.76298600  0.39802000  0.29627800  1
  C  414  1  0.78735700  0.42505500  0.28053400  1
  C  415  1  0.78841500  0.41233800  0.23187400  1
  C  427  1  0.75433500  0.68634700  0.61855700  1
  C  428  1  0.71719700  0.71255500  0.61882500  1
  C  429  1  0.72130800  0.75936900  0.62606000  1
  C  430  1  0.76268800  0.78141500  0.63279800  1
  C  431  1  0.80003200  0.75637200  0.63525800  1
  C  432  1  0.79538300  0.70935800  0.62851700  1
  C  434  1  0.76610400  0.82256400  0.62664100  1
  C  435  1  0.74311300  0.86626300  0.65557200  1
  C  436  1  0.74222100  0.90234100  0.64217400  1
  C  437  1  0.76296400  0.89555900  0.59984100  1
  C  438  1  0.78735400  0.85279400  0.57281200  1
  C  439  1  0.78842300  0.81685600  0.58553400  1
  C  451  1  0.75443400  0.92951400  0.31151900  1
  C  452  1  0.71729400  0.90354100  0.28531500  1
  C  453  1  0.72136200  0.86397000  0.23849200  1
  C  454  1  0.76272000  0.84867100  0.21639700  1
  C  455  1  0.80006900  0.87618200  0.24139600  1
  C  456  1  0.79544300  0.91644900  0.28841500  1
  C  458  1  0.76612200  0.80136300  0.17524400  1
  C  459  1  0.74309300  0.78659300  0.13156900  1
  C  460  1  0.74220200  0.73711500  0.09548800  1
  C  461  1  0.76299500  0.70156700  0.10223800  1
  C  462  1  0.78739900  0.71731100  0.14499500  1
  C  463  1  0.78847000  0.76597100  0.18093500  1
  C  475  1  0.25437400  0.61744500  0.93058500  1
  C  476  1  0.21723600  0.61772000  0.90465000  1
  C  477  1  0.22134900  0.62494300  0.86506400  1
  C  478  1  0.26273200  0.63165900  0.84974500  1
  C  479  1  0.30007600  0.63411000  0.87724000  1
  C  480  1  0.29542700  0.62738200  0.91752100  1
  C  482  1  0.26614700  0.62549200  0.80243300  1
  C  483  1  0.24317900  0.65444000  0.78767100  1
  C  484  1  0.24229500  0.64104600  0.73819400  1
  C  485  1  0.26303200  0.59871100  0.70264300  1
  C  486  1  0.28738000  0.57165100  0.71837500  1
  C  487  1  0.28844000  0.58436800  0.76703400  1
  C  499  1  0.25432200  0.31042200  0.38036900  1
  C  500  1  0.21719000  0.28419500  0.38008200  1
  C  501  1  0.22132000  0.23738500  0.37285400  1
  C  502  1  0.26270600  0.21536200  0.36613700  1
  C  503  1  0.30004300  0.24042200  0.36369500  1
  C  504  1  0.29538200  0.28743500  0.37043300  1
  C  506  1  0.26613100  0.17421100  0.37229500  1
  C  507  1  0.24314600  0.13050900  0.34336100  1
  C  508  1  0.24225600  0.09443200  0.35676300  1
  C  509  1  0.26299300  0.10121700  0.39909800  1
  C  510  1  0.28738000  0.14398700  0.42612600  1
  C  511  1  0.28844300  0.17992600  0.41340500  1
  C  523  1  0.25439100  0.06721600  0.68740000  1
  C  524  1  0.21725600  0.09319500  0.71361300  1
  C  525  1  0.22133600  0.13277000  0.76043300  1
  C  526  1  0.26270200  0.14806400  0.78251200  1
  C  527  1  0.30004600  0.12055000  0.75750300  1
  C  528  1  0.29540400  0.08028000  0.71048800  1
  C  530  1  0.26611400  0.19537600  0.82365800  1
  C  531  1  0.24310100  0.21015300  0.86734500  1
  C  532  1  0.24222000  0.25963300  0.90342500  1
  C  533  1  0.26300900  0.29517500  0.89666000  1
  C  534  1  0.28739300  0.27942500  0.85389000  1
  C  535  1  0.28845300  0.23076400  0.81795300  1
  N  11  1  0.96277100  0.97840800  0.56989100  1
  N  284  1  0.96272600  0.42799100  0.40907600  1
  N  285  1  0.97038400  0.50365300  0.56446500  1
  N  306  1  0.97044400  0.05812400  0.49421600  1
  N  329  1  0.96275800  0.58878900  0.01939200  1
  N  330  1  0.97042100  0.43340700  0.93970800  1
  N  353  1  0.46271500  0.56874000  0.58984300  1
  N  354  1  0.47038700  0.49311600  0.43445800  1
  N  374  1  0.46274400  0.01833700  0.42905000  1
  N  375  1  0.47045600  0.93863600  0.50473200  1
  N  397  1  0.46276400  0.40795400  0.97949300  1
  N  398  1  0.47042300  0.56334500  0.05923300  1
  N  421  1  0.84172400  0.35601900  0.13657100  1
  N  422  1  0.72117600  0.30064600  0.17609800  1
  N  445  1  0.84173500  0.77781000  0.64179500  1
  N  446  1  0.72121500  0.87277700  0.69724800  1
  N  469  1  0.84175700  0.86129400  0.21991000  1
  N  470  1  0.72115600  0.82175000  0.12507900  1
  N  493  1  0.34178100  0.64062100  0.86232200  1
  N  494  1  0.22129700  0.69613000  0.82283700  1
  N  517  1  0.34175500  0.21900300  0.35717600  1
  N  518  1  0.22125200  0.12398800  0.30167900  1
  N  541  1  0.34173900  0.13543400  0.77897000  1
  N  542  1  0.22117300  0.17500100  0.87385200  1
  O  8  1  0.43121000  0.99341300  0.40391000  1
  O  286  1  0.97727600  0.53805100  0.60622500  1
  O  287  1  0.97268800  0.41513600  0.36632200  1
  O  288  1  0.93119500  0.40283800  0.40884100  1
  O  289  1  0.95309000  0.46976200  0.56751500  1
  O  307  1  0.97734400  0.06548300  0.45981900  1
  O  308  1  0.97273000  0.94850900  0.58274800  1
  O  309  1  0.93124000  0.00332700  0.59504000  1
  O  310  1  0.95314700  0.09506400  0.52810400  1
  O  331  1  0.97731300  0.39165200  0.93235500  1
  O  332  1  0.97271700  0.63154800  0.04928300  1
  O  333  1  0.93122500  0.58901500  0.99447300  1
  O  334  1  0.95312700  0.43034800  0.90276100  1
  O  355  1  0.47728600  0.45872600  0.39269600  1
  O  356  1  0.47267100  0.58158500  0.63259600  1
  O  357  1  0.43118400  0.59389200  0.59008000  1
  O  358  1  0.45308800  0.52701100  0.43142000  1
  O  376  1  0.47736500  0.93128200  0.53913100  1
  O  377  1  0.47269300  0.04823000  0.41618300  1
  O  378  1  0.45315000  0.90169500  0.47085100  1
  O  399  1  0.47731900  0.60510500  0.06659400  1
  O  400  1  0.47272600  0.36520200  0.94959000  1
  O  401  1  0.43123000  0.40771200  0.00440600  1
  O  402  1  0.45312800  0.56639400  0.09617300  1
  O  423  1  0.68094600  0.30276800  0.18445100  1
  O  424  1  0.86658500  0.39103900  0.14684200  1
  O  425  1  0.85958100  0.31834400  0.10442100  1
  O  426  1  0.73625300  0.26337300  0.17432200  1
  O  447  1  0.68098300  0.87901000  0.69514500  1
  O  448  1  0.86657600  0.75305000  0.60675900  1
  O  449  1  0.85960600  0.78332000  0.67945800  1
  O  450  1  0.73630400  0.90827300  0.73451100  1
  O  471  1  0.68092500  0.81339800  0.11888000  1
  O  472  1  0.86664100  0.85102200  0.24464200  1
  O  473  1  0.85959200  0.89345500  0.21438600  1
  O  474  1  0.73620200  0.82352700  0.08957000  1
  O  495  1  0.18106600  0.69405100  0.81450000  1
  O  496  1  0.36660800  0.60557600  0.85204800  1
  O  497  1  0.35967000  0.67827900  0.89446500  1
  O  498  1  0.23641000  0.73338700  0.82460800  1
  O  519  1  0.18102100  0.11774600  0.30377500  1
  O  520  1  0.36658200  0.24378100  0.39222400  1
  O  521  1  0.35963400  0.21350000  0.31952200  1
  O  522  1  0.23634800  0.08849400  0.26441900  1
  O  543  1  0.18094200  0.18335600  0.88006500  1
  O  544  1  0.36661200  0.14569700  0.75422600  1
  O  545  1  0.35957900  0.10327700  0.78449500  1
  O  546  1  0.23623400  0.17322500  0.90935400  1
