# generated using pymatgen
data_H6C12N5O3
_symmetry_space_group_name_H-M   'P 1'
_cell_length_a   15.58830000
_cell_length_b   15.58830000
_cell_length_c   31.17660000
_cell_angle_alpha   90.00000000
_cell_angle_beta   90.00000000
_cell_angle_gamma   90.00000000
_symmetry_Int_Tables_number   1
_chemical_formula_structural   H6C12N5O3
_chemical_formula_sum   'H48 C96 N40 O24'
_cell_volume   7575.76093770
_cell_formula_units_Z   8
loop_
 _symmetry_equiv_pos_site_id
 _symmetry_equiv_pos_as_xyz
  1  'x, y, z'
loop_
 _atom_site_type_symbol
 _atom_site_label
 _atom_site_symmetry_multiplicity
 _atom_site_fract_x
 _atom_site_fract_y
 _atom_site_fract_z
 _atom_site_occupancy
  C  1  1  0.00023900  0.98598200  0.01909300  1
  C  2  1  0.00789600  0.00436100  0.06379300  1
  C  3  1  0.99763200  0.94177000  0.09629100  1
  C  4  1  0.98290300  0.85593000  0.08417200  1
  C  5  1  0.98162600  0.83257900  0.04048200  1
  C  6  1  0.98914500  0.89737100  0.00891400  1
  C  9  1  0.00091000  0.05222500  0.98674900  1
  C  10  1  0.98906800  0.14077100  0.99700400  1
  C  11  1  0.98307000  0.20600700  0.96561800  1
  C  12  1  0.98516500  0.18296400  0.92196300  1
  C  13  1  0.00160300  0.09747600  0.90987100  1
  C  14  1  0.01070600  0.03420300  0.94209400  1
  C  25  1  0.05133100  0.99889600  0.51723700  1
  C  26  1  0.03356300  0.00878100  0.56193700  1
  C  27  1  0.09713600  0.99994100  0.59399600  1
  C  28  1  0.18274500  0.98469300  0.58175300  1
  C  29  1  0.20517300  0.98104500  0.53805400  1
  C  30  1  0.13978900  0.98702800  0.50676800  1
  C  33  1  0.98489200  0.99753600  0.48500800  1
  C  34  1  0.89646600  0.98588000  0.49541300  1
  C  35  1  0.83145600  0.97744400  0.46401400  1
  C  36  1  0.85462100  0.97707200  0.42031500  1
  C  37  1  0.93994500  0.99375100  0.40798200  1
  C  38  1  0.00281500  0.00508600  0.44024700  1
  C  49  1  0.02529400  0.02431100  0.70750100  1
  C  51  1  0.97544800  0.07833200  0.77516100  1
  C  52  1  0.03002300  0.02162300  0.79759100  1
  C  54  1  0.08224500  0.96881600  0.72981600  1
  C  59  1  0.01795500  0.03056000  0.66256100  1
  C  61  1  0.03503300  0.01672300  0.84254500  1
  C  63  1  0.02925200  0.02729000  0.20677600  1
  C  65  1  0.96859700  0.97119600  0.27182200  1
  C  66  1  0.02197800  0.02475700  0.29676900  1
  C  68  1  0.08090400  0.08328000  0.23162200  1
  C  73  1  0.03117500  0.02653800  0.16161800  1
  C  75  1  0.02263000  0.02746900  0.34183000  1
  C  77  1  0.97276000  0.42923800  0.00802300  1
  C  79  1  0.97380000  0.55459300  0.96315400  1
  C  80  1  0.97279300  0.60861500  0.99942200  1
  C  82  1  0.97160900  0.48305900  0.04467300  1
  C  87  1  0.97434500  0.33901700  0.01037800  1
  C  89  1  0.97445400  0.69856500  0.99613700  1
  C  91  1  0.60804600  0.96895600  0.50620600  1
  C  93  1  0.48318300  0.96791100  0.46098000  1
  C  94  1  0.42880100  0.96876400  0.49710300  1
  C  96  1  0.55385000  0.96956000  0.54272100  1
  C  101  1  0.69823400  0.97075900  0.50874000  1
  C  103  1  0.33890100  0.97056000  0.49357800  1
  C  417  1  0.32099300  0.37088600  0.01909300  1
  C  418  1  0.32865000  0.38926500  0.06379300  1
  C  419  1  0.31838600  0.32667400  0.09629100  1
  C  420  1  0.30365700  0.24083400  0.08417200  1
  C  421  1  0.30238000  0.21748300  0.04048200  1
  C  422  1  0.30989900  0.28227500  0.00891400  1
  C  425  1  0.32166400  0.43712900  0.98674900  1
  C  426  1  0.30982200  0.52567500  0.99700400  1
  C  427  1  0.30382400  0.59091100  0.96561800  1
  C  428  1  0.30591900  0.56786800  0.92196300  1
  C  429  1  0.32235700  0.48238000  0.90987100  1
  C  430  1  0.33146000  0.41910700  0.94209400  1
  C  441  1  0.37208500  0.38380000  0.51723700  1
  C  442  1  0.35431700  0.39368500  0.56193700  1
  C  443  1  0.41789000  0.38484500  0.59399600  1
  C  444  1  0.50349900  0.36959700  0.58175300  1
  C  445  1  0.52592700  0.36594900  0.53805400  1
  C  446  1  0.46054300  0.37193200  0.50676800  1
  C  449  1  0.30564600  0.38244000  0.48500800  1
  C  450  1  0.21722000  0.37078400  0.49541300  1
  C  451  1  0.15220970  0.36234800  0.46401400  1
  C  452  1  0.17537470  0.36197600  0.42031500  1
  C  453  1  0.26069900  0.37865500  0.40798200  1
  C  454  1  0.32356900  0.38999000  0.44024700  1
  C  465  1  0.34604800  0.40921500  0.70750100  1
  C  467  1  0.29620200  0.46323600  0.77516100  1
  C  468  1  0.35077700  0.40652700  0.79759100  1
  C  470  1  0.40299900  0.35372000  0.72981600  1
  C  475  1  0.33870900  0.41546400  0.66256100  1
  C  477  1  0.35578700  0.40162700  0.84254500  1
  C  479  1  0.35000600  0.41219400  0.20677600  1
  C  481  1  0.28935100  0.35610000  0.27182200  1
  C  482  1  0.34273200  0.40966100  0.29676900  1
  C  484  1  0.40165800  0.46818400  0.23162200  1
  C  489  1  0.35192900  0.41144200  0.16161800  1
  C  491  1  0.34338400  0.41237300  0.34183000  1
  C  493  1  0.29351400  0.81414200  0.00802300  1
  C  495  1  0.29455400  0.93949700  0.96315400  1
  C  496  1  0.29354700  0.99351900  0.99942200  1
  C  498  1  0.29236300  0.86796300  0.04467300  1
  C  503  1  0.29509900  0.72392100  0.01037800  1
  C  505  1  0.29520800  0.08346900  0.99613700  1
  C  507  1  0.92880000  0.35386000  0.50620600  1
  C  509  1  0.80393700  0.35281500  0.46098000  1
  C  510  1  0.74955500  0.35366800  0.49710300  1
  C  512  1  0.87460400  0.35446400  0.54272100  1
  C  517  1  0.01898769  0.35566300  0.50874000  1
  C  519  1  0.65965500  0.35546400  0.49357800  1
  H  7  1  0.02079800  0.06512600  0.07377200  1
  H  16  1  0.02405500  0.97355600  0.93192900  1
  H  17  1  0.03195900  0.77318800  0.12141600  1
  H  18  1  0.91876500  0.25081500  0.88417200  1
  H  19  1  0.98226200  0.87829900  0.97788700  1
  H  20  1  0.98061900  0.15963300  0.02794000  1
  H  31  1  0.97295300  0.02173300  0.57230100  1
  H  40  1  0.06331500  0.01879600  0.43006300  1
  H  41  1  0.26561000  0.03461400  0.61867200  1
  H  42  1  0.78688400  0.90821200  0.38362400  1
  H  43  1  0.15842600  0.97798900  0.47581500  1
  H  44  1  0.87769000  0.97962800  0.52651000  1
  H  55  1  0.93460400  0.11886300  0.79087500  1
  H  60  1  0.96852000  0.06499100  0.64947700  1
  H  62  1  0.06932500  0.96818000  0.85649400  1
  H  69  1  0.92709800  0.92870800  0.28570900  1
  H  74  1  0.06462300  0.07316500  0.14573200  1
  H  76  1  0.06922500  0.06250600  0.35693100  1
  H  83  1  0.97505700  0.57890100  0.93268900  1
  H  88  1  0.97618000  0.30928300  0.03958600  1
  H  90  1  0.97775800  0.72696100  0.96659300  1
  H  97  1  0.45920200  0.96779600  0.43044800  1
  H  102  1  0.72775000  0.97412000  0.53797000  1
  H  104  1  0.31059800  0.97262000  0.46398200  1
  H  423  1  0.34155200  0.45003000  0.07377200  1
  H  432  1  0.34480900  0.35846000  0.93192900  1
  H  433  1  0.35271300  0.15809200  0.12141600  1
  H  434  1  0.23951900  0.63571900  0.88417200  1
  H  435  1  0.30301600  0.26320300  0.97788700  1
  H  436  1  0.30137300  0.54453700  0.02794000  1
  H  447  1  0.29370700  0.40663700  0.57230100  1
  H  456  1  0.38406900  0.40370000  0.43006300  1
  H  457  1  0.58636400  0.41951800  0.61867200  1
  H  458  1  0.10763770  0.29311600  0.38362400  1
  H  459  1  0.47918000  0.36289300  0.47581500  1
  H  460  1  0.19844370  0.36453200  0.52651000  1
  H  471  1  0.25535800  0.50376700  0.79087500  1
  H  476  1  0.28927400  0.44989500  0.64947700  1
  H  478  1  0.39007900  0.35308400  0.85649400  1
  H  485  1  0.24785200  0.31361200  0.28570900  1
  H  490  1  0.38537700  0.45806900  0.14573200  1
  H  492  1  0.38997900  0.44741000  0.35693100  1
  H  499  1  0.29581100  0.96380500  0.93268900  1
  H  504  1  0.29693400  0.69418700  0.03958600  1
  H  506  1  0.29851200  0.11186500  0.96659300  1
  H  513  1  0.77995600  0.35270000  0.43044800  1
  H  518  1  0.04850370  0.35902400  0.53797000  1
  H  520  1  0.63135200  0.35752400  0.46398200  1
  N  21  1  0.00758800  0.08240800  0.86715900  1
  N  22  1  0.97700500  0.29107500  0.97431700  1
  N  23  1  0.97572400  0.74746700  0.03189900  1
  N  24  1  0.00289200  0.95814700  0.13903600  1
  N  45  1  0.95553900  0.99876100  0.36519700  1
  N  46  1  0.74639900  0.97155400  0.47272900  1
  N  47  1  0.29006900  0.97414000  0.52928800  1
  N  48  1  0.08251100  0.00513500  0.63673700  1
  N  50  1  0.97396000  0.07584300  0.73164400  1
  N  53  1  0.08022700  0.96909100  0.77357300  1
  N  56  1  0.13713900  0.91123100  0.70831300  1
  N  64  1  0.97577600  0.97323600  0.22837000  1
  N  67  1  0.07597800  0.07774200  0.27518600  1
  N  70  1  0.13889100  0.14108500  0.21244700  1
  N  78  1  0.97383800  0.46827900  0.96890900  1
  N  81  1  0.97174700  0.56970300  0.03849000  1
  N  84  1  0.97073400  0.44902900  0.08656700  1
  N  92  1  0.56942100  0.96818000  0.46698500  1
  N  95  1  0.46729000  0.96952100  0.53628300  1
  N  98  1  0.58738900  0.97057000  0.58471400  1
  N  437  1  0.32834200  0.46731200  0.86715900  1
  N  438  1  0.29775900  0.67597900  0.97431700  1
  N  439  1  0.29647800  0.13237100  0.03189900  1
  N  440  1  0.32364600  0.34305100  0.13903600  1
  N  461  1  0.27629300  0.38366500  0.36519700  1
  N  462  1  0.06715270  0.35645800  0.47272900  1
  N  463  1  0.61082300  0.35904400  0.52928800  1
  N  464  1  0.40326500  0.39003900  0.63673700  1
  N  466  1  0.29471400  0.46074700  0.73164400  1
  N  469  1  0.40098100  0.35399500  0.77357300  1
  N  472  1  0.45789300  0.29613500  0.70831300  1
  N  480  1  0.29653000  0.35814000  0.22837000  1
  N  483  1  0.39673200  0.46264600  0.27518600  1
  N  486  1  0.45964500  0.52598900  0.21244700  1
  N  494  1  0.29459200  0.85318300  0.96890900  1
  N  497  1  0.29250100  0.95460700  0.03849000  1
  N  500  1  0.29148800  0.83393300  0.08656700  1
  N  508  1  0.89017500  0.35308400  0.46698500  1
  N  511  1  0.78804400  0.35442500  0.53628300  1
  N  514  1  0.90814300  0.35547400  0.58471400  1
  O  8  1  0.97387000  0.79429700  0.11501400  1
  O  15  1  0.97999000  0.24524000  0.89123800  1
  O  32  1  0.24495800  0.97631400  0.61238500  1
  O  39  1  0.79251600  0.96988000  0.38962500  1
  O  57  1  0.12005600  0.83519000  0.71850300  1
  O  58  1  0.21389100  0.92595000  0.71808900  1
  O  71  1  0.21422900  0.12479200  0.22415200  1
  O  72  1  0.12137700  0.21655200  0.22345600  1
  O  85  1  0.03542300  0.47399500  0.10707100  1
  O  86  1  0.90495400  0.47371200  0.10626400  1
  O  99  1  0.56219100  0.03616100  0.60441800  1
  O  100  1  0.56243400  0.90571000  0.60507800  1
  O  424  1  0.29462400  0.17920100  0.11501400  1
  O  431  1  0.30074400  0.63014400  0.89123800  1
  O  448  1  0.56571200  0.36121800  0.61238500  1
  O  455  1  0.11326970  0.35478400  0.38962500  1
  O  473  1  0.44081000  0.22009400  0.71850300  1
  O  474  1  0.53464500  0.31085400  0.71808900  1
  O  487  1  0.53498300  0.50969600  0.22415200  1
  O  488  1  0.44213100  0.60145600  0.22345600  1
  O  501  1  0.35617700  0.85889900  0.10707100  1
  O  502  1  0.22570800  0.85861600  0.10626400  1
  O  515  1  0.88294500  0.42106500  0.60441800  1
  O  516  1  0.88318800  0.29061400  0.60507800  1
