# generated using pymatgen
data_CuH13C12(NO2)2
_symmetry_space_group_name_H-M   'P 1'
_cell_length_a   8.47749615
_cell_length_b   13.25247649
_cell_length_c   15.69104675
_cell_angle_alpha   114.90204861
_cell_angle_beta   91.43337454
_cell_angle_gamma   90.00584097
_symmetry_Int_Tables_number   1
_chemical_formula_structural   CuH13C12(NO2)2
_chemical_formula_sum   'Cu4 H52 C48 N8 O16'
_cell_volume   1598.35014227
_cell_formula_units_Z   4
loop_
 _symmetry_equiv_pos_site_id
 _symmetry_equiv_pos_as_xyz
  1  'x, y, z'
loop_
 _atom_site_type_symbol
 _atom_site_label
 _atom_site_symmetry_multiplicity
 _atom_site_fract_x
 _atom_site_fract_y
 _atom_site_fract_z
 _atom_site_occupancy
  C  C1  1  0.65747797  0.68138964  0.31092597  1.0
  C  C2  1  0.73649170  0.59309744  0.24323608  1.0
  C  C3  1  0.81651958  0.61001371  0.17310090  1.0
  C  C4  1  0.81563273  0.71783990  0.17659018  1.0
  C  C5  1  0.73430097  0.80108937  0.24675371  1.0
  C  C6  1  0.89644547  0.51785908  0.09759010  1.0
  C  C7  1  0.89039204  0.40470803  0.09704197  1.0
  C  C8  1  0.77467603  0.02672381  0.58160637  1.0
  C  C9  1  0.93347395  0.02622773  0.62859116  1.0
  C  C10  1  0.99812991  0.90853453  0.59649135  1.0
  C  C11  1  0.88420161  0.83165443  0.61587181  1.0
  C  C12  1  0.93140617  0.71032599  0.57557800  1.0
  C  C25  1  0.84258727  0.37065063  0.68895255  1.0
  C  C26  1  0.76355363  0.35000299  0.75671313  1.0
  C  C27  1  0.68358577  0.43690106  0.82680627  1.0
  C  C28  1  0.68468898  0.54113501  0.82315860  1.0
  C  C29  1  0.76598314  0.55435801  0.75295066  1.0
  C  C30  1  0.60350036  0.42027640  0.90242256  1.0
  C  C31  1  0.60947427  0.30770896  0.90306974  1.0
  C  C32  1  0.72472982  0.44508731  0.41818034  1.0
  C  C33  1  0.56626978  0.39733953  0.37115554  1.0
  C  C34  1  0.50157519  0.31178071  0.40346776  1.0
  C  C35  1  0.61553013  0.21565960  0.38422810  1.0
  C  C36  1  0.56857473  0.13450350  0.42465942  1.0
  C  C49  1  0.34252223  0.31861027  0.68907404  1.0
  C  C50  1  0.26350859  0.40690266  0.75676390  1.0
  C  C51  1  0.18348060  0.38998628  0.82689894  1.0
  C  C52  1  0.18436726  0.28216019  0.82340973  1.0
  C  C53  1  0.26569939  0.19891089  0.75324632  1.0
  C  C54  1  0.10355476  0.48214105  0.90240970  1.0
  C  C55  1  0.10960807  0.59529210  0.90295789  1.0
  C  C56  1  0.22532504  0.97327630  0.41839364  1.0
  C  C57  1  0.06652391  0.97377414  0.37141052  1.0
  C  C58  1  0.00186743  0.09146538  0.40350912  1.0
  C  C59  1  0.11579732  0.16834631  0.38412851  1.0
  C  C60  1  0.06859579  0.28967450  0.42442271  1.0
  C  C73  1  0.15741283  0.62934950  0.31104731  1.0
  C  C74  1  0.23644655  0.64999719  0.24328674  1.0
  C  C75  1  0.31641440  0.56309900  0.17319354  1.0
  C  C76  1  0.31531111  0.45886494  0.17684121  1.0
  C  C77  1  0.23401698  0.44564205  0.24704922  1.0
  C  C78  1  0.39649976  0.57972361  0.09757727  1.0
  C  C79  1  0.39052584  0.69229101  0.09693003  1.0
  C  C80  1  0.27526983  0.55491210  0.58182052  1.0
  C  C81  1  0.43372806  0.60266028  0.62884518  1.0
  C  C82  1  0.49842265  0.68821966  0.59653210  1.0
  C  C83  1  0.38446990  0.78434001  0.61577228  1.0
  C  C84  1  0.43142638  0.86549601  0.57534017  1.0
  Cu  Cu1  1  0.54793890  0.91917776  0.42567845  1.0
  Cu  Cu3  1  0.95204614  0.49336844  0.57405535  1.0
  Cu  Cu5  1  0.45206354  0.08081791  0.57431746  1.0
  Cu  Cu7  1  0.04795423  0.50663131  0.42594482  1.0
  H  H1  1  0.59351993  0.67153842  0.36644302  1.0
  H  H2  1  0.73658236  0.51350337  0.24786861  1.0
  H  H3  1  0.87729725  0.73440875  0.12371654  1.0
  H  H4  1  0.72985091  0.88573119  0.25184239  1.0
  H  H5  1  0.95851359  0.34587968  0.03935363  1.0
  H  H6  1  0.76707848  0.37568695  0.08956308  1.0
  H  H7  1  0.93642432  0.40781922  0.16416426  1.0
  H  H8  1  0.91938604  0.06665617  0.70508159  1.0
  H  H9  1  0.01748617  0.07682528  0.61017283  1.0
  H  H10  1  0.01897893  0.87375149  0.52084498  1.0
  H  H11  1  0.11300018  0.91359364  0.63205804  1.0
  H  H12  1  0.86571491  0.86010994  0.69148598  1.0
  H  H13  1  0.76865000  0.83236236  0.58217855  1.0
  H  H27  1  0.90650179  0.30539532  0.63350953  1.0
  H  H28  1  0.76341859  0.26586241  0.75221699  1.0
  H  H29  1  0.62305570  0.61042091  0.87600701  1.0
  H  H30  1  0.77049319  0.63388818  0.74782761  1.0
  H  H31  1  0.54137966  0.30638123  0.96077117  1.0
  H  H32  1  0.73283319  0.28620304  0.91051377  1.0
  H  H33  1  0.56348357  0.24385233  0.83594499  1.0
  H  H34  1  0.58026870  0.36143285  0.29463416  1.0
  H  H35  1  0.48213519  0.46621669  0.38958615  1.0
  H  H36  1  0.48092642  0.35265213  0.47912820  1.0
  H  H37  1  0.38658797  0.28133683  0.36801828  1.0
  H  H38  1  0.63410298  0.16867082  0.30865193  1.0
  H  H39  1  0.73103931  0.25001790  0.41792035  1.0
  H  H53  1  0.40647984  0.32846142  0.63355688  1.0
  H  H54  1  0.26341759  0.48649667  0.75213159  1.0
  H  H55  1  0.12270252  0.26559133  0.87628326  1.0
  H  H56  1  0.27014913  0.11426915  0.74815786  1.0
  H  H57  1  0.04148648  0.65412047  0.96064619  1.0
  H  H58  1  0.23292159  0.62431314  0.91043673  1.0
  H  H59  1  0.06357583  0.59218078  0.83583556  1.0
  H  H60  1  0.08061585  0.93334558  0.29492056  1.0
  H  H61  1  0.98251383  0.92317554  0.38982903  1.0
  H  H62  1  0.98101738  0.12624901  0.47915538  1.0
  H  H63  1  0.88699861  0.08640705  0.36794133  1.0
  H  H64  1  0.13428203  0.13988982  0.30851384  1.0
  H  H65  1  0.23134936  0.16763688  0.41782095  1.0
  H  H79  1  0.09349815  0.69460483  0.36649023  1.0
  H  H80  1  0.23658145  0.73413798  0.24778306  1.0
  H  H81  1  0.37694435  0.38957900  0.12399269  1.0
  H  H82  1  0.22950692  0.36611192  0.25217241  1.0
  H  H83  1  0.45862041  0.69361868  0.03922860  1.0
  H  H84  1  0.26716691  0.71379693  0.08948604  1.0
  H  H85  1  0.43651643  0.75614769  0.16405476  1.0
  H  H86  1  0.41973322  0.63856849  0.70536704  1.0
  H  H87  1  0.51786445  0.53378388  0.61041364  1.0
  H  H88  1  0.51907070  0.64734812  0.52087158  1.0
  H  H89  1  0.61341071  0.71866174  0.63198119  1.0
  H  H90  1  0.36589727  0.83132957  0.69134826  1.0
  H  H91  1  0.26896019  0.74998358  0.58207996  1.0
  N  N1  1  0.65454237  0.78350159  0.31262211  1.0
  N  N2  1  0.96484022  0.54360108  0.03562777  1.0
  N  N5  1  0.84562854  0.47099445  0.68710430  1.0
  N  N6  1  0.53523762  0.50793482  0.96431596  1.0
  N  N9  1  0.34545805  0.21649848  0.68737805  1.0
  N  N10  1  0.03515983  0.45639912  0.96437202  1.0
  N  N13  1  0.15437168  0.52900572  0.31289549  1.0
  N  N14  1  0.46476260  0.49206516  0.03568393  1.0
  O  O1  1  0.67136974  0.09490036  0.63068139  1.0
  O  O2  1  0.90723102  0.65779603  0.62609701  1.0
  O  O3  1  0.75631831  0.95666129  0.49633377  1.0
  O  O4  1  0.98785630  0.66880845  0.49349825  1.0
  O  O9  1  0.82821915  0.46447828  0.36925826  1.0
  O  O10  1  0.59274056  0.03163999  0.37404300  1.0
  O  O11  1  0.74307451  0.46045435  0.50356735  1.0
  O  O12  1  0.51244034  0.17503805  0.50679626  1.0
  O  O17  1  0.32862841  0.90509931  0.36931659  1.0
  O  O18  1  0.09277034  0.34220399  0.37390309  1.0
  O  O19  1  0.24368571  0.04333794  0.50366628  1.0
  O  O20  1  0.01214813  0.33119229  0.50650314  1.0
  O  O25  1  0.17178069  0.53551908  0.63074160  1.0
  O  O26  1  0.40725937  0.96835846  0.62595625  1.0
  O  O27  1  0.25692581  0.53954552  0.49643384  1.0
  O  O28  1  0.48756141  0.82496182  0.49320321  1.0
