# generated using pymatgen
data_Eu2H13C25O14
_symmetry_space_group_name_H-M   'P 1'
_cell_length_a   8.53504000
_cell_length_b   10.67042000
_cell_length_c   17.69869000
_cell_angle_alpha   99.90799000
_cell_angle_beta   97.30156000
_cell_angle_gamma   99.66861000
_symmetry_Int_Tables_number   1
_chemical_formula_structural   Eu2H13C25O14
_chemical_formula_sum   'Eu4 H26 C50 O28'
_cell_volume   1544.94245287
_cell_formula_units_Z   2
loop_
 _symmetry_equiv_pos_site_id
 _symmetry_equiv_pos_as_xyz
  1  'x, y, z'
loop_
 _atom_site_type_symbol
 _atom_site_label
 _atom_site_symmetry_multiplicity
 _atom_site_fract_x
 _atom_site_fract_y
 _atom_site_fract_z
 _atom_site_occupancy
  Eu  Eu0  1  0.47505000  0.85476000  0.19652000  1
  Eu  Eu1  1  0.96463000  0.80395000  0.26015000  1
  Eu  Eu2  1  0.52510000  0.14524000  0.80337000  1
  Eu  Eu3  1  0.03536000  0.19604000  0.73977000  1
  H  H4  1  0.13754000  0.50385000  0.43775000  1
  H  H5  1  0.12816000  0.29140000  0.47998000  1
  H  H6  1  0.96141000  0.09039000  0.39463000  1
  H  H7  1  0.79571000  0.31669000  0.23259000  1
  H  H8  1  0.08365000  0.85993000  0.85936000  1
  H  H9  1  0.13789000  0.70070000  0.94278000  1
  H  H10  1  0.96834000  0.66508000  0.04574000  1
  H  H11  1  0.69075000  0.94020000  0.97757000  1
  H  H12  1  0.37985000  0.87401000  0.61433000  1
  H  H13  1  0.22050000  0.72609000  0.49434000  1
  H  H14  1  0.35150000  0.67693000  0.37771000  1
  H  H15  1  0.79138000  0.93350000  0.49894000  1
  H  H16  1  0.12068000  0.52912000  0.14399000  1
  H  H17  1  0.86216000  0.49651000  0.56208000  1
  H  H18  1  0.87178000  0.70904000  0.51984000  1
  H  H19  1  0.03873000  0.90992000  0.60531000  1
  H  H20  1  0.20404000  0.68333000  0.76729000  1
  H  H21  1  0.91654000  0.14008000  0.14063000  1
  H  H22  1  0.86225000  0.29927000  0.05719000  1
  H  H23  1  0.03173000  0.33488000  0.95422000  1
  H  H24  1  0.30945000  0.05983000  0.02239000  1
  H  H25  1  0.62047000  0.12615000  0.38574000  1
  H  H26  1  0.77969000  0.27395000  0.50577000  1
  H  H27  1  0.64866000  0.32318000  0.62236000  1
  H  H28  1  0.20882000  0.06664000  0.50104000  1
  H  H29  1  0.87922000  0.47097000  0.85600000  1
  C  C30  1  0.97642000  0.54784000  0.30576000  1
  C  C31  1  0.97023000  0.42257000  0.33184000  1
  C  C32  1  0.06275000  0.41565000  0.40197000  1
  C  C33  1  0.05833000  0.29663000  0.42512000  1
  C  C34  1  0.96367000  0.18397000  0.37782000  1
  C  C35  1  0.86912000  0.19104000  0.30831000  1
  C  C36  1  0.87111000  0.31072000  0.28574000  1
  C  C37  1  0.75863000  0.07416000  0.25990000  1
  C  C38  1  0.84721000  0.00180000  0.86139000  1
  C  C39  1  0.88158000  0.90757000  0.91172000  1
  C  C40  1  0.00857000  0.84079000  0.90287000  1
  C  C41  1  0.03920000  0.75208000  0.95010000  1
  C  C42  1  0.94543000  0.73197000  0.00759000  1
  C  C43  1  0.82046000  0.80066000  0.01782000  1
  C  C44  1  0.78764000  0.88732000  0.96928000  1
  C  C45  1  0.72578000  0.78745000  0.08210000  1
  C  C46  1  0.68438000  0.00512000  0.63677000  1
  C  C47  1  0.59526000  0.91245000  0.56458000  1
  C  C48  1  0.43446000  0.85277000  0.56264000  1
  C  C49  1  0.34630000  0.76841000  0.49566000  1
  C  C50  1  0.41909000  0.74098000  0.43044000  1
  C  C51  1  0.58038000  0.79944000  0.43205000  1
  C  C52  1  0.65878000  0.77051000  0.36241000  1
  C  C53  1  0.66783000  0.88693000  0.49885000  1
  C  C54  1  0.21204000  0.61980000  0.15907000  1
  C  C55  1  0.02368000  0.45226000  0.69413000  1
  C  C56  1  0.02963000  0.57760000  0.66805000  1
  C  C57  1  0.93708000  0.58462000  0.59791000  1
  C  C58  1  0.94151000  0.70365000  0.57473000  1
  C  C59  1  0.03620000  0.81629000  0.62209000  1
  C  C60  1  0.13064000  0.80919000  0.69162000  1
  C  C61  1  0.12869000  0.68946000  0.71416000  1
  C  C62  1  0.24126000  0.92601000  0.74009000  1
  C  C63  1  0.15307000  0.99823000  0.13856000  1
  C  C64  1  0.11862000  0.09246000  0.08824000  1
  C  C65  1  0.99161000  0.15920000  0.09710000  1
  C  C66  1  0.96095000  0.24790000  0.04987000  1
  C  C67  1  0.05472000  0.26802000  0.99238000  1
  C  C68  1  0.17970000  0.19935000  0.98213000  1
  C  C69  1  0.21256000  0.11272000  0.03067000  1
  C  C70  1  0.27418000  0.21258000  0.91777000  1
  C  C71  1  0.31569000  0.99494000  0.36320000  1
  C  C72  1  0.40478000  0.08779000  0.43536000  1
  C  C73  1  0.56566000  0.14737000  0.43736000  1
  C  C74  1  0.65387000  0.23163000  0.50440000  1
  C  C75  1  0.58110000  0.25910000  0.56962000  1
  C  C76  1  0.41980000  0.20066000  0.56798000  1
  C  C77  1  0.34131000  0.22954000  0.63760000  1
  C  C78  1  0.33233000  0.11327000  0.50114000  1
  C  C79  1  0.78794000  0.38026000  0.84096000  1
  O  O80  1  0.07110000  0.65051000  0.34497000  1
  O  O81  1  0.88905000  0.55623000  0.24322000  1
  O  O82  1  0.64193000  0.08717000  0.21196000  1
  O  O83  1  0.77635000  0.95985000  0.26940000  1
  O  O84  1  0.94232000  0.03071000  0.81444000  1
  O  O85  1  0.72172000  0.05042000  0.86792000  1
  O  O86  1  0.59474000  0.83060000  0.07952000  1
  O  O87  1  0.77736000  0.73728000  0.13844000  1
  O  O88  1  0.83257000  0.05127000  0.63979000  1
  O  O89  1  0.60188000  0.03131000  0.69049000  1
  O  O90  1  0.57018000  0.73645000  0.29569000  1
  O  O91  1  0.81052000  0.78126000  0.37148000  1
  O  O92  1  0.34259000  0.62469000  0.13210000  1
  O  O93  1  0.18327000  0.71857000  0.20359000  1
  O  O94  1  0.92888000  0.34968000  0.65492000  1
  O  O95  1  0.11111000  0.44373000  0.75661000  1
  O  O96  1  0.35790000  0.91285000  0.78802000  1
  O  O97  1  0.22381000  0.04043000  0.73066000  1
  O  O98  1  0.05818000  0.96932000  0.18559000  1
  O  O99  1  0.27847000  0.94951000  0.13196000  1
  O  O100  1  0.40519000  0.16936000  0.92030000  1
  O  O101  1  0.22246000  0.26292000  0.86154000  1
  O  O102  1  0.16751000  0.94856000  0.36021000  1
  O  O103  1  0.39816000  0.96884000  0.30945000  1
  O  O104  1  0.42985000  0.26366000  0.70433000  1
  O  O105  1  0.18955000  0.21871000  0.62850000  1
  O  O106  1  0.65736000  0.37536000  0.86791000  1
  O  O107  1  0.81682000  0.28145000  0.79651000  1
