# generated using pymatgen
data_Mg2H10C16O17
_symmetry_space_group_name_H-M   'P 1'
_cell_length_a   11.58664000
_cell_length_b   11.58557000
_cell_length_c   18.09056000
_cell_angle_alpha   94.70014000
_cell_angle_beta   94.56651000
_cell_angle_gamma   116.32708000
_symmetry_Int_Tables_number   1
_chemical_formula_structural   Mg2H10C16O17
_chemical_formula_sum   'Mg4 H20 C32 O34'
_cell_volume   2150.87830717
_cell_formula_units_Z   2
loop_
 _symmetry_equiv_pos_site_id
 _symmetry_equiv_pos_as_xyz
  1  'x, y, z'
loop_
 _atom_site_type_symbol
 _atom_site_label
 _atom_site_symmetry_multiplicity
 _atom_site_fract_x
 _atom_site_fract_y
 _atom_site_fract_z
 _atom_site_occupancy
  Mg  Mg0  1  0.01904000  0.71952000  0.73841000  1
  Mg  Mg1  1  0.27849000  0.97806000  0.76117000  1
  Mg  Mg2  1  0.98096000  0.28048000  0.26159000  1
  Mg  Mg3  1  0.72152000  0.02193000  0.23883000  1
  H  H4  1  0.26278000  0.14727000  0.92612000  1
  H  H5  1  0.26949000  0.66690000  0.93748000  1
  H  H6  1  0.21880000  0.73024000  0.79397000  1
  H  H7  1  0.89407000  0.77055000  0.86360000  1
  H  H8  1  0.84758000  0.48164000  0.83989000  1
  H  H9  1  0.85238000  0.73699000  0.57340000  1
  H  H10  1  0.33333333  0.73025000  0.56222000  1
  H  H11  1  0.26747000  0.77854000  0.70431000  1
  H  H12  1  0.22892000  0.10468000  0.63634000  1
  H  H13  1  0.51772000  0.15253000  0.66029000  1
  H  H14  1  0.73722000  0.85273000  0.07388000  1
  H  H15  1  0.73051000  0.33310000  0.06252000  1
  H  H16  1  0.78121000  0.26976000  0.20603000  1
  H  H17  1  0.10594000  0.22944000  0.13640000  1
  H  H18  1  0.15243000  0.51836000  0.16011000  1
  H  H19  1  0.14762000  0.26300000  0.42660000  1
  H  H20  1  0.66673000  0.26975000  0.43777000  1
  H  H21  1  0.73254000  0.22146000  0.29568000  1
  H  H22  1  0.77109000  0.89532000  0.36366000  1
  H  H23  1  0.48228000  0.84747000  0.33971000  1
  C  C24  1  0.09795000  0.94750000  0.86680000  1
  C  C25  1  0.04860000  0.97424000  0.93455000  1
  C  C26  1  0.12334000  0.09197000  0.98371000  1
  C  C27  1  0.92485000  0.88235000  0.95144000  1
  C  C28  1  0.07284000  0.59786000  0.86136000  1
  C  C29  1  0.03540000  0.54512000  0.93109000  1
  C  C30  1  0.13387000  0.57417000  0.99269000  1
  C  C31  1  0.90172000  0.47039000  0.93875000  1
  C  C32  1  0.05194000  0.90163000  0.63301000  1
  C  C33  1  0.02521000  0.95144000  0.56551000  1
  C  C34  1  0.90785000  0.87682000  0.51619000  1
  C  C35  1  0.11733000  0.07505000  0.54874000  1
  C  C36  1  0.40202000  0.92678000  0.63857000  1
  C  C37  1  0.45462000  0.96451000  0.56884000  1
  C  C38  1  0.42559000  0.86606000  0.50709000  1
  C  C39  1  0.52949000  0.09816000  0.56137000  1
  C  C40  1  0.90206000  0.05249000  0.13320000  1
  C  C41  1  0.95140000  0.02576000  0.06545000  1
  C  C42  1  0.87667000  0.90803000  0.01629000  1
  C  C43  1  0.07516000  0.11765000  0.04856000  1
  C  C44  1  0.92716000  0.40214000  0.13864000  1
  C  C45  1  0.96461000  0.45488000  0.06891000  1
  C  C46  1  0.86613000  0.42583000  0.00731000  1
  C  C47  1  0.09828000  0.52961000  0.06125000  1
  C  C48  1  0.94806000  0.09836000  0.36699000  1
  C  C49  1  0.97480000  0.04856000  0.43449000  1
  C  C50  1  0.09215000  0.12317000  0.48381000  1
  C  C51  1  0.88267000  0.92495000  0.45126000  1
  C  C52  1  0.59798000  0.07321000  0.36143000  1
  C  C53  1  0.54538000  0.03549000  0.43116000  1
  C  C54  1  0.57441000  0.13394000  0.49291000  1
  C  C55  1  0.47052000  0.90184000  0.43862000  1
  O  O56  1  0.02216000  0.84859000  0.81858000  1
  O  O57  1  0.21666000  0.02183000  0.85507000  1
  O  O58  1  0.24061000  0.18357000  0.97114000  1
  O  O59  1  0.98397000  0.58254000  0.80654000  1
  O  O60  1  0.19464000  0.66268000  0.85539000  1
  O  O61  1  0.26247000  0.64549000  0.98955000  1
  O  O62  1  0.84841000  0.76814000  0.90779000  1
  O  O63  1  0.80446000  0.43840000  0.88205000  1
  O  O64  1  0.15073000  0.97737000  0.68132000  1
  O  O65  1  0.97799000  0.78279000  0.64459000  1
  O  O66  1  0.81612000  0.75951000  0.52865000  1
  O  O67  1  0.41661000  0.01530000  0.69356000  1
  O  O68  1  0.33820000  0.80487000  0.64444000  1
  O  O69  1  0.35449000  0.73740000  0.51009000  1
  O  O70  1  0.23140000  0.15102000  0.59247000  1
  O  O71  1  0.56112000  0.19542000  0.61814000  1
  O  O72  1  0.97785000  0.15141000  0.18142000  1
  O  O73  1  0.78335000  0.97817000  0.14493000  1
  O  O74  1  0.75939000  0.81642000  0.02886000  1
  O  O75  1  0.01604000  0.41746000  0.19346000  1
  O  O76  1  0.80537000  0.33732000  0.14461000  1
  O  O77  1  0.73754000  0.35450000  0.01045000  1
  O  O78  1  0.15160000  0.23186000  0.09221000  1
  O  O79  1  0.19555000  0.56160000  0.11795000  1
  O  O80  1  0.84928000  0.02263000  0.31868000  1
  O  O81  1  0.02202000  0.21720000  0.35541000  1
  O  O82  1  0.18389000  0.24049000  0.47135000  1
  O  O83  1  0.58340000  0.98469000  0.30644000  1
  O  O84  1  0.66181000  0.19512000  0.35556000  1
  O  O85  1  0.64551000  0.26259000  0.48991000  1
  O  O86  1  0.76861000  0.84898000  0.40753000  1
  O  O87  1  0.43889000  0.80458000  0.38186000  1
  O  O88  1  0.21228000  0.78351000  0.74881000  1
  O  O89  1  0.78773000  0.21649000  0.25119000  1
