# generated using pymatgen
data_ZnPH4C7O5
_symmetry_space_group_name_H-M   'P 1'
_cell_length_a   10.00224000
_cell_length_b   16.28876000
_cell_length_c   18.16245000
_cell_angle_alpha   89.85194000
_cell_angle_beta   94.11145000
_cell_angle_gamma   89.60082000
_symmetry_Int_Tables_number   1
_chemical_formula_structural   ZnPH4C7O5
_chemical_formula_sum   'Zn8 P8 H32 C56 O40'
_cell_volume   2951.39952475
_cell_formula_units_Z   8
loop_
 _symmetry_equiv_pos_site_id
 _symmetry_equiv_pos_as_xyz
  1  'x, y, z'
loop_
 _atom_site_type_symbol
 _atom_site_label
 _atom_site_symmetry_multiplicity
 _atom_site_fract_x
 _atom_site_fract_y
 _atom_site_fract_z
 _atom_site_occupancy
  Zn  Zn0  1  0.91723000  0.55062000  0.08981000  1
  Zn  Zn1  1  0.40822000  0.55575000  0.07966000  1
  Zn  Zn2  1  0.58073000  0.05085000  0.41011000  1
  Zn  Zn3  1  0.08924000  0.05728000  0.41996000  1
  Zn  Zn4  1  0.08253000  0.45038000  0.91010000  1
  Zn  Zn5  1  0.58911000  0.44584000  0.91970000  1
  Zn  Zn6  1  0.41752000  0.94997000  0.58699000  1
  Zn  Zn7  1  0.91124000  0.94380000  0.57988000  1
  P  P8  1  0.16594000  0.43868000  0.08613000  1
  P  P9  1  0.83570000  0.94061000  0.40897000  1
  P  P10  1  0.33674000  0.94041000  0.41046000  1
  P  P11  1  0.66555000  0.44010000  0.09050000  1
  P  P12  1  0.83374000  0.56216000  0.91355000  1
  P  P13  1  0.16494000  0.06052000  0.59122000  1
  P  P14  1  0.66177000  0.06125000  0.58701000  1
  P  P15  1  0.33271000  0.56182000  0.90906000  1
  H  H16  1  0.98787000  0.29838000  0.07203000  1
  H  H17  1  0.96744000  0.17298000  0.15204000  1
  H  H18  1  0.26690000  0.26987000  0.31062000  1
  H  H19  1  0.28651000  0.39536000  0.23110000  1
  H  H20  1  0.93606000  0.96533000  0.26310000  1
  H  H21  1  0.97649000  0.86668000  0.16120000  1
  H  H22  1  0.85985000  0.66513000  0.29629000  1
  H  H23  1  0.81820000  0.76367000  0.39846000  1
  H  H24  1  0.51424000  0.79858000  0.42470000  1
  H  H25  1  0.53338000  0.67265000  0.34561000  1
  H  H26  1  0.22761000  0.77022000  0.18907000  1
  H  H27  1  0.21001000  0.89633000  0.26756000  1
  H  H28  1  0.56128000  0.46506000  0.23606000  1
  H  H29  1  0.51923000  0.36629000  0.33741000  1
  H  H30  1  0.63876000  0.16447000  0.20310000  1
  H  H31  1  0.68166000  0.26310000  0.10124000  1
  H  H32  1  0.01362000  0.70120000  0.92767000  1
  H  H33  1  0.03935000  0.82552000  0.84721000  1
  H  H34  1  0.73455000  0.73312000  0.68954000  1
  H  H35  1  0.71066000  0.60826000  0.76894000  1
  H  H36  1  0.06465000  0.03632000  0.73701000  1
  H  H37  1  0.02375000  0.13505000  0.83869000  1
  H  H38  1  0.14164000  0.33642000  0.70371000  1
  H  H39  1  0.18360000  0.23782000  0.60174000  1
  H  H40  1  0.48434000  0.20393000  0.57375000  1
  H  H41  1  0.46481000  0.32871000  0.65398000  1
  H  H42  1  0.76990000  0.22978000  0.80995000  1
  H  H43  1  0.78800000  0.10463000  0.73038000  1
  H  H44  1  0.43876000  0.53550000  0.76437000  1
  H  H45  1  0.48037000  0.63261000  0.66185000  1
  H  H46  1  0.36013000  0.83636000  0.79405000  1
  H  H47  1  0.31759000  0.73884000  0.89669000  1
  C  C48  1  0.13990000  0.35305000  0.14626000  1
  C  C49  1  0.04690000  0.29114000  0.12435000  1
  C  C50  1  0.03552000  0.22246000  0.16855000  1
  C  C51  1  0.11546000  0.21527000  0.23590000  1
  C  C52  1  0.20640000  0.27773000  0.25880000  1
  C  C53  1  0.21751000  0.34634000  0.21454000  1
  C  C54  1  0.10774000  0.14006000  0.28207000  1
  C  C55  1  0.87339000  0.87048000  0.33654000  1
  C  C56  1  0.91769000  0.89998000  0.26949000  1
  C  C57  1  0.94075000  0.84535000  0.21314000  1
  C  C58  1  0.91851000  0.76060000  0.22296000  1
  C  C59  1  0.87536000  0.73076000  0.29015000  1
  C  C60  1  0.85211000  0.78544000  0.34632000  1
  C  C61  1  0.94580000  0.70162000  0.16358000  1
  C  C62  1  0.35981000  0.85365000  0.35132000  1
  C  C63  1  0.45379000  0.79142000  0.37296000  1
  C  C64  1  0.46444000  0.72241000  0.32929000  1
  C  C65  1  0.38227000  0.71510000  0.26282000  1
  C  C66  1  0.29013000  0.77793000  0.24013000  1
  C  C67  1  0.28004000  0.84701000  0.28382000  1
  C  C68  1  0.38884000  0.63889000  0.21815000  1
  C  C69  1  0.62557000  0.37010000  0.16274000  1
  C  C70  1  0.58009000  0.39965000  0.22953000  1
  C  C71  1  0.55612000  0.34497000  0.28578000  1
  C  C72  1  0.57901000  0.26013000  0.27638000  1
  C  C73  1  0.62306000  0.23018000  0.20935000  1
  C  C74  1  0.64691000  0.28488000  0.15320000  1
  C  C75  1  0.55284000  0.20121000  0.33619000  1
  C  C76  1  0.85985000  0.64814000  0.85358000  1
  C  C77  1  0.95498000  0.70887000  0.87531000  1
  C  C78  1  0.96890000  0.77720000  0.83103000  1
  C  C79  1  0.88848000  0.78582000  0.76406000  1
  C  C80  1  0.79510000  0.72465000  0.74129000  1
  C  C81  1  0.78200000  0.65607000  0.78545000  1
  C  C82  1  0.89827000  0.86150000  0.71869000  1
  C  C83  1  0.12739000  0.13111000  0.66349000  1
  C  C84  1  0.08296000  0.10168000  0.73056000  1
  C  C85  1  0.05952000  0.15635000  0.78681000  1
  C  C86  1  0.08124000  0.24105000  0.77705000  1
  C  C87  1  0.12567000  0.27084000  0.71000000  1
  C  C88  1  0.14913000  0.21614000  0.65382000  1
  C  C89  1  0.05378000  0.29974000  0.83674000  1
  C  C90  1  0.63858000  0.14777000  0.64673000  1
  C  C91  1  0.54509000  0.21040000  0.62546000  1
  C  C92  1  0.53417000  0.27895000  0.66970000  1
  C  C93  1  0.61557000  0.28571000  0.73649000  1
  C  C94  1  0.70793000  0.22280000  0.75860000  1
  C  C95  1  0.71810000  0.15408000  0.71435000  1
  C  C96  1  0.60657000  0.36151000  0.78178000  1
  C  C97  1  0.37392000  0.63124000  0.83646000  1
  C  C98  1  0.41979000  0.60097000  0.77008000  1
  C  C99  1  0.44360000  0.65491000  0.71319000  1
  C  C100  1  0.42059000  0.73995000  0.72149000  1
  C  C101  1  0.37635000  0.77062000  0.78826000  1
  C  C102  1  0.35254000  0.71655000  0.84497000  1
  C  C103  1  0.44656000  0.79775000  0.66064000  1
  O  O104  1  0.31930000  0.44977000  0.08899000  1
  O  O105  1  0.10120000  0.51575000  0.11879000  1
  O  O106  1  0.10051000  0.41259000  0.01115000  1
  O  O107  1  0.10732000  0.15081000  0.35203000  1
  O  O108  1  0.10469000  0.07195000  0.24978000  1
  O  O109  1  0.04251000  0.71448000  0.12509000  1
  O  O110  1  0.86807000  0.63853000  0.15683000  1
  O  O111  1  0.90213000  0.02369000  0.39691000  1
  O  O112  1  0.68116000  0.94898000  0.39988000  1
  O  O113  1  0.88080000  0.89667000  0.48182000  1
  O  O114  1  0.18394000  0.95249000  0.41077000  1
  O  O115  1  0.39962000  0.01586000  0.37446000  1
  O  O116  1  0.40649000  0.91612000  0.48520000  1
  O  O117  1  0.38633000  0.64804000  0.14783000  1
  O  O118  1  0.39383000  0.57143000  0.25183000  1
  O  O119  1  0.45477000  0.21271000  0.37422000  1
  O  O120  1  0.63343000  0.13893000  0.34392000  1
  O  O121  1  0.59599000  0.52333000  0.09983000  1
  O  O122  1  0.81951000  0.44897000  0.10361000  1
  O  O123  1  0.62613000  0.39635000  0.01730000  1
  O  O124  1  0.68049000  0.55092000  0.91094000  1
  O  O125  1  0.89855000  0.48504000  0.88110000  1
  O  O126  1  0.89932000  0.58787000  0.98872000  1
  O  O127  1  0.88626000  0.85254000  0.64827000  1
  O  O128  1  0.91375000  0.92868000  0.75186000  1
  O  O129  1  0.95600000  0.28846000  0.87480000  1
  O  O130  1  0.13347000  0.36174000  0.84424000  1
  O  O131  1  0.09882000  0.97722000  0.60341000  1
  O  O132  1  0.31945000  0.05203000  0.60018000  1
  O  O133  1  0.11958000  0.10386000  0.51817000  1
  O  O134  1  0.81458000  0.04776000  0.58884000  1
  O  O135  1  0.59850000  0.98517000  0.62186000  1
  O  O136  1  0.59490000  0.08727000  0.51188000  1
  O  O137  1  0.61334000  0.35292000  0.85225000  1
  O  O138  1  0.59561000  0.42897000  0.74819000  1
  O  O139  1  0.54299000  0.78490000  0.62173000  1
  O  O140  1  0.36714000  0.86066000  0.65237000  1
  O  O141  1  0.39984000  0.47772000  0.90000000  1
  O  O142  1  0.17893000  0.55247000  0.89636000  1
  O  O143  1  0.37285000  0.60615000  0.98205000  1
