# generated using pymatgen
data_ZnH8C13NO4
_symmetry_space_group_name_H-M   'P 1'
_cell_length_a   7.81524000
_cell_length_b   8.56655000
_cell_length_c   12.48896000
_cell_angle_alpha   92.60691000
_cell_angle_beta   103.19422000
_cell_angle_gamma   93.72227000
_symmetry_Int_Tables_number   1
_chemical_formula_structural   ZnH8C13NO4
_chemical_formula_sum   'Zn2 H16 C26 N2 O8'
_cell_volume   810.77564765
_cell_formula_units_Z   2
loop_
 _symmetry_equiv_pos_site_id
 _symmetry_equiv_pos_as_xyz
  1  'x, y, z'
loop_
 _atom_site_type_symbol
 _atom_site_label
 _atom_site_symmetry_multiplicity
 _atom_site_fract_x
 _atom_site_fract_y
 _atom_site_fract_z
 _atom_site_occupancy
  Zn  Zn0  1  0.81358000  0.51853000  0.51247000  1
  Zn  Zn1  1  0.18642000  0.48147000  0.48753000  1
  H  H2  1  0.80398000  0.99116000  0.51003000  1
  H  H3  1  0.47476000  0.63737000  0.71827000  1
  H  H4  1  0.19869000  0.00944000  0.49586000  1
  H  H5  1  0.22052000  0.37960000  0.04085000  1
  H  H6  1  0.44599000  0.19398000  0.09953000  1
  H  H7  1  0.39551000  0.98503000  0.22229000  1
  H  H8  1  0.11730000  0.96227000  0.28528000  1
  H  H9  1  0.89384000  0.15282000  0.23256000  1
  H  H10  1  0.47092000  0.36326000  0.42845000  1
  H  H11  1  0.52937000  0.64502000  0.56142000  1
  H  H12  1  0.72730000  0.48798000  0.78096000  1
  H  H13  1  0.91002000  0.35733000  0.92881000  1
  H  H14  1  0.61560000  0.61789000  0.19240000  1
  H  H15  1  0.95075000  0.69088000  0.84828000  1
  H  H16  1  0.36951000  0.70284000  0.13305000  1
  H  H17  1  0.07204000  0.75950000  0.04557000  1
  C  C18  1  0.04473000  0.79463000  0.49832000  1
  C  C19  1  0.19303000  0.61012000  0.81912000  1
  C  C20  1  0.06943000  0.95838000  0.50006000  1
  C  C21  1  0.11560000  0.53942000  0.70627000  1
  C  C22  1  0.93307000  0.04213000  0.50541000  1
  C  C23  1  0.95608000  0.20554000  0.50332000  1
  C  C24  1  0.88845000  0.48439000  0.29117000  1
  C  C25  1  0.84622000  0.41383000  0.98707000  1
  C  C26  1  0.82402000  0.47762000  0.17296000  1
  C  C27  1  0.08655000  0.67255000  0.88394000  1
  C  C28  1  0.15568000  0.71280000  0.99569000  1
  C  C29  1  0.43929000  0.62312000  0.97974000  1
  C  C30  1  0.32841000  0.68200000  0.04488000  1
  C  C31  1  0.04338000  0.28529000  0.13609000  1
  C  C32  1  0.19863000  0.29258000  0.09697000  1
  C  C33  1  0.32605000  0.18612000  0.12915000  1
  C  C34  1  0.29753000  0.06830000  0.19816000  1
  C  C35  1  0.14123000  0.05644000  0.23456000  1
  C  C36  1  0.01492000  0.16468000  0.20433000  1
  C  C37  1  0.37622000  0.61258000  0.86487000  1
  C  C38  1  0.60560000  0.56413000  0.02221000  1
  C  C39  1  0.70077000  0.49948000  0.94885000  1
  C  C40  1  0.65016000  0.52412000  0.83783000  1
  C  C41  1  0.49879000  0.59743000  0.79965000  1
  C  C42  1  0.67535000  0.55875000  0.13395000  1
  C  C43  1  0.90555000  0.39602000  0.09950000  1
  N  N44  1  0.43480000  0.45669000  0.47085000  1
  N  N45  1  0.56520000  0.54331000  0.52915000  1
  O  O46  1  0.89306000  0.73888000  0.50715000  1
  O  O47  1  0.17225000  0.71113000  0.48847000  1
  O  O48  1  0.94470000  0.52073000  0.66760000  1
  O  O49  1  0.22389000  0.49298000  0.64892000  1
  O  O50  1  0.82775000  0.28887000  0.51153000  1
  O  O51  1  0.10694000  0.26112000  0.49285000  1
  O  O52  1  0.77611000  0.50702000  0.35108000  1
  O  O53  1  0.05530000  0.47927000  0.33240000  1
