# generated using pymatgen
data_H10C14N3O4
_symmetry_space_group_name_H-M   'P 1'
_cell_length_a   25.11984236
_cell_length_b   25.94450000
_cell_length_c   39.90670000
_cell_angle_alpha   90.36510000
_cell_angle_beta   90.00000000
_cell_angle_gamma   118.95400000
_symmetry_Int_Tables_number   1
_chemical_formula_structural   H10C14N3O4
_chemical_formula_sum   'H80 C112 N24 O32'
_cell_volume   22756.67797389
_cell_formula_units_Z   8
loop_
 _symmetry_equiv_pos_site_id
 _symmetry_equiv_pos_as_xyz
  1  'x, y, z'
loop_
 _atom_site_type_symbol
 _atom_site_label
 _atom_site_symmetry_multiplicity
 _atom_site_fract_x
 _atom_site_fract_y
 _atom_site_fract_z
 _atom_site_occupancy
  C  1  1  0.70919550  0.29939850  0.93038100  1
  C  2  1  0.76627500  0.32267300  0.94692400  1
  C  3  1  0.78751950  0.28583550  0.96059300  1
  C  4  1  0.74791000  0.22423200  0.95940400  1
  C  5  1  0.68753800  0.19923000  0.94689800  1
  C  6  1  0.66903050  0.23709050  0.93036000  1
  C  9  1  0.69073400  0.33975200  0.91808900  1
  C  10  1  0.66874550  0.36913250  0.94002500  1
  C  11  1  0.64658150  0.40602750  0.92596700  1
  C  12  1  0.65067650  0.41503450  0.89079000  1
  C  13  1  0.67128300  0.38559900  0.86859700  1
  C  14  1  0.69027350  0.34739750  0.88290100  1
  C  23  1  0.67281050  0.39592150  0.83396000  1
  C  24  1  0.64606000  0.13910600  0.95375500  1
  C  25  1  0.84594800  0.30817000  0.97534400  1
  C  26  1  0.61679850  0.43020450  0.94572500  1
  C  31  1  0.23301150  0.66450150  0.43061400  1
  C  32  1  0.17613050  0.64141650  0.44717800  1
  C  33  1  0.15479150  0.67840850  0.46082300  1
  C  34  1  0.19417600  0.74001900  0.45962200  1
  C  35  1  0.25430850  0.76495050  0.44698700  1
  C  36  1  0.27285600  0.72686600  0.43044600  1
  C  39  1  0.25151400  0.62406300  0.41816700  1
  C  40  1  0.27339200  0.59477400  0.43999800  1
  C  41  1  0.29583800  0.55799100  0.42579200  1
  C  42  1  0.29209500  0.54896600  0.39054200  1
  C  43  1  0.27159600  0.57831800  0.36845500  1
  C  44  1  0.25229650  0.61638150  0.38293600  1
  C  53  1  0.27051650  0.56816150  0.33373000  1
  C  54  1  0.29565600  0.82532400  0.45376100  1
  C  55  1  0.09654000  0.65626600  0.47558500  1
  C  56  1  0.32573550  0.53413450  0.44551400  1
  C  61  1  0.38787450  0.66396450  0.04822400  1
  C  62  1  0.42323600  0.64104000  0.03298000  1
  C  63  1  0.47687750  0.67699450  0.01492500  1
  C  64  1  0.49573300  0.73784600  0.01322400  1
  C  65  1  0.46191400  0.76329000  0.02721200  1
  C  66  1  0.40699200  0.72569100  0.04513100  1
  C  69  1  0.33048850  0.62318050  0.06232000  1
  C  70  1  0.27954700  0.58501700  0.04160100  1
  C  71  1  0.22034600  0.55243000  0.05637800  1
  C  72  1  0.21341800  0.56058800  0.09093700  1
  C  73  1  0.26319950  0.59593650  0.11216500  1
  C  74  1  0.32130150  0.62693450  0.09724900  1
  C  83  1  0.25214300  0.60133200  0.14614000  1
  C  84  1  0.48149100  0.82354300  0.01998000  1
  C  85  1  0.51056700  0.65497400  0.99713600  1
  C  86  1  0.16843150  0.51093150  0.03814800  1
  C  91  1  0.55550450  0.30247850  0.54819400  1
  C  92  1  0.52014000  0.32525000  0.53296500  1
  C  93  1  0.46621200  0.28901800  0.51490300  1
  C  94  1  0.44706050  0.22806850  0.51320400  1
  C  95  1  0.48083200  0.20275300  0.52720700  1
  C  96  1  0.53607050  0.24062050  0.54509900  1
  C  99  1  0.61309600  0.34336300  0.56237000  1
  C  100  1  0.66386800  0.38105500  0.54173300  1
  C  101  1  0.72325600  0.41367200  0.55655800  1
  C  102  1  0.73053800  0.40593000  0.59106700  1
  C  103  1  0.68094050  0.37104450  0.61224000  1
  C  104  1  0.62265050  0.34008350  0.59727000  1
  C  113  1  0.69226350  0.36623850  0.64623500  1
  C  114  1  0.46096400  0.14231100  0.51992700  1
  C  115  1  0.43252050  0.31078050  0.49706100  1
  C  116  1  0.77498300  0.45489700  0.53842800  1
  C  121  1  0.66622000  0.36251000  0.77688100  1
  C  122  1  0.69573650  0.33802650  0.75742900  1
  C  123  1  0.69506000  0.33914600  0.72184600  1
  C  124  1  0.66226600  0.36254200  0.70440500  1
  C  125  1  0.63111050  0.38527350  0.72394300  1
  C  126  1  0.63311450  0.38552150  0.75950300  1
  C  137  1  0.27696250  0.60193150  0.27694100  1
  C  138  1  0.24791650  0.62708750  0.25786100  1
  C  139  1  0.24866850  0.62642850  0.22226700  1
  C  140  1  0.28108250  0.60281950  0.20444200  1
  C  141  1  0.31174100  0.57936800  0.22363800  1
  C  142  1  0.30967800  0.57868900  0.25919900  1
  C  153  1  0.62597450  0.04140050  0.97661800  1
  C  154  1  0.56163600  0.01049300  0.98012500  1
  C  155  1  0.53089800  0.95124300  0.99104500  1
  C  156  1  0.56306750  0.92003950  0.99769500  1
  C  157  1  0.62697000  0.95039400  0.99335400  1
  C  158  1  0.65799800  0.01043200  0.98391400  1
  C  169  1  0.57839450  0.50245750  0.95224800  1
  C  170  1  0.58812200  0.55616600  0.93806200  1
  C  171  1  0.56442250  0.59036150  0.95316800  1
  C  172  1  0.52709000  0.57007300  0.98210300  1
  C  173  1  0.51510700  0.51507400  0.99539200  1
  C  174  1  0.54162450  0.48248950  0.98141100  1
  C  185  1  0.93703400  0.39423800  0.00054400  1
  C  186  1  0.98328600  0.37819000  0.99661400  1
  C  187  1  0.04239450  0.41396350  0.01004900  1
  C  188  1  0.05567200  0.46422300  0.03008300  1
  C  189  1  0.00831300  0.47801100  0.03566900  1
  C  190  1  0.95091400  0.44522600  0.01985200  1
  C  201  1  0.31589050  0.92348050  0.47666000  1
  C  202  1  0.38030300  0.95457500  0.47999300  1
  C  203  1  0.41117200  0.01411600  0.49086800  1
  C  204  1  0.37903400  0.04538800  0.49766400  1
  C  205  1  0.31504500  0.01483900  0.49348500  1
  C  206  1  0.28391300  0.95454300  0.48408200  1
  C  217  1  0.36452600  0.46230600  0.45195700  1
  C  218  1  0.35484900  0.40834300  0.43772300  1
  C  219  1  0.37864050  0.37449350  0.45289100  1
  C  220  1  0.41607050  0.39540450  0.48193500  1
  C  221  1  0.42805650  0.45067350  0.49525900  1
  C  222  1  0.40140850  0.48290550  0.48122300  1
  C  233  1  0.00583350  0.57069350  0.50072400  1
  C  234  1  0.95953400  0.58668800  0.49694300  1
  C  235  1  0.90062600  0.55120200  0.51039500  1
  C  236  1  0.88759600  0.50129400  0.53028400  1
  C  237  1  0.93501600  0.48757400  0.53571400  1
  C  238  1  0.99219800  0.52006000  0.51989700  1
  H  7  1  0.79418050  0.36741450  0.94754100  1
  H  8  1  0.76158600  0.19736900  0.97093400  1
  H  15  1  0.63474050  0.44122550  0.88066600  1
  H  16  1  0.70561450  0.32575050  0.86740000  1
  H  19  1  0.60016600  0.23968000  0.90371000  1
  H  20  1  0.58901750  0.17315550  0.90967200  1
  H  21  1  0.66392900  0.38684700  0.99003400  1
  H  22  1  0.68296150  0.33592250  0.98390300  1
  H  27  1  0.67800650  0.43482050  0.82691200  1
  H  28  1  0.60141900  0.12468300  0.94917500  1
  H  29  1  0.86052800  0.27869600  0.98118100  1
  H  30  1  0.60435850  0.41497350  0.96932300  1
  H  37  1  0.14839000  0.59666900  0.44776900  1
  H  38  1  0.18042600  0.76708800  0.47105900  1
  H  45  1  0.30828250  0.52289750  0.38031300  1
  H  46  1  0.23707600  0.63800500  0.36751500  1
  H  49  1  0.34174600  0.72400700  0.40393300  1
  H  50  1  0.35227900  0.79050200  0.40957900  1
  H  51  1  0.27779900  0.57709900  0.48990600  1
  H  52  1  0.25894050  0.62810650  0.48404200  1
  H  57  1  0.26576500  0.52944000  0.32634800  1
  H  58  1  0.34022400  0.83981700  0.44906200  1
  H  59  1  0.08193900  0.68580600  0.48145600  1
  H  60  1  0.33803900  0.54956900  0.46921700  1
  H  67  1  0.40825600  0.59665000  0.03402500  1
  H  68  1  0.53390100  0.76395600  0.99954100  1
  H  75  1  0.17114300  0.53721100  0.10152200  1
  H  76  1  0.35740450  0.65505050  0.11192700  1
  H  79  1  0.33276650  0.72286050  0.06884000  1
  H  80  1  0.38527800  0.78938500  0.06041000  1
  H  81  1  0.25152450  0.56642950  0.99239200  1
  H  82  1  0.32421500  0.61023300  0.99642900  1
  H  87  1  0.21276850  0.59964350  0.15165500  1
  H  88  1  0.45296550  0.83989950  0.02497600  1
  H  89  1  0.54666500  0.68440200  0.98335300  1
  H  90  1  0.17487000  0.49338400  0.01662400  1
  H  97  1  0.53532550  0.36970150  0.53402300  1
  H  98  1  0.40871050  0.20172250  0.49949600  1
  H  105  1  0.77293400  0.42940800  0.60168700  1
  H  106  1  0.58664900  0.31228300  0.61187400  1
  H  109  1  0.61059350  0.24367550  0.56860900  1
  H  110  1  0.55759050  0.17703550  0.56036000  1
  H  111  1  0.69137200  0.39876800  0.49256200  1
  H  112  1  0.61868450  0.35531850  0.49648700  1
  H  117  1  0.73245100  0.36987500  0.65194400  1
  H  118  1  0.48946600  0.12596300  0.52488100  1
  H  119  1  0.39623650  0.28108250  0.48324800  1
  H  120  1  0.76832600  0.47210200  0.51697800  1
  H  128  1  0.76648250  0.34011250  0.70587300  1
  H  132  1  0.62430800  0.44779800  0.70409200  1
  H  133  1  0.69822400  0.27223200  0.77574700  1
  H  134  1  0.62068400  0.44753100  0.77588800  1
  H  144  1  0.17755600  0.62614600  0.20635700  1
  H  148  1  0.31781850  0.51663850  0.20300400  1
  H  149  1  0.24603800  0.69295600  0.27707100  1
  H  150  1  0.32133000  0.51602400  0.27472100  1
  H  160  1  0.45292600  0.90467000  0.97199400  1
  H  164  1  0.67085150  0.92769050  0.02277900  1
  H  165  1  0.50897000  0.02557900  0.95310000  1
  H  166  1  0.73698200  0.05644700  0.00184900  1
  H  176  1  0.61573550  0.67047250  0.94259100  1
  H  180  1  0.50443000  0.50871100  0.04242500  1
  H  181  1  0.66429400  0.60007700  0.91674300  1
  H  182  1  0.55056750  0.43702750  0.01556900  1
  H  192  1  0.08486150  0.37421650  0.02372600  1
  H  196  1  0.01104450  0.51424050  0.07729700  1
  H  197  1  0.96994450  0.30031650  0.99130200  1
  H  198  1  0.88510700  0.44223300  0.04445200  1
  H  208  1  0.48865800  0.06036000  0.47157300  1
  H  212  1  0.27171100  0.03821400  0.52308700  1
  H  213  1  0.43255600  0.93892000  0.45282900  1
  H  214  1  0.20534300  0.90890100  0.50222500  1
  H  224  1  0.32734950  0.29417550  0.44209800  1
  H  228  1  0.43890850  0.45802250  0.54232200  1
  H  229  1  0.27860750  0.36391250  0.41619200  1
  H  230  1  0.39271450  0.52909950  0.51540900  1
  H  240  1  0.85843200  0.59126700  0.52431200  1
  H  244  1  0.93287500  0.45209100  0.57722200  1
  H  245  1  0.97281800  0.66447200  0.49185800  1
  H  246  1  0.05833750  0.52346750  0.54437500  1
  N  17  1  0.61368650  0.21475250  0.91461400  1
  N  18  1  0.67001850  0.36206050  0.97400100  1
  N  47  1  0.32799150  0.74905350  0.41466400  1
  N  48  1  0.27188400  0.60190600  0.47401400  1
  N  77  1  0.37190700  0.74767400  0.05871400  1
  N  78  1  0.28602650  0.58516950  0.00746800  1
  N  107  1  0.57115600  0.21874200  0.55863100  1
  N  108  1  0.65701350  0.38034950  0.50760800  1
  N  135  1  0.66724900  0.35883700  0.81062700  1
  N  136  1  0.65738150  0.36370350  0.67067300  1
  N  151  1  0.27573900  0.60517100  0.31073100  1
  N  152  1  0.28588250  0.60177450  0.17068300  1
  N  167  1  0.65990000  0.09853900  0.96646600  1
  N  168  1  0.53727600  0.86296500  0.00818900  1
  N  183  1  0.60681350  0.47521950  0.93687800  1
  N  184  1  0.50175000  0.59917700  0.99860900  1
  N  199  1  0.87969300  0.36391900  0.98736900  1
  N  200  1  0.11108850  0.50136850  0.04389600  1
  N  215  1  0.28183950  0.86605750  0.46656400  1
  N  216  1  0.40495850  0.10271350  0.50817700  1
  N  231  1  0.33593150  0.48914450  0.43654300  1
  N  232  1  0.44147800  0.36666300  0.49852400  1
  N  247  1  0.06299850  0.60076250  0.48754100  1
  N  248  1  0.83236350  0.46442550  0.54409200  1
  O  127  1  0.72242600  0.31288200  0.70470100  1
  O  129  1  0.72710200  0.31439200  0.77301300  1
  O  130  1  0.59674600  0.40587800  0.70859500  1
  O  131  1  0.59896650  0.40423750  0.77693600  1
  O  143  1  0.22165100  0.65327100  0.20558500  1
  O  145  1  0.21688050  0.65091550  0.27380600  1
  O  146  1  0.34569600  0.55844600  0.20796600  1
  O  147  1  0.34341150  0.55929650  0.27631000  1
  O  159  1  0.46926100  0.92499200  0.99351500  1
  O  161  1  0.52742600  0.03753200  0.97552700  1
  O  162  1  0.65995950  0.92221750  0.99884200  1
  O  163  1  0.71956550  0.03734550  0.98020400  1
  O  175  1  0.57379950  0.64022650  0.93722100  1
  O  177  1  0.62165150  0.57640150  0.90952800  1
  O  178  1  0.47809650  0.49283850  0.02255100  1
  O  179  1  0.52598350  0.42914250  0.99505300  1
  O  191  1  0.08512950  0.39714650  0.00411700  1
  O  193  1  0.97416450  0.33215750  0.97640600  1
  O  194  1  0.01920000  0.52685000  0.05379700  1
  O  195  1  0.90815000  0.46261200  0.02433500  1
  O  207  1  0.47287700  0.04053100  0.49311100  1
  O  209  1  0.41454500  0.92754100  0.47528900  1
  O  210  1  0.28208600  0.04307200  0.49912300  1
  O  211  1  0.22226400  0.92743000  0.48054400  1
  O  223  1  0.36928900  0.32433000  0.43690400  1
  O  225  1  0.32121800  0.38748600  0.40909500  1
  O  226  1  0.46516350  0.47350450  0.52252100  1
  O  227  1  0.41708550  0.53655050  0.49490300  1
  O  239  1  0.85785400  0.56797900  0.50461800  1
  O  241  1  0.96836200  0.63234500  0.47686500  1
  O  242  1  0.92436350  0.43905250  0.55369400  1
  O  243  1  0.03500650  0.50272850  0.52423500  1
