# generated using pymatgen
data_H17C28N4O
_symmetry_space_group_name_H-M   'P 1'
_cell_length_a   9.98146667
_cell_length_b   41.61705000
_cell_length_c   41.61700000
_cell_angle_alpha   119.99988077
_cell_angle_beta   89.98130000
_cell_angle_gamma   89.99999996
_symmetry_Int_Tables_number   1
_chemical_formula_structural   H17C28N4O
_chemical_formula_sum   'H102 C168 N24 O6'
_cell_volume   14971.57692697
_cell_formula_units_Z   6
loop_
 _symmetry_equiv_pos_site_id
 _symmetry_equiv_pos_as_xyz
  1  'x, y, z'
loop_
 _atom_site_type_symbol
 _atom_site_label
 _atom_site_symmetry_multiplicity
 _atom_site_fract_x
 _atom_site_fract_y
 _atom_site_fract_z
 _atom_site_occupancy
  C  1  1  0.05072800  0.98686267  0.64048033  1
  C  2  1  0.04897000  0.94853667  0.62124633  1
  C  3  1  0.02348200  0.93666767  0.58395700  1
  C  5  1  0.02506100  0.99914667  0.61537433  1
  C  6  1  0.01127600  0.03687833  0.62479500  1
  C  7  1  0.99782500  0.04864333  0.59823967  1
  C  9  1  0.99624700  0.04856267  0.54441433  1
  C  10  1  0.96898100  0.08466033  0.57275567  1
  C  11  1  0.96932500  0.08467067  0.60589533  1
  C  12  1  0.00798500  0.03674967  0.50608967  1
  C  13  1  0.02437900  0.99922300  0.47766467  1
  C  15  1  0.02610700  0.93677933  0.44627867  1
  C  16  1  0.05268200  0.94903933  0.42119500  1
  C  17  1  0.05056800  0.98735933  0.44040500  1
  C  18  1  0.01122500  0.89906600  0.43681800  1
  C  19  1  0.99744100  0.88729367  0.46335867  1
  C  21  1  0.99592600  0.88734700  0.51717233  1
  C  22  1  0.96867000  0.85125667  0.48881967  1
  C  23  1  0.96879600  0.85127400  0.45569367  1
  C  24  1  0.00779300  0.89913233  0.55548700  1
  C  25  1  0.00174200  0.87125467  0.56578033  1
  C  26  1  0.87951500  0.86352333  0.57758467  1
  C  27  1  0.86880500  0.83305400  0.58333233  1
  C  28  1  0.97935500  0.80928833  0.57734600  1
  C  29  1  0.10293500  0.81829967  0.56695433  1
  C  30  1  0.11389600  0.84861233  0.56094967  1
  C  31  1  0.00740800  0.87118233  0.39846600  1
  C  32  1  0.89590500  0.86831233  0.37628200  1
  C  33  1  0.88429400  0.83830067  0.33983033  1
  C  34  1  0.98152500  0.80969733  0.32477467  1
  C  35  1  0.09622700  0.81375600  0.34653733  1
  C  36  1  0.10939700  0.84408967  0.38274733  1
  C  37  1  0.00170300  0.06458900  0.49575033  1
  C  38  1  0.11395100  0.08711600  0.50033067  1
  C  39  1  0.10289100  0.11733100  0.49417733  1
  C  40  1  0.97927000  0.12628300  0.48376133  1
  C  41  1  0.86863400  0.10262033  0.47802367  1
  C  42  1  0.87935500  0.07229100  0.48399267  1
  C  43  1  0.00776300  0.06480667  0.66314000  1
  C  44  1  0.11000900  0.09181800  0.67875833  1
  C  45  1  0.89611600  0.06787100  0.68537667  1
  C  46  1  0.88459400  0.09800833  0.72176467  1
  C  47  1  0.98197500  0.12656567  0.73667700  1
  C  48  1  0.09696000  0.12226867  0.71490767  1
  C  75  1  0.05375800  0.55918433  0.01145300  1
  C  76  1  0.05173600  0.57827533  0.04977567  1
  C  77  1  0.02530100  0.55287933  0.06162033  1
  C  79  1  0.02724400  0.52183633  0.99917567  1
  C  80  1  0.01218200  0.49359767  0.96146333  1
  C  81  1  0.99810500  0.45529200  0.94968900  1
  C  83  1  0.99648600  0.40152567  0.94972067  1
  C  84  1  0.96885600  0.39381100  0.91365867  1
  C  85  1  0.96915700  0.42695933  0.91368300  1
  C  86  1  0.00828900  0.37499433  0.96150233  1
  C  87  1  0.02444400  0.38406933  0.99902600  1
  C  89  1  0.02617800  0.41510900  0.06148133  1
  C  90  1  0.05240100  0.37774367  0.04919533  1
  C  91  1  0.05063300  0.35866233  0.01087133  1
  C  92  1  0.01166500  0.44337933  0.09920367  1
  C  93  1  0.99784100  0.48168967  0.11097033  1
  C  95  1  0.99625700  0.53544300  0.11091133  1
  C  96  1  0.96851600  0.54317167  0.14697833  1
  C  97  1  0.96882100  0.51003333  0.14697200  1
  C  98  1  0.00834400  0.56197000  0.09912833  1
  C  99  1  0.00214300  0.60014200  0.12699567  1
  C  100  1  0.87979600  0.61962067  0.13472533  1
  C  101  1  0.86890600  0.65583533  0.16519367  1
  C  102  1  0.97937000  0.67365933  0.18896333  1
  C  103  1  0.10302000  0.65429067  0.17996933  1
  C  104  1  0.11425200  0.61800833  0.14961367  1
  C  105  1  0.00786000  0.43292067  0.12709567  1
  C  106  1  0.89638100  0.41360800  0.12999733  1
  C  107  1  0.88479900  0.40718500  0.16002167  1
  C  108  1  0.98201100  0.42076333  0.18861467  1
  C  109  1  0.09677800  0.43842500  0.18450767  1
  C  110  1  0.10979300  0.44433967  0.15419133  1
  C  111  1  0.00198900  0.33682233  0.93364000  1
  C  112  1  0.11413700  0.31889333  0.91103933  1
  C  113  1  0.10299000  0.28254167  0.88080533  1
  C  114  1  0.97937600  0.26317300  0.87190933  1
  C  115  1  0.86884100  0.28107800  0.89564033  1
  C  116  1  0.87965000  0.31736067  0.92599033  1
  C  117  1  0.00872600  0.50404800  0.93356633  1
  C  118  1  0.11074900  0.49255200  0.90646633  1
  C  119  1  0.89723700  0.52330500  0.93058100  1
  C  120  1  0.88569700  0.52957867  0.90046033  1
  C  121  1  0.98286200  0.51584933  0.87182900  1
  C  122  1  0.09764500  0.49825400  0.87602167  1
  C  149  1  0.05200100  0.35778500  0.43901200  1
  C  150  1  0.05035200  0.37704233  0.41994467  1
  C  151  1  0.02449500  0.41431400  0.44537400  1
  C  153  1  0.02626700  0.38287967  0.47640567  1
  C  154  1  0.01201100  0.37342500  0.50468200  1
  C  155  1  0.99832200  0.39995867  0.54300367  1
  C  157  1  0.99676300  0.45376500  0.59677400  1
  C  158  1  0.96970800  0.42540200  0.60451200  1
  C  159  1  0.96992700  0.39227867  0.57136467  1
  C  160  1  0.00860100  0.49207833  0.62330767  1
  C  161  1  0.02438400  0.52055033  0.61424867  1
  C  163  1  0.02584300  0.55199333  0.58321733  1
  C  164  1  0.05162600  0.57708600  0.62060400  1
  C  165  1  0.04987000  0.55783867  0.63968067  1
  C  166  1  0.01179700  0.56144300  0.55493467  1
  C  167  1  0.99832200  0.53490967  0.51661100  1
  C  169  1  0.99677800  0.48109900  0.46284433  1
  C  170  1  0.96953100  0.50946067  0.45511633  1
  C  171  1  0.96982300  0.54258767  0.48825933  1
  C  172  1  0.00849100  0.44277833  0.43631167  1
  C  173  1  0.00235300  0.43249033  0.39814200  1
  C  174  1  0.88001000  0.42076067  0.37867633  1
  C  175  1  0.86917200  0.41501700  0.34246467  1
  C  176  1  0.97968500  0.42095100  0.32463033  1
  C  177  1  0.10332600  0.43130500  0.34398200  1
  C  178  1  0.11449700  0.43724167  0.38026833  1
  C  179  1  0.00801000  0.59979700  0.56540133  1
  C  180  1  0.89638100  0.62198000  0.58466633  1
  C  181  1  0.88483500  0.65843833  0.59112100  1
  C  182  1  0.98210100  0.67346633  0.57755367  1
  C  183  1  0.09691500  0.65170567  0.55990033  1
  C  184  1  0.11015300  0.61551533  0.55407800  1
  C  185  1  0.00235400  0.50238567  0.66148067  1
  C  186  1  0.11453200  0.49773100  0.67939200  1
  C  187  1  0.10351700  0.50392167  0.71577567  1
  C  188  1  0.97989600  0.51435900  0.73516500  1
  C  189  1  0.86928600  0.52013533  0.71726333  1
  C  190  1  0.88001100  0.51416700  0.68096533  1
  C  191  1  0.00838000  0.33507500  0.49423300  1
  C  192  1  0.11056500  0.31940600  0.50558900  1
  C  193  1  0.89669100  0.31288700  0.47506800  1
  C  194  1  0.88499100  0.27650667  0.46882467  1
  C  195  1  0.98235000  0.26153100  0.48241200  1
  C  196  1  0.09730500  0.28327133  0.49991167  1
  C  223  1  0.96666700  0.70901000  0.22195467  1
  C  224  1  0.84800600  0.72116200  0.24332433  1
  C  225  1  0.84466600  0.75519633  0.27735233  1
  C  226  1  0.96404200  0.77677233  0.28961900  1
  C  230  1  0.73031300  0.76468667  0.29927133  1
  C  231  1  0.60716500  0.77267100  0.28603367  1
  C  236  1  0.96704200  0.41856000  0.28926767  1
  C  237  1  0.84842700  0.42780567  0.27713967  1
  C  238  1  0.84509600  0.42782967  0.24311800  1
  C  239  1  0.96456700  0.41856467  0.22156000  1
  C  243  1  0.73075400  0.44036100  0.23366767  1
  C  244  1  0.60799100  0.41901667  0.22569033  1
  C  249  1  0.96681200  0.77629700  0.57970733  1
  C  250  1  0.84823700  0.75491033  0.57050167  1
  C  251  1  0.84502800  0.72087133  0.57048767  1
  C  252  1  0.96456200  0.70859233  0.57971867  1
  C  256  1  0.73062000  0.69896467  0.55810633  1
  C  257  1  0.60670000  0.71205733  0.57888767  1
  C  262  1  0.96681600  0.22768900  0.83908967  1
  C  263  1  0.84829800  0.21544333  0.81769033  1
  C  264  1  0.84501500  0.18125800  0.78381433  1
  C  265  1  0.96441900  0.15966533  0.77169300  1
  C  269  1  0.73085000  0.17170033  0.76183967  1
  C  270  1  0.60738600  0.16393333  0.77514667  1
  C  275  1  0.96743400  0.51703100  0.77066100  1
  C  276  1  0.84880300  0.50805567  0.78303867  1
  C  277  1  0.84570900  0.50833800  0.81721233  1
  C  278  1  0.96521900  0.51777800  0.83874433  1
  C  282  1  0.73136000  0.49608333  0.82691267  1
  C  283  1  0.60741100  0.51682267  0.83446800  1
  C  288  1  0.96679200  0.15911233  0.48110700  1
  C  289  1  0.84834700  0.18055600  0.49027933  1
  C  290  1  0.84524600  0.21445433  0.49001433  1
  C  291  1  0.96466200  0.22651600  0.48048200  1
  C  295  1  0.73094000  0.23642400  0.50233400  1
  C  296  1  0.60689900  0.22326833  0.48165433  1
  H  49  1  0.16932800  0.14236467  0.72437133  1
  H  50  1  0.19138500  0.09053933  0.66319267  1
  H  51  1  0.80212100  0.09930033  0.73690533  1
  H  52  1  0.82019500  0.04882900  0.67481767  1
  H  53  1  0.06583700  0.00280633  0.66842200  1
  H  54  1  0.06263700  0.93232400  0.63301167  1
  H  55  1  0.98368800  0.96807300  0.55972067  1
  H  56  1  0.98237000  0.96783600  0.50176667  1
  H  57  1  0.95057600  0.10746300  0.63117067  1
  H  58  1  0.95052200  0.10742300  0.57018967  1
  H  59  1  0.20311500  0.08249900  0.50948233  1
  H  60  1  0.18510200  0.13387933  0.49930200  1
  H  61  1  0.79613600  0.05661100  0.48085533  1
  H  62  1  0.77790700  0.10740400  0.46981767  1
  H  63  1  0.06387200  0.00356633  0.42861767  1
  H  64  1  0.06696900  0.93309333  0.39321667  1
  H  65  1  0.95001100  0.82849967  0.49137900  1
  H  66  1  0.95000000  0.82849567  0.43041633  1
  H  67  1  0.82024500  0.88744133  0.38690600  1
  H  68  1  0.80207600  0.83719033  0.32469967  1
  H  69  1  0.19072200  0.84524333  0.39826200  1
  H  70  1  0.16859200  0.79364933  0.33695067  1
  H  71  1  0.20300500  0.85326733  0.55179267  1
  H  72  1  0.18503800  0.80166667  0.56162167  1
  H  73  1  0.77809200  0.82821833  0.59151267  1
  H  74  1  0.79626400  0.87922733  0.58081900  1
  H  123  1  0.16988400  0.48756900  0.85587967  1
  H  124  1  0.19198000  0.47818800  0.90767733  1
  H  125  1  0.80336900  0.54350900  0.89923467  1
  H  126  1  0.82153300  0.53188500  0.94970667  1
  H  127  1  0.06781000  0.57123467  0.99551533  1
  H  128  1  0.06436500  0.60629300  0.06598767  1
  H  129  1  0.98303200  0.49741300  0.03020800  1
  H  130  1  0.98348300  0.43961333  0.03040367  1
  H  131  1  0.95036100  0.42947300  0.89091367  1
  H  132  1  0.95017500  0.36850033  0.89089967  1
  H  133  1  0.20333600  0.33264900  0.91565833  1
  H  134  1  0.18518300  0.27109167  0.86424600  1
  H  135  1  0.79647100  0.32990467  0.94170267  1
  H  136  1  0.77810700  0.26809367  0.89088200  1
  H  137  1  0.06373300  0.33066067  0.99465433  1
  H  138  1  0.06701300  0.36571200  0.06512700  1
  H  139  1  0.94987500  0.56849000  0.16973667  1
  H  140  1  0.94996100  0.50753133  0.16974867  1
  H  141  1  0.82075100  0.40506800  0.11086767  1
  H  142  1  0.80259200  0.39316533  0.16115567  1
  H  143  1  0.19113000  0.45869167  0.15301700  1
  H  144  1  0.16899800  0.44902633  0.20464067  1
  H  145  1  0.20337700  0.60421400  0.14499133  1
  H  146  1  0.18510200  0.66565000  0.19658433  1
  H  147  1  0.77813300  0.66881700  0.17002767  1
  H  148  1  0.79660100  0.60711433  0.11902467  1
  H  197  1  0.16977500  0.27373933  0.51045033  1
  H  198  1  0.19200100  0.33493300  0.51985700  1
  H  199  1  0.80253800  0.26138667  0.45495667  1
  H  200  1  0.82080200  0.32349367  0.46662467  1
  H  201  1  0.06678800  0.32982700  0.42698300  1
  H  202  1  0.06343100  0.36526100  0.39194200  1
  H  203  1  0.98385900  0.43848567  0.50093967  1
  H  204  1  0.98445500  0.49634100  0.55862200  1
  H  205  1  0.95140400  0.36699100  0.56887300  1
  H  206  1  0.95139800  0.42794300  0.62983700  1
  H  207  1  0.20374700  0.48861633  0.66562733  1
  H  208  1  0.18569800  0.49877067  0.72718567  1
  H  209  1  0.79680200  0.51733567  0.66844567  1
  H  210  1  0.77854800  0.52835267  0.73026167  1
  H  211  1  0.06322200  0.56961333  0.66767133  1
  H  212  1  0.06629200  0.60504800  0.63263700  1
  H  213  1  0.95121200  0.50692100  0.42979467  1
  H  214  1  0.95123700  0.56787533  0.49075567  1
  H  215  1  0.82064000  0.61136500  0.59315467  1
  H  216  1  0.80247200  0.67355833  0.60508167  1
  H  217  1  0.19145400  0.59998467  0.53969167  1
  H  218  1  0.16925800  0.66127100  0.54935167  1
  H  219  1  0.20366600  0.44635200  0.39403933  1
  H  220  1  0.18549800  0.43651500  0.33260433  1
  H  221  1  0.77841100  0.40687033  0.32948867  1
  H  222  1  0.79678700  0.41756800  0.39118867  1
  H  229  1  0.76571000  0.70425067  0.23524967  1
  H  232  1  0.62683200  0.79020900  0.27392433  1
  H  233  1  0.53749600  0.78747600  0.30910233  1
  H  234  1  0.55944700  0.74706100  0.26513467  1
  H  242  1  0.76619900  0.43671067  0.29408700  1
  H  245  1  0.62780900  0.38939633  0.20800067  1
  H  246  1  0.53794700  0.42737733  0.21106067  1
  H  247  1  0.56064300  0.42357467  0.25129600  1
  H  255  1  0.76578400  0.76301167  0.56174900  1
  H  258  1  0.62522900  0.72442900  0.60861167  1
  H  259  1  0.53763600  0.68886633  0.57057300  1
  H  260  1  0.55899000  0.73270833  0.57379767  1
  H  268  1  0.76604900  0.23237667  0.82563567  1
  H  271  1  0.62663100  0.14656733  0.78747033  1
  H  272  1  0.53788100  0.14903067  0.75207433  1
  H  273  1  0.55969700  0.18963967  0.79589167  1
  H  281  1  0.76644500  0.49908267  0.76616033  1
  H  284  1  0.62591000  0.54657033  0.85164033  1
  H  285  1  0.53838200  0.50866167  0.84948500  1
  H  286  1  0.55967200  0.51152967  0.80866600  1
  H  294  1  0.76594500  0.17261600  0.49921867  1
  H  297  1  0.62526800  0.21069700  0.45190000  1
  H  298  1  0.53791200  0.24646200  0.48985600  1
  H  299  1  0.55917100  0.20276533  0.48696567  1
  N  4  1  0.01162000  0.96798800  0.58182167  1
  N  8  1  0.01297800  0.02801700  0.56102433  1
  N  14  1  0.01303900  0.96792600  0.47986567  1
  N  20  1  0.01280700  0.90789267  0.50056567  1
  N  78  1  0.01395000  0.51939167  0.03031433  1
  N  82  1  0.01352900  0.43866833  0.97027067  1
  N  88  1  0.01289900  0.41754300  0.03034467  1
  N  94  1  0.01331300  0.49829700  0.09037267  1
  N  152  1  0.01296300  0.41645233  0.47884100  1
  N  156  1  0.01351900  0.43717167  0.55961767  1
  N  162  1  0.01250700  0.51843033  0.58080333  1
  N  168  1  0.01346500  0.49769367  0.49999867  1
  N  227  1  0.07382100  0.76292133  0.26745000  1
  N  228  1  0.07517200  0.73154133  0.23606900  1
  N  240  1  0.07427100  0.41018600  0.23536533  1
  N  241  1  0.07556000  0.41015033  0.26672667  1
  N  253  1  0.07426700  0.73076800  0.58802133  1
  N  254  1  0.07544800  0.76216333  0.58805167  1
  N  266  1  0.07407200  0.17361167  0.79387000  1
  N  267  1  0.07531900  0.20511800  0.82512467  1
  N  279  1  0.07490800  0.52588833  0.82469267  1
  N  280  1  0.07607000  0.52558700  0.79316300  1
  N  292  1  0.07426800  0.20430933  0.47226233  1
  N  293  1  0.07539400  0.17305500  0.47251367  1
  O  235  1  0.71621700  0.74873767  0.31704067  1
  O  248  1  0.71815500  0.47411400  0.24969733  1
  O  261  1  0.71928300  0.68084700  0.52431333  1
  O  274  1  0.71726000  0.18743433  0.74384933  1
  O  287  1  0.72006400  0.46230100  0.81146900  1
  O  300  1  0.71979300  0.25475133  0.53612433  1
