# generated using pymatgen
data_Cu2H15C20NO6
_symmetry_space_group_name_H-M   'P 1'
_cell_length_a   9.66639000
_cell_length_b   19.52893000
_cell_length_c   25.55971000
_cell_angle_alpha   90.00000000
_cell_angle_beta   90.01794000
_cell_angle_gamma   90.00000000
_symmetry_Int_Tables_number   1
_chemical_formula_structural   Cu2H15C20NO6
_chemical_formula_sum   'Cu16 H120 C160 N8 O48'
_cell_volume   4825.01494256
_cell_formula_units_Z   8
loop_
 _symmetry_equiv_pos_site_id
 _symmetry_equiv_pos_as_xyz
  1  'x, y, z'
loop_
 _atom_site_type_symbol
 _atom_site_label
 _atom_site_symmetry_multiplicity
 _atom_site_fract_x
 _atom_site_fract_y
 _atom_site_fract_z
 _atom_site_occupancy
  Cu  Cu0  1  0.39312000  0.44910000  0.52551000  1
  Cu  Cu1  1  0.19287000  0.55491000  0.56649000  1
  Cu  Cu2  1  0.10688000  0.44910000  0.47449000  1
  Cu  Cu3  1  0.30713000  0.55491000  0.43351000  1
  Cu  Cu4  1  0.10691000  0.05164000  0.02561000  1
  Cu  Cu5  1  0.30628000  0.94531000  0.06643000  1
  Cu  Cu6  1  0.39309000  0.05163000  0.97439000  1
  Cu  Cu7  1  0.19372000  0.94531000  0.93357000  1
  Cu  Cu8  1  0.60689000  0.55090000  0.47449000  1
  Cu  Cu9  1  0.80713000  0.44509000  0.43351000  1
  Cu  Cu10  1  0.89312000  0.55090000  0.52551000  1
  Cu  Cu11  1  0.69287000  0.44509000  0.56649000  1
  Cu  Cu12  1  0.89309000  0.94837000  0.97439000  1
  Cu  Cu13  1  0.69372000  0.05469000  0.93357000  1
  Cu  Cu14  1  0.60692000  0.94837000  0.02561000  1
  Cu  Cu15  1  0.80628000  0.05469000  0.06643000  1
  H  H16  1  0.17720000  0.18142000  0.54155000  1
  H  H17  1  0.07114000  0.07624000  0.50435000  1
  H  H18  1  0.04263000  0.97220000  0.56011000  1
  H  H19  1  0.24153000  0.07576000  0.68787000  1
  H  H20  1  0.26280000  0.18112000  0.63328000  1
  H  H21  1  0.33828000  0.93053000  0.59799000  1
  H  H22  1  0.39868000  0.81683000  0.56075000  1
  H  H23  1  0.04341000  0.72827000  0.63489000  1
  H  H24  1  0.98103000  0.84166000  0.67240000  1
  H  H25  1  0.16228000  0.87434000  0.74042000  1
  H  H26  1  0.07255000  0.88973000  0.83024000  1
  H  H27  1  0.85713000  0.07134000  0.78167000  1
  H  H28  1  0.94959000  0.05806000  0.69192000  1
  H  H29  1  0.15847000  0.42326000  0.57299000  1
  H  H30  1  0.59766000  0.38736000  0.48493000  1
  H  H31  1  0.32281000  0.18142000  0.45845000  1
  H  H32  1  0.42886000  0.07624000  0.49565000  1
  H  H33  1  0.45737000  0.97220000  0.43988000  1
  H  H34  1  0.25847000  0.07576000  0.31212000  1
  H  H35  1  0.23720000  0.18112000  0.36671000  1
  H  H36  1  0.16172000  0.93053000  0.40201000  1
  H  H37  1  0.10132000  0.81683000  0.43924000  1
  H  H38  1  0.45659000  0.72827000  0.36511000  1
  H  H39  1  0.51897000  0.84166000  0.32760000  1
  H  H40  1  0.33773000  0.87434000  0.25958000  1
  H  H41  1  0.42745000  0.88973000  0.16976000  1
  H  H42  1  0.64287000  0.07134000  0.21833000  1
  H  H43  1  0.55041000  0.05806000  0.30808000  1
  H  H44  1  0.34153000  0.42326000  0.42701000  1
  H  H45  1  0.90234000  0.38736000  0.51507000  1
  H  H46  1  0.32283000  0.31863000  0.04158000  1
  H  H47  1  0.42890000  0.42381000  0.00440000  1
  H  H48  1  0.45747000  0.52784000  0.06016000  1
  H  H49  1  0.25856000  0.42430000  0.18789000  1
  H  H50  1  0.23722000  0.31895000  0.13330000  1
  H  H51  1  0.16194000  0.56956000  0.09802000  1
  H  H52  1  0.10156000  0.68321000  0.06075000  1
  H  H53  1  0.45688000  0.77180000  0.13492000  1
  H  H54  1  0.51912000  0.65841000  0.17249000  1
  H  H55  1  0.33860000  0.62557000  0.24070000  1
  H  H56  1  0.42813000  0.60971000  0.33046000  1
  H  H57  1  0.64305000  0.42815000  0.28148000  1
  H  H58  1  0.55055000  0.44184000  0.19176000  1
  H  H59  1  0.34183000  0.07739000  0.07296000  1
  H  H60  1  0.90214000  0.11248000  0.98504000  1
  H  H61  1  0.17717000  0.31863000  0.95841000  1
  H  H62  1  0.07111000  0.42381000  0.99560000  1
  H  H63  1  0.04253000  0.52784000  0.93984000  1
  H  H64  1  0.24145000  0.42430000  0.81211000  1
  H  H65  1  0.26278000  0.31895000  0.86670000  1
  H  H66  1  0.33807000  0.56956000  0.90198000  1
  H  H67  1  0.39844000  0.68321000  0.93925000  1
  H  H68  1  0.04313000  0.77180000  0.86507000  1
  H  H69  1  0.98089000  0.65841000  0.82751000  1
  H  H70  1  0.16140000  0.62557000  0.75930000  1
  H  H71  1  0.07187000  0.60971000  0.66953000  1
  H  H72  1  0.85695000  0.42815000  0.71851000  1
  H  H73  1  0.94945000  0.44184000  0.80824000  1
  H  H74  1  0.15817000  0.07739000  0.92704000  1
  H  H75  1  0.59787000  0.11248000  0.01495000  1
  H  H76  1  0.82281000  0.81858000  0.45845000  1
  H  H77  1  0.92886000  0.92376000  0.49565000  1
  H  H78  1  0.95737000  0.02780000  0.43988000  1
  H  H79  1  0.75848000  0.92424000  0.31212000  1
  H  H80  1  0.73720000  0.81888000  0.36671000  1
  H  H81  1  0.66172000  0.06947000  0.40201000  1
  H  H82  1  0.60132000  0.18318000  0.43924000  1
  H  H83  1  0.95659000  0.27173000  0.36511000  1
  H  H84  1  0.01897000  0.15834000  0.32760000  1
  H  H85  1  0.83773000  0.12566000  0.25958000  1
  H  H86  1  0.92745000  0.11027000  0.16976000  1
  H  H87  1  0.14287000  0.92866000  0.21833000  1
  H  H88  1  0.05041000  0.94194000  0.30808000  1
  H  H89  1  0.84153000  0.57674000  0.42701000  1
  H  H90  1  0.40234000  0.61264000  0.51507000  1
  H  H91  1  0.67720000  0.81858000  0.54155000  1
  H  H92  1  0.57114000  0.92376000  0.50435000  1
  H  H93  1  0.54263000  0.02780000  0.56011000  1
  H  H94  1  0.74153000  0.92424000  0.68787000  1
  H  H95  1  0.76280000  0.81888000  0.63328000  1
  H  H96  1  0.83828000  0.06947000  0.59799000  1
  H  H97  1  0.89868000  0.18318000  0.56075000  1
  H  H98  1  0.54341000  0.27173000  0.63489000  1
  H  H99  1  0.48103000  0.15834000  0.67240000  1
  H  H100  1  0.66228000  0.12566000  0.74042000  1
  H  H101  1  0.57255000  0.11027000  0.83024000  1
  H  H102  1  0.35713000  0.92866000  0.78167000  1
  H  H103  1  0.44959000  0.94194000  0.69192000  1
  H  H104  1  0.65847000  0.57674000  0.57299000  1
  H  H105  1  0.09766000  0.61264000  0.48493000  1
  H  H106  1  0.67717000  0.68137000  0.95841000  1
  H  H107  1  0.57111000  0.57619000  0.99560000  1
  H  H108  1  0.54253000  0.47216000  0.93984000  1
  H  H109  1  0.74145000  0.57570000  0.81211000  1
  H  H110  1  0.76278000  0.68105000  0.86670000  1
  H  H111  1  0.83807000  0.43044000  0.90198000  1
  H  H112  1  0.89844000  0.31679000  0.93925000  1
  H  H113  1  0.54313000  0.22820000  0.86507000  1
  H  H114  1  0.48088000  0.34159000  0.82751000  1
  H  H115  1  0.66140000  0.37443000  0.75930000  1
  H  H116  1  0.57187000  0.39029000  0.66953000  1
  H  H117  1  0.35695000  0.57185000  0.71851000  1
  H  H118  1  0.44945000  0.55816000  0.80824000  1
  H  H119  1  0.65817000  0.92261000  0.92704000  1
  H  H120  1  0.09787000  0.88752000  0.01495000  1
  H  H121  1  0.82283000  0.68137000  0.04158000  1
  H  H122  1  0.92890000  0.57619000  0.00440000  1
  H  H123  1  0.95747000  0.47216000  0.06016000  1
  H  H124  1  0.75856000  0.57570000  0.18789000  1
  H  H125  1  0.73723000  0.68105000  0.13330000  1
  H  H126  1  0.66194000  0.43044000  0.09802000  1
  H  H127  1  0.60156000  0.31679000  0.06075000  1
  H  H128  1  0.95688000  0.22820000  0.13492000  1
  H  H129  1  0.01912000  0.34159000  0.17249000  1
  H  H130  1  0.83860000  0.37443000  0.24070000  1
  H  H131  1  0.92813000  0.39029000  0.33046000  1
  H  H132  1  0.14305000  0.57185000  0.28148000  1
  H  H133  1  0.05055000  0.55816000  0.19176000  1
  H  H134  1  0.84183000  0.92261000  0.07296000  1
  H  H135  1  0.40214000  0.88752000  0.98504000  1
  C  C136  1  0.16808000  0.13548000  0.56536000  1
  C  C137  1  0.10790000  0.07635000  0.54456000  1
  C  C138  1  0.09206000  0.01800000  0.57547000  1
  C  C139  1  0.13908000  0.01802000  0.62738000  1
  C  C140  1  0.20296000  0.07665000  0.64789000  1
  C  C141  1  0.21530000  0.13533000  0.61706000  1
  C  C142  1  0.15582000  0.89367000  0.63811000  1
  C  C143  1  0.27343000  0.88634000  0.60622000  1
  C  C144  1  0.30742000  0.82267000  0.58520000  1
  C  C145  1  0.22593000  0.76498000  0.59579000  1
  C  C146  1  0.10797000  0.77277000  0.62742000  1
  C  C147  1  0.07277000  0.83611000  0.64822000  1
  C  C148  1  0.06430000  0.96545000  0.70970000  1
  C  C149  1  0.09549000  0.91752000  0.74929000  1
  C  C150  1  0.04429000  0.92580000  0.79960000  1
  C  C151  1  0.95828000  0.98158000  0.81185000  1
  C  C152  1  0.92520000  0.02882000  0.77227000  1
  C  C153  1  0.97687000  0.02112000  0.72199000  1
  C  C154  1  0.90080000  0.99014000  0.86496000  1
  C  C155  1  0.26265000  0.69589000  0.57437000  1
  C  C156  1  0.33192000  0.13548000  0.43464000  1
  C  C157  1  0.39210000  0.07635000  0.45544000  1
  C  C158  1  0.40794000  0.01800000  0.42453000  1
  C  C159  1  0.36092000  0.01802000  0.37261000  1
  C  C160  1  0.29705000  0.07665000  0.35211000  1
  C  C161  1  0.28470000  0.13533000  0.38294000  1
  C  C162  1  0.34418000  0.89367000  0.36189000  1
  C  C163  1  0.22658000  0.88634000  0.39378000  1
  C  C164  1  0.19258000  0.82267000  0.41480000  1
  C  C165  1  0.27407000  0.76498000  0.40421000  1
  C  C166  1  0.39203000  0.77277000  0.37258000  1
  C  C167  1  0.42724000  0.83611000  0.35178000  1
  C  C168  1  0.43570000  0.96545000  0.29030000  1
  C  C169  1  0.40451000  0.91752000  0.25071000  1
  C  C170  1  0.45571000  0.92580000  0.20039000  1
  C  C171  1  0.54173000  0.98158000  0.18814000  1
  C  C172  1  0.57480000  0.02882000  0.22773000  1
  C  C173  1  0.52313000  0.02112000  0.27801000  1
  C  C174  1  0.59920000  0.99014000  0.13504000  1
  C  C175  1  0.23736000  0.69589000  0.42562000  1
  C  C176  1  0.33196000  0.36457000  0.06539000  1
  C  C177  1  0.39215000  0.42371000  0.04460000  1
  C  C178  1  0.40803000  0.48206000  0.07552000  1
  C  C179  1  0.36102000  0.48205000  0.12742000  1
  C  C180  1  0.29710000  0.42341000  0.14791000  1
  C  C181  1  0.28474000  0.36473000  0.11708000  1
  C  C182  1  0.34438000  0.60640000  0.13818000  1
  C  C183  1  0.22679000  0.61374000  0.10625000  1
  C  C184  1  0.19281000  0.67741000  0.08522000  1
  C  C185  1  0.27422000  0.73512000  0.09581000  1
  C  C186  1  0.39221000  0.72733000  0.12745000  1
  C  C187  1  0.42739000  0.66398000  0.14829000  1
  C  C188  1  0.43607000  0.53448000  0.20975000  1
  C  C189  1  0.40520000  0.58227000  0.24947000  1
  C  C190  1  0.45640000  0.57371000  0.29978000  1
  C  C191  1  0.54233000  0.51781000  0.31184000  1
  C  C192  1  0.57516000  0.47075000  0.27213000  1
  C  C193  1  0.52339000  0.47870000  0.22189000  1
  C  C194  1  0.60015000  0.50871000  0.36482000  1
  C  C195  1  0.23728000  0.80417000  0.07435000  1
  C  C196  1  0.16804000  0.36457000  0.93461000  1
  C  C197  1  0.10785000  0.42371000  0.95539000  1
  C  C198  1  0.09198000  0.48206000  0.92448000  1
  C  C199  1  0.13899000  0.48205000  0.87257000  1
  C  C200  1  0.20290000  0.42341000  0.85209000  1
  C  C201  1  0.21527000  0.36473000  0.88292000  1
  C  C202  1  0.15563000  0.60640000  0.86182000  1
  C  C203  1  0.27321000  0.61374000  0.89374000  1
  C  C204  1  0.30720000  0.67741000  0.91478000  1
  C  C205  1  0.22578000  0.73512000  0.90419000  1
  C  C206  1  0.10779000  0.72733000  0.87254000  1
  C  C207  1  0.07262000  0.66398000  0.85171000  1
  C  C208  1  0.06393000  0.53448000  0.79024000  1
  C  C209  1  0.09480000  0.58227000  0.75053000  1
  C  C210  1  0.04360000  0.57371000  0.70021000  1
  C  C211  1  0.95767000  0.51781000  0.68816000  1
  C  C212  1  0.92484000  0.47075000  0.72786000  1
  C  C213  1  0.97661000  0.47870000  0.77810000  1
  C  C214  1  0.89986000  0.50871000  0.63518000  1
  C  C215  1  0.26272000  0.80417000  0.92565000  1
  C  C216  1  0.83192000  0.86452000  0.43464000  1
  C  C217  1  0.89210000  0.92366000  0.45544000  1
  C  C218  1  0.90794000  0.98200000  0.42453000  1
  C  C219  1  0.86092000  0.98198000  0.37261000  1
  C  C220  1  0.79705000  0.92335000  0.35211000  1
  C  C221  1  0.78470000  0.86467000  0.38294000  1
  C  C222  1  0.84418000  0.10633000  0.36189000  1
  C  C223  1  0.72658000  0.11366000  0.39378000  1
  C  C224  1  0.69259000  0.17733000  0.41480000  1
  C  C225  1  0.77407000  0.23502000  0.40421000  1
  C  C226  1  0.89203000  0.22723000  0.37258000  1
  C  C227  1  0.92724000  0.16389000  0.35178000  1
  C  C228  1  0.93570000  0.03455000  0.29030000  1
  C  C229  1  0.90452000  0.08248000  0.25071000  1
  C  C230  1  0.95571000  0.07420000  0.20039000  1
  C  C231  1  0.04173000  0.01842000  0.18814000  1
  C  C232  1  0.07480000  0.97118000  0.22773000  1
  C  C233  1  0.02313000  0.97889000  0.27801000  1
  C  C234  1  0.09920000  0.00987000  0.13504000  1
  C  C235  1  0.73736000  0.30411000  0.42562000  1
  C  C236  1  0.66808000  0.86452000  0.56536000  1
  C  C237  1  0.60790000  0.92366000  0.54456000  1
  C  C238  1  0.59206000  0.98200000  0.57547000  1
  C  C239  1  0.63908000  0.98198000  0.62738000  1
  C  C240  1  0.70296000  0.92335000  0.64789000  1
  C  C241  1  0.71531000  0.86467000  0.61706000  1
  C  C242  1  0.65582000  0.10633000  0.63811000  1
  C  C243  1  0.77343000  0.11366000  0.60622000  1
  C  C244  1  0.80742000  0.17733000  0.58520000  1
  C  C245  1  0.72593000  0.23502000  0.59579000  1
  C  C246  1  0.60797000  0.22723000  0.62742000  1
  C  C247  1  0.57277000  0.16389000  0.64822000  1
  C  C248  1  0.56430000  0.03455000  0.70970000  1
  C  C249  1  0.59549000  0.08248000  0.74929000  1
  C  C250  1  0.54429000  0.07420000  0.79960000  1
  C  C251  1  0.45827000  0.01842000  0.81185000  1
  C  C252  1  0.42520000  0.97118000  0.77227000  1
  C  C253  1  0.47687000  0.97888000  0.72199000  1
  C  C254  1  0.40080000  0.00987000  0.86496000  1
  C  C255  1  0.76265000  0.30411000  0.57437000  1
  C  C256  1  0.66805000  0.63543000  0.93461000  1
  C  C257  1  0.60785000  0.57629000  0.95539000  1
  C  C258  1  0.59198000  0.51794000  0.92448000  1
  C  C259  1  0.63899000  0.51795000  0.87257000  1
  C  C260  1  0.70290000  0.57659000  0.85209000  1
  C  C261  1  0.71527000  0.63527000  0.88292000  1
  C  C262  1  0.65563000  0.39360000  0.86182000  1
  C  C263  1  0.77321000  0.38626000  0.89374000  1
  C  C264  1  0.80720000  0.32259000  0.91478000  1
  C  C265  1  0.72578000  0.26488000  0.90419000  1
  C  C266  1  0.60779000  0.27267000  0.87254000  1
  C  C267  1  0.57262000  0.33602000  0.85171000  1
  C  C268  1  0.56393000  0.46552000  0.79024000  1
  C  C269  1  0.59480000  0.41773000  0.75053000  1
  C  C270  1  0.54361000  0.42629000  0.70021000  1
  C  C271  1  0.45767000  0.48219000  0.68816000  1
  C  C272  1  0.42484000  0.52925000  0.72786000  1
  C  C273  1  0.47661000  0.52131000  0.77810000  1
  C  C274  1  0.39985000  0.49129000  0.63518000  1
  C  C275  1  0.76272000  0.19583000  0.92565000  1
  C  C276  1  0.83196000  0.63543000  0.06539000  1
  C  C277  1  0.89215000  0.57629000  0.04460000  1
  C  C278  1  0.90803000  0.51794000  0.07552000  1
  C  C279  1  0.86102000  0.51795000  0.12742000  1
  C  C280  1  0.79710000  0.57659000  0.14791000  1
  C  C281  1  0.78474000  0.63527000  0.11708000  1
  C  C282  1  0.84438000  0.39360000  0.13818000  1
  C  C283  1  0.72679000  0.38626000  0.10625000  1
  C  C284  1  0.69281000  0.32259000  0.08522000  1
  C  C285  1  0.77422000  0.26488000  0.09581000  1
  C  C286  1  0.89222000  0.27267000  0.12745000  1
  C  C287  1  0.92739000  0.33602000  0.14829000  1
  C  C288  1  0.93607000  0.46552000  0.20975000  1
  C  C289  1  0.90520000  0.41773000  0.24947000  1
  C  C290  1  0.95640000  0.42629000  0.29978000  1
  C  C291  1  0.04233000  0.48219000  0.31184000  1
  C  C292  1  0.07516000  0.52925000  0.27213000  1
  C  C293  1  0.02339000  0.52131000  0.22189000  1
  C  C294  1  0.10015000  0.49129000  0.36482000  1
  C  C295  1  0.73728000  0.19583000  0.07435000  1
  N  N296  1  0.12030000  0.95865000  0.65915000  1
  N  N297  1  0.37971000  0.95865000  0.34085000  1
  N  N298  1  0.37989000  0.54140000  0.15922000  1
  N  N299  1  0.12011000  0.54140000  0.84078000  1
  N  N300  1  0.87971000  0.04135000  0.34085000  1
  N  N301  1  0.62030000  0.04135000  0.65915000  1
  N  N302  1  0.62011000  0.45860000  0.84078000  1
  N  N303  1  0.87989000  0.45860000  0.15922000  1
  O  O304  1  0.95180000  0.95140000  0.90142000  1
  O  O305  1  0.80578000  0.03469000  0.87121000  1
  O  O306  1  0.37005000  0.68714000  0.54737000  1
  O  O307  1  0.17394000  0.64894000  0.58714000  1
  O  O308  1  0.19323000  0.45302000  0.54545000  1
  O  O309  1  0.58316000  0.43354000  0.50220000  1
  O  O310  1  0.54821000  0.95140000  0.09858000  1
  O  O311  1  0.69422000  0.03469000  0.12879000  1
  O  O312  1  0.12995000  0.68714000  0.45263000  1
  O  O313  1  0.32606000  0.64894000  0.41285000  1
  O  O314  1  0.30677000  0.45302000  0.45455000  1
  O  O315  1  0.91684000  0.43354000  0.49780000  1
  O  O316  1  0.54694000  0.54570000  0.40180000  1
  O  O317  1  0.69775000  0.46545000  0.37057000  1
  O  O318  1  0.12985000  0.81289000  0.04732000  1
  O  O319  1  0.32589000  0.85119000  0.08714000  1
  O  O320  1  0.30716000  0.04754000  0.04545000  1
  O  O321  1  0.91666000  0.06630000  0.00230000  1
  O  O322  1  0.95307000  0.54570000  0.59819000  1
  O  O323  1  0.80225000  0.46545000  0.62943000  1
  O  O324  1  0.37015000  0.81289000  0.95268000  1
  O  O325  1  0.17412000  0.85119000  0.91286000  1
  O  O326  1  0.19285000  0.04754000  0.95455000  1
  O  O327  1  0.58334000  0.06630000  0.99770000  1
  O  O328  1  0.04821000  0.04860000  0.09858000  1
  O  O329  1  0.19422000  0.96531000  0.12879000  1
  O  O330  1  0.62995000  0.31286000  0.45263000  1
  O  O331  1  0.82606000  0.35106000  0.41285000  1
  O  O332  1  0.80678000  0.54698000  0.45455000  1
  O  O333  1  0.41684000  0.56647000  0.49780000  1
  O  O334  1  0.45179000  0.04860000  0.90142000  1
  O  O335  1  0.30578000  0.96531000  0.87121000  1
  O  O336  1  0.87005000  0.31286000  0.54737000  1
  O  O337  1  0.67394000  0.35106000  0.58714000  1
  O  O338  1  0.69323000  0.54698000  0.54545000  1
  O  O339  1  0.08316000  0.56647000  0.50220000  1
  O  O340  1  0.45307000  0.45430000  0.59819000  1
  O  O341  1  0.30225000  0.53455000  0.62943000  1
  O  O342  1  0.87015000  0.18712000  0.95268000  1
  O  O343  1  0.67412000  0.14881000  0.91286000  1
  O  O344  1  0.69285000  0.95246000  0.95455000  1
  O  O345  1  0.08334000  0.93370000  0.99770000  1
  O  O346  1  0.04693000  0.45430000  0.40180000  1
  O  O347  1  0.19775000  0.53455000  0.37057000  1
  O  O348  1  0.62986000  0.18712000  0.04732000  1
  O  O349  1  0.82589000  0.14881000  0.08714000  1
  O  O350  1  0.80716000  0.95247000  0.04545000  1
  O  O351  1  0.41666000  0.93370000  0.00230000  1
