# generated using pymatgen
data_ZnH19C22N5O4
_symmetry_space_group_name_H-M   'P 1'
_cell_length_a   11.78553000
_cell_length_b   11.80134000
_cell_length_c   13.60565000
_cell_angle_alpha   90.06271000
_cell_angle_beta   110.32425000
_cell_angle_gamma   119.86097000
_symmetry_Int_Tables_number   1
_chemical_formula_structural   ZnH19C22N5O4
_chemical_formula_sum   'Zn2 H38 C44 N10 O8'
_cell_volume   1503.28573279
_cell_formula_units_Z   2
loop_
 _symmetry_equiv_pos_site_id
 _symmetry_equiv_pos_as_xyz
  1  'x, y, z'
loop_
 _atom_site_type_symbol
 _atom_site_label
 _atom_site_symmetry_multiplicity
 _atom_site_fract_x
 _atom_site_fract_y
 _atom_site_fract_z
 _atom_site_occupancy
  Zn  Zn1  1  0.27994000  0.66378000  0.24253000  1.0
  Zn  Zn2  1  0.27792000  0.61525000  0.74175000  1.0
  H  H1  1  0.56827000  0.46753000  0.82773000  1.0
  H  H2  1  0.79015000  0.84401000  0.04465000  1.0
  H  H3  1  0.98480000  0.80215000  0.14905000  1.0
  H  H4  1  0.44682000  0.61389000  0.46755000  1.0
  H  H5  1  0.00835000  0.42802000  0.27132000  1.0
  H  H6  1  0.03959000  0.29447000  0.43847000  1.0
  H  H7  1  0.28015000  0.39145000  0.63001000  1.0
  H  H8  1  0.44230000  0.47920000  0.61219000  1.0
  H  H9  1  0.49575000  0.35920000  0.49765000  1.0
  H  H10  1  0.45576000  0.14188000  0.42741000  1.0
  H  H11  1  0.07959000  0.93191000  0.49430000  1.0
  H  H12  1  0.11960000  0.14869000  0.56476000  1.0
  H  H13  1  0.29767000  0.90114000  0.36189000  1.0
  H  H14  1  0.13093000  0.81304000  0.37290000  1.0
  H  H15  1  0.11701000  0.66972000  0.51389000  1.0
  H  H16  1  0.55106000  0.85653000  0.72346000  1.0
  H  H17  1  0.52844000  0.99447000  0.55748000  1.0
  H  H18  1  0.82716000  0.37991000  0.97586000  1.0
  H  H19  1  0.66363000  0.32416000  0.86558000  1.0
  H  H20  1  0.56705000  0.09944000  0.32827000  1.0
  H  H21  1  0.79317000  0.94762000  0.54552000  1.0
  H  H22  1  0.98592000  0.18392000  0.64959000  1.0
  H  H23  1  0.44669000  0.83286000  0.96430000  1.0
  H  H24  1  0.00666000  0.58085000  0.77357000  1.0
  H  H25  1  0.04217000  0.74729000  0.94214000  1.0
  H  H26  1  0.28565000  0.89153000  0.13149000  1.0
  H  H27  1  0.44569000  0.96510000  0.11070000  1.0
  H  H28  1  0.49737000  0.13751000  0.99776000  1.0
  H  H29  1  0.45574000  0.31391000  0.92735000  1.0
  H  H30  1  0.07904000  0.14738000  0.99385000  1.0
  H  H31  1  0.12060000  0.97145000  0.06439000  1.0
  H  H32  1  0.29442000  0.39482000  0.86072000  1.0
  H  H33  1  0.12870000  0.31661000  0.87374000  1.0
  H  H34  1  0.11768000  0.44736000  0.01698000  1.0
  H  H35  1  0.55320000  0.69384000  0.22175000  1.0
  H  H36  1  0.52745000  0.53286000  0.05397000  1.0
  H  H37  1  0.82609000  0.44705000  0.47583000  1.0
  H  H38  1  0.66166000  0.33890000  0.36649000  1.0
  C  C1  1  0.00514000  0.59301000  0.11013000  1.0
  C  C2  1  0.88624000  0.61188000  0.04788000  1.0
  C  C3  1  0.76675000  0.51420000  0.95574000  1.0
  C  C4  1  0.65977000  0.54022000  0.89867000  1.0
  C  C5  1  0.66913000  0.65780000  0.93061000  1.0
  C  C6  1  0.78671000  0.75390000  0.02145000  1.0
  C  C7  1  0.89276000  0.72974000  0.07831000  1.0
  C  C8  1  0.55235000  0.68215000  0.87130000  1.0
  C  C9  1  0.33216000  0.54536000  0.43696000  1.0
  C  C10  1  0.10308000  0.44649000  0.33793000  1.0
  C  C11  1  0.11742000  0.37965000  0.41920000  1.0
  C  C12  1  0.32921000  0.39972000  0.57300000  1.0
  C  C13  1  0.31033000  0.26842000  0.53596000  1.0
  C  C14  1  0.40437000  0.26553000  0.49682000  1.0
  C  C15  1  0.38128000  0.14369000  0.45646000  1.0
  C  C16  1  0.26386000  0.02249000  0.45443000  1.0
  C  C17  1  0.17031000  0.02533000  0.49429000  1.0
  C  C18  1  0.19344000  0.14727000  0.53480000  1.0
  C  C19  1  0.24396000  0.89105000  0.41596000  1.0
  C  C20  1  0.23167000  0.73927000  0.54861000  1.0
  C  C21  1  0.45894000  0.83891000  0.65432000  1.0
  C  C22  1  0.44869000  0.90763000  0.57383000  1.0
  C  C23  1  0.00453000  0.41139000  0.61021000  1.0
  C  C24  1  0.88581000  0.27411000  0.54806000  1.0
  C  C25  1  0.76595000  0.25235000  0.45605000  1.0
  C  C26  1  0.65946000  0.11951000  0.39920000  1.0
  C  C27  1  0.66987000  0.01173000  0.43109000  1.0
  C  C28  1  0.78804000  0.03337000  0.52186000  1.0
  C  C29  1  0.89339000  0.16336000  0.57863000  1.0
  C  C30  1  0.55319000  0.87106000  0.37133000  1.0
  C  C31  1  0.33220000  0.78716000  0.93568000  1.0
  C  C32  1  0.10237000  0.65725000  0.83931000  1.0
  C  C33  1  0.11873000  0.73923000  0.92124000  1.0
  C  C34  1  0.33232000  0.93130000  0.07312000  1.0
  C  C35  1  0.31197000  0.04295000  0.03605000  1.0
  C  C36  1  0.40562000  0.13966000  0.99689000  1.0
  C  C37  1  0.38148000  0.23779000  0.95635000  1.0
  C  C38  1  0.26332000  0.24098000  0.95407000  1.0
  C  C39  1  0.17017000  0.14485000  0.99398000  1.0
  C  C40  1  0.19435000  0.04665000  0.03464000  1.0
  C  C41  1  0.24210000  0.35182000  0.91559000  1.0
  C  C42  1  0.23233000  0.49224000  0.04978000  1.0
  C  C43  1  0.46028000  0.61930000  0.15328000  1.0
  C  C44  1  0.44851000  0.54013000  0.07193000  1.0
  N  N1  1  0.23766000  0.54955000  0.34969000  1.0
  N  N2  1  0.26270000  0.44380000  0.48142000  1.0
  N  N3  1  0.32288000  0.73415000  0.63776000  1.0
  N  N4  1  0.30469000  0.84337000  0.50764000  1.0
  N  N5  1  0.75780000  0.39976000  0.92071000  1.0
  N  N6  1  0.23626000  0.68813000  0.84906000  1.0
  N  N7  1  0.26439000  0.82013000  0.98176000  1.0
  N  N8  1  0.32475000  0.58857000  0.13862000  1.0
  N  N9  1  0.30402000  0.46066000  0.00718000  1.0
  N  N10  1  0.75632000  0.35765000  0.42115000  1.0
  O  O1  1  0.99115000  0.47978000  0.09718000  1.0
  O  O2  1  0.12240000  0.69856000  0.17630000  1.0
  O  O3  1  0.43366000  0.57807000  0.80405000  1.0
  O  O4  1  0.57226000  0.79606000  0.88932000  1.0
  O  O5  1  0.99061000  0.51066000  0.59714000  1.0
  O  O6  1  0.12193000  0.42288000  0.67651000  1.0
  O  O7  1  0.43417000  0.85675000  0.30440000  1.0
  O  O8  1  0.57310000  0.77686000  0.38847000  1.0
