# generated using pymatgen
data_H31C46N5
_symmetry_space_group_name_H-M   'P 1'
_cell_length_a   19.48620000
_cell_length_b   33.40860000
_cell_length_c   41.95270000
_cell_angle_alpha   90.00000000
_cell_angle_beta   90.01090000
_cell_angle_gamma   89.98290000
_symmetry_Int_Tables_number   1
_chemical_formula_structural   H31C46N5
_chemical_formula_sum   'H248 C368 N40'
_cell_volume   27311.48544978
_cell_formula_units_Z   8
loop_
 _symmetry_equiv_pos_site_id
 _symmetry_equiv_pos_as_xyz
  1  'x, y, z'
loop_
 _atom_site_type_symbol
 _atom_site_label
 _atom_site_symmetry_multiplicity
 _atom_site_fract_x
 _atom_site_fract_y
 _atom_site_fract_z
 _atom_site_occupancy
  C  1  1  0.82609800  0.08519250  0.18814300  1
  C  2  1  0.85586800  0.05488400  0.20684050  1
  C  3  1  0.91055200  0.03206900  0.19476000  1
  C  4  1  0.93645200  0.03801500  0.16341800  1
  C  5  1  0.91105800  0.07193300  0.14671200  1
  C  6  1  0.85593400  0.09468600  0.15846750  1
  C  7  1  0.99423200  0.01216350  0.14993900  1
  C  8  1  0.05626800  0.03546050  0.16213000  1
  C  9  1  0.08373600  0.06836550  0.14485300  1
  C  10  1  0.13687400  0.09222300  0.15721500  1
  C  11  1  0.16316400  0.08479350  0.18797300  1
  C  12  1  0.13575800  0.05300400  0.20586800  1
  C  13  1  0.08200300  0.02967950  0.19351400  1
  C  14  1  0.99079800  0.96849900  0.16066050  1
  C  15  1  0.99225200  0.00636350  0.11384950  1
  C  16  1  0.05277700  0.99724900  0.09638700  1
  C  17  1  0.05077600  0.98719500  0.06385400  1
  C  18  1  0.98747100  0.98478750  0.04762000  1
  C  19  1  0.92669900  0.99258650  0.06460450  1
  C  20  1  0.92913000  0.00245150  0.09712900  1
  C  21  1  0.92698000  0.94811100  0.16313450  1
  C  22  1  0.92279600  0.90839300  0.17387550  1
  C  23  1  0.98294800  0.88697650  0.18161950  1
  C  24  1  0.04697700  0.90503150  0.17576500  1
  C  25  1  0.05067400  0.94482300  0.16498700  1
  C  46  1  0.82438800  0.85358750  0.83416900  1
  C  47  1  0.85777400  0.88029650  0.81343200  1
  C  48  1  0.91459900  0.90245900  0.82400250  1
  C  49  1  0.93948600  0.89954200  0.85580200  1
  C  50  1  0.90939800  0.86938150  0.87514650  1
  C  51  1  0.85216800  0.84724600  0.86482300  1
  C  52  1  0.00028300  0.92495650  0.86673500  1
  C  53  1  0.05921400  0.90070700  0.85250550  1
  C  54  1  0.08284400  0.86537350  0.86790350  1
  C  55  1  0.13447600  0.84119700  0.85464100  1
  C  56  1  0.16289100  0.85071250  0.82467600  1
  C  57  1  0.13865800  0.88471250  0.80841050  1
  C  58  1  0.08648300  0.90850100  0.82170200  1
  C  59  1  0.99499900  0.96842200  0.85560600  1
  C  60  1  0.00650900  0.93139100  0.90266200  1
  C  61  1  0.07129800  0.93653400  0.91773200  1
  C  62  1  0.07705200  0.94680300  0.95012900  1
  C  63  1  0.01802400  0.95371250  0.96864700  1
  C  64  1  0.95310300  0.95009550  0.95397200  1
  C  65  1  0.94780700  0.93982350  0.92160300  1
  C  66  1  0.93059200  0.98817650  0.85296150  1
  C  67  1  0.92524400  0.02786650  0.84229200  1
  C  68  1  0.98471500  0.04992750  0.83462800  1
  C  69  1  0.04926200  0.03247700  0.84052100  1
  C  70  1  0.05412600  0.99275300  0.85139700  1
  C  91  1  0.66840600  0.35358300  0.68286000  1
  C  92  1  0.63506800  0.38034250  0.70358000  1
  C  93  1  0.57827900  0.40254100  0.69299200  1
  C  94  1  0.55336100  0.39959700  0.66119800  1
  C  95  1  0.58335200  0.36935250  0.64189450  1
  C  96  1  0.64056600  0.34719100  0.65222650  1
  C  97  1  0.49259900  0.42504400  0.65024900  1
  C  98  1  0.43363600  0.40081650  0.66444600  1
  C  99  1  0.40988700  0.36554850  0.64900500  1
  C  100  1  0.35827400  0.34137350  0.66226200  1
  C  101  1  0.33001400  0.35080550  0.69227500  1
  C  102  1  0.35427300  0.38477800  0.70856100  1
  C  103  1  0.40644200  0.40856050  0.69527300  1
  C  104  1  0.49793200  0.46850050  0.66138250  1
  C  105  1  0.48634600  0.43147650  0.61432400  1
  C  106  1  0.42158700  0.43684100  0.59927150  1
  C  107  1  0.41585400  0.44711650  0.56687500  1
  C  108  1  0.47490600  0.45388550  0.54834500  1
  C  109  1  0.53981800  0.45007000  0.56299800  1
  C  110  1  0.54508100  0.43977400  0.59536500  1
  C  111  1  0.56238800  0.48821650  0.66389100  1
  C  112  1  0.56787900  0.52792700  0.67449050  1
  C  113  1  0.50850400  0.55005750  0.68223100  1
  C  114  1  0.44388600  0.53262850  0.67650450  1
  C  115  1  0.43888100  0.49288350  0.66568350  1
  C  136  1  0.66695000  0.58503100  0.32872900  1
  C  137  1  0.63730200  0.55462050  0.31010550  1
  C  138  1  0.58255600  0.53188150  0.32219500  1
  C  139  1  0.55659400  0.53793200  0.35351400  1
  C  140  1  0.58196900  0.57189050  0.37016700  1
  C  141  1  0.63703800  0.59463100  0.35836900  1
  C  142  1  0.49877800  0.51215700  0.36702400  1
  C  143  1  0.43677100  0.53548950  0.35481550  1
  C  144  1  0.40925800  0.56839300  0.37208800  1
  C  145  1  0.35608700  0.59224050  0.35972200  1
  C  146  1  0.32980700  0.58479800  0.32896600  1
  C  147  1  0.35733700  0.55305300  0.31105300  1
  C  148  1  0.41109100  0.52971850  0.32342200  1
  C  149  1  0.50212900  0.46847150  0.35634550  1
  C  150  1  0.50080600  0.50642600  0.40311700  1
  C  151  1  0.44027900  0.49729850  0.42057400  1
  C  152  1  0.44224700  0.48729900  0.45311950  1
  C  153  1  0.50553700  0.48490550  0.46936950  1
  C  154  1  0.56631800  0.49264750  0.45238300  1
  C  155  1  0.56390600  0.50252250  0.41986100  1
  C  156  1  0.56591100  0.44800750  0.35393300  1
  C  157  1  0.57003700  0.40828500  0.34319300  1
  C  158  1  0.50986400  0.38692250  0.33543350  1
  C  159  1  0.44585900  0.40507250  0.34119400  1
  C  160  1  0.44221400  0.44485350  0.35200600  1
  C  182  1  0.06939700  0.68048350  0.28315100  1
  C  183  1  0.94704000  0.66819150  0.28952000  1
  C  184  1  0.98559000  0.72609950  0.25960300  1
  C  185  1  0.90299400  0.64426700  0.27091800  1
  C  186  1  0.84718000  0.62438800  0.28504450  1
  C  187  1  0.83421600  0.62807500  0.31812700  1
  C  188  1  0.87937200  0.65155200  0.33675550  1
  C  189  1  0.93496400  0.67153850  0.32257800  1
  C  190  1  0.10242100  0.64752800  0.26891800  1
  C  191  1  0.16784800  0.63555850  0.27930450  1
  C  192  1  0.20162000  0.65615400  0.30433300  1
  C  193  1  0.16919800  0.69021200  0.31759750  1
  C  194  1  0.10382200  0.70224750  0.30712550  1
  C  195  1  0.99352900  0.72975900  0.22634050  1
  C  196  1  0.97747200  0.76593500  0.21091450  1
  C  197  1  0.95268400  0.79900150  0.22854350  1
  C  198  1  0.94404200  0.79503200  0.26185550  1
  C  199  1  0.96066400  0.75898450  0.27724600  1
  C  212  1  0.93877800  0.83522500  0.21420450  1
  C  213  1  0.26273500  0.64238300  0.31728650  1
  C  214  1  0.77950600  0.60896950  0.33258600  1
  C  219  1  0.06669800  0.25676700  0.73509200  1
  C  220  1  0.94490200  0.26876400  0.72606400  1
  C  221  1  0.98150500  0.21137600  0.75741200  1
  C  222  1  0.89941100  0.29317450  0.74346500  1
  C  223  1  0.84486400  0.31275150  0.72803100  1
  C  224  1  0.83440600  0.30825750  0.69479300  1
  C  225  1  0.88105700  0.28425550  0.67740100  1
  C  226  1  0.93550400  0.26463450  0.69287100  1
  C  227  1  0.09864400  0.28968050  0.74990800  1
  C  228  1  0.16540400  0.30111500  0.74109400  1
  C  229  1  0.20167300  0.27991400  0.71717800  1
  C  230  1  0.17021300  0.24591150  0.70334700  1
  C  231  1  0.10346800  0.23446500  0.71220600  1
  C  232  1  0.98899200  0.20782600  0.79071300  1
  C  233  1  0.97405800  0.17146000  0.80610200  1
  C  234  1  0.95086800  0.13808900  0.78838500  1
  C  235  1  0.94243600  0.14196200  0.75505700  1
  C  236  1  0.95798600  0.17819450  0.73971000  1
  C  249  1  0.93827000  0.10168000  0.80265200  1
  C  250  1  0.26402800  0.29333100  0.70540000  1
  C  251  1  0.78058800  0.32691000  0.67908950  1
  C  256  1  0.42630700  0.75671750  0.78182600  1
  C  257  1  0.54809000  0.76869650  0.79087550  1
  C  258  1  0.51157800  0.71141200  0.75939650  1
  C  259  1  0.59353800  0.79314900  0.77350200  1
  C  260  1  0.64804800  0.81271250  0.78896200  1
  C  261  1  0.65850800  0.80816700  0.82219600  1
  C  262  1  0.61187400  0.78413650  0.83956100  1
  C  263  1  0.55748200  0.76451900  0.82406750  1
  C  264  1  0.39438700  0.78969950  0.76707900  1
  C  265  1  0.32757500  0.80109000  0.77585950  1
  C  266  1  0.29130400  0.77983850  0.79974000  1
  C  267  1  0.32274200  0.74578200  0.81351250  1
  C  268  1  0.38953300  0.73437350  0.80467400  1
  C  269  1  0.50411500  0.70802350  0.72608200  1
  C  270  1  0.51924400  0.67176050  0.71057550  1
  C  271  1  0.54262600  0.63833850  0.72818800  1
  C  272  1  0.55101800  0.64204550  0.76152850  1
  C  273  1  0.53525000  0.67817400  0.77699450  1
  C  286  1  0.55553200  0.60205350  0.71377300  1
  C  287  1  0.22889100  0.79322300  0.81150050  1
  C  288  1  0.71228400  0.82681150  0.83792400  1
  C  293  1  0.42345800  0.18055250  0.23368950  1
  C  294  1  0.54584500  0.16830600  0.22730500  1
  C  295  1  0.50718100  0.22617650  0.25725950  1
  C  296  1  0.58995100  0.14441300  0.24591500  1
  C  297  1  0.64579600  0.12453900  0.23179200  1
  C  298  1  0.65875400  0.12822150  0.19870850  1
  C  299  1  0.61355500  0.15167950  0.18007450  1
  C  300  1  0.55791800  0.17164950  0.19424650  1
  C  301  1  0.39052900  0.14758350  0.24793500  1
  C  302  1  0.32509200  0.13560400  0.23758600  1
  C  303  1  0.29123400  0.15618650  0.21256850  1
  C  304  1  0.32355900  0.19026100  0.19929250  1
  C  305  1  0.38894700  0.20230750  0.20973050  1
  C  306  1  0.49918100  0.22978200  0.29052350  1
  C  307  1  0.51522200  0.26592650  0.30599350  1
  C  308  1  0.54005400  0.29901050  0.28840900  1
  C  309  1  0.54873800  0.29509600  0.25509650  1
  C  310  1  0.53213000  0.25908050  0.23966100  1
  C  323  1  0.55398200  0.33519750  0.30279600  1
  C  324  1  0.23008600  0.14240950  0.19966300  1
  C  325  1  0.71350000  0.10912200  0.18425500  1
  C  657  1  0.23664400  0.08519250  0.40267000  1
  C  658  1  0.26641400  0.05488400  0.42136750  1
  C  659  1  0.32109800  0.03206900  0.40928700  1
  C  660  1  0.34699800  0.03801500  0.37794500  1
  C  661  1  0.32160400  0.07193300  0.36123900  1
  C  662  1  0.26648000  0.09468600  0.37299450  1
  C  663  1  0.40477800  0.01216350  0.36446600  1
  C  664  1  0.46681400  0.03546050  0.37665700  1
  C  665  1  0.49428200  0.06836550  0.35938000  1
  C  666  1  0.54742000  0.09222300  0.37174200  1
  C  667  1  0.57371000  0.08479350  0.40250000  1
  C  668  1  0.54630400  0.05300400  0.42039500  1
  C  669  1  0.49254900  0.02967950  0.40804100  1
  C  670  1  0.40134400  0.96849900  0.37518750  1
  C  671  1  0.40279800  0.00636350  0.32837650  1
  C  672  1  0.46332300  0.99724900  0.31091400  1
  C  673  1  0.46132200  0.98719500  0.27838100  1
  C  674  1  0.39801700  0.98478750  0.26214700  1
  C  675  1  0.33724500  0.99258650  0.27913150  1
  C  676  1  0.33967600  0.00245150  0.31165600  1
  C  677  1  0.33752600  0.94811100  0.37766150  1
  C  678  1  0.33333767  0.90839300  0.38840250  1
  C  679  1  0.39349400  0.88697650  0.39614650  1
  C  680  1  0.45752300  0.90503150  0.39029200  1
  C  681  1  0.46122000  0.94482300  0.37951400  1
  C  702  1  0.23493400  0.85358750  0.04869630  1
  C  703  1  0.26832000  0.88029650  0.02795930  1
  C  704  1  0.32514500  0.90245900  0.03852980  1
  C  705  1  0.35003200  0.89954200  0.07032930  1
  C  706  1  0.31994400  0.86938150  0.08967380  1
  C  707  1  0.26271400  0.84724600  0.07935030  1
  C  708  1  0.41082900  0.92495650  0.08126230  1
  C  709  1  0.46976000  0.90070700  0.06703280  1
  C  710  1  0.49339000  0.86537350  0.08243080  1
  C  711  1  0.54502200  0.84119700  0.06916830  1
  C  712  1  0.57343700  0.85071250  0.03920330  1
  C  713  1  0.54920400  0.88471250  0.02293780  1
  C  714  1  0.49702900  0.90850100  0.03622930  1
  C  715  1  0.40554500  0.96842200  0.07013330  1
  C  716  1  0.41705500  0.93139100  0.11718900  1
  C  717  1  0.48184400  0.93653400  0.13225900  1
  C  718  1  0.48759800  0.94680300  0.16465600  1
  C  719  1  0.42857000  0.95371250  0.18317400  1
  C  720  1  0.36364900  0.95009550  0.16849900  1
  C  721  1  0.35835300  0.93982350  0.13613000  1
  C  722  1  0.34113800  0.98817650  0.06748880  1
  C  723  1  0.33579000  0.02786650  0.05681930  1
  C  724  1  0.39526100  0.04992750  0.04915530  1
  C  725  1  0.45980800  0.03247700  0.05504830  1
  C  726  1  0.46467200  0.99275300  0.06592430  1
  C  747  1  0.07895250  0.35358300  0.89738700  1
  C  748  1  0.04561450  0.38034250  0.91810700  1
  C  749  1  0.98882500  0.40254100  0.90751900  1
  C  750  1  0.96390700  0.39959700  0.87572500  1
  C  751  1  0.99389800  0.36935250  0.85642150  1
  C  752  1  0.05111250  0.34719100  0.86675350  1
  C  753  1  0.90314500  0.42504400  0.86477600  1
  C  754  1  0.84418200  0.40081650  0.87897300  1
  C  755  1  0.82043300  0.36554850  0.86353200  1
  C  756  1  0.76882000  0.34137350  0.87678900  1
  C  757  1  0.74056000  0.35080550  0.90680200  1
  C  758  1  0.76481900  0.38477800  0.92308800  1
  C  759  1  0.81698800  0.40856050  0.90980000  1
  C  760  1  0.90847800  0.46850050  0.87590950  1
  C  761  1  0.89689200  0.43147650  0.82885100  1
  C  762  1  0.83213300  0.43684100  0.81379850  1
  C  763  1  0.82640000  0.44711650  0.78140200  1
  C  764  1  0.88545200  0.45388550  0.76287200  1
  C  765  1  0.95036400  0.45007000  0.77752500  1
  C  766  1  0.95562700  0.43977400  0.80989200  1
  C  767  1  0.97293400  0.48821650  0.87841800  1
  C  768  1  0.97842500  0.52792700  0.88901750  1
  C  769  1  0.91905000  0.55005750  0.89675800  1
  C  770  1  0.85443200  0.53262850  0.89103150  1
  C  771  1  0.84942700  0.49288350  0.88021050  1
  C  792  1  0.07749650  0.58503100  0.54325600  1
  C  793  1  0.04784850  0.55462050  0.52463250  1
  C  794  1  0.99310200  0.53188150  0.53672200  1
  C  795  1  0.96714000  0.53793200  0.56804100  1
  C  796  1  0.99251500  0.57189050  0.58469400  1
  C  797  1  0.04758450  0.59463100  0.57289600  1
  C  798  1  0.90932400  0.51215700  0.58155100  1
  C  799  1  0.84731700  0.53548950  0.56934250  1
  C  800  1  0.81980400  0.56839300  0.58661500  1
  C  801  1  0.76663300  0.59224050  0.57424900  1
  C  802  1  0.74035300  0.58479800  0.54349300  1
  C  803  1  0.76788300  0.55305300  0.52558000  1
  C  804  1  0.82163700  0.52971850  0.53794900  1
  C  805  1  0.91267500  0.46847150  0.57087250  1
  C  806  1  0.91135200  0.50642600  0.61764400  1
  C  807  1  0.85082500  0.49729850  0.63510100  1
  C  808  1  0.85279300  0.48729900  0.66764650  1
  C  809  1  0.91608300  0.48490550  0.68389650  1
  C  810  1  0.97686400  0.49264750  0.66691000  1
  C  811  1  0.97445200  0.50252250  0.63438800  1
  C  812  1  0.97645700  0.44800750  0.56846000  1
  C  813  1  0.98058300  0.40828500  0.55772000  1
  C  814  1  0.92041000  0.38692250  0.54996050  1
  C  815  1  0.85640500  0.40507250  0.55572100  1
  C  816  1  0.85276000  0.44485350  0.56653300  1
  C  838  1  0.47994300  0.68048350  0.49767800  1
  C  839  1  0.35758600  0.66819150  0.50404700  1
  C  840  1  0.39613600  0.72609950  0.47413000  1
  C  841  1  0.31354000  0.64426700  0.48544500  1
  C  842  1  0.25772600  0.62438800  0.49957150  1
  C  843  1  0.24476200  0.62807500  0.53265400  1
  C  844  1  0.28991800  0.65155200  0.55128250  1
  C  845  1  0.34551000  0.67153850  0.53710500  1
  C  846  1  0.51296700  0.64752800  0.48344500  1
  C  847  1  0.57839400  0.63555850  0.49383150  1
  C  848  1  0.61216600  0.65615400  0.51886000  1
  C  849  1  0.57974400  0.69021200  0.53212450  1
  C  850  1  0.51436800  0.70224750  0.52165250  1
  C  851  1  0.40407500  0.72975900  0.44086750  1
  C  852  1  0.38801800  0.76593500  0.42544150  1
  C  853  1  0.36323000  0.79900150  0.44307050  1
  C  854  1  0.35458800  0.79503200  0.47638250  1
  C  855  1  0.37121000  0.75898450  0.49177300  1
  C  868  1  0.34932400  0.83522500  0.42873150  1
  C  869  1  0.67328100  0.64238300  0.53181350  1
  C  870  1  0.19005250  0.60896950  0.54711300  1
  C  875  1  0.47724400  0.25676700  0.94961900  1
  C  876  1  0.35544800  0.26876400  0.94059100  1
  C  877  1  0.39205100  0.21137600  0.97193900  1
  C  878  1  0.30995700  0.29317450  0.95799200  1
  C  879  1  0.25541000  0.31275150  0.94255800  1
  C  880  1  0.24495200  0.30825750  0.90932000  1
  C  881  1  0.29160300  0.28425550  0.89192800  1
  C  882  1  0.34605000  0.26463450  0.90739800  1
  C  883  1  0.50919000  0.28968050  0.96443500  1
  C  884  1  0.57595000  0.30111500  0.95562100  1
  C  885  1  0.61221900  0.27991400  0.93170500  1
  C  886  1  0.58075900  0.24591150  0.91787400  1
  C  887  1  0.51401400  0.23446500  0.92673300  1
  C  888  1  0.39953800  0.20782600  0.00524031  1
  C  889  1  0.38460400  0.17146000  0.02062930  1
  C  890  1  0.36141400  0.13808900  0.00291231  1
  C  891  1  0.35298200  0.14196200  0.96958400  1
  C  892  1  0.36853200  0.17819450  0.95423700  1
  C  905  1  0.34881600  0.10168000  0.01717930  1
  C  906  1  0.67457400  0.29333100  0.91992700  1
  C  907  1  0.19113450  0.32691000  0.89361650  1
  C  912  1  0.83685300  0.75671750  0.99635300  1
  C  913  1  0.95863600  0.76869650  0.00540281  1
  C  914  1  0.92212400  0.71141200  0.97392350  1
  C  915  1  0.00408448  0.79314900  0.98802900  1
  C  916  1  0.05859450  0.81271250  0.00348931  1
  C  917  1  0.06905450  0.80816700  0.03672330  1
  C  918  1  0.02242050  0.78413650  0.05408830  1
  C  919  1  0.96802800  0.76451900  0.03859480  1
  C  920  1  0.80493300  0.78969950  0.98160600  1
  C  921  1  0.73812100  0.80109000  0.99038650  1
  C  922  1  0.70185000  0.77983850  0.01426730  1
  C  923  1  0.73328800  0.74578200  0.02803980  1
  C  924  1  0.80007900  0.73437350  0.01920130  1
  C  925  1  0.91466100  0.70802350  0.94060900  1
  C  926  1  0.92979000  0.67176050  0.92510250  1
  C  927  1  0.95317200  0.63833850  0.94271500  1
  C  928  1  0.96156400  0.64204550  0.97605550  1
  C  929  1  0.94579600  0.67817400  0.99152150  1
  C  942  1  0.96607800  0.60205350  0.92830000  1
  C  943  1  0.63943700  0.79322300  0.02602780  1
  C  944  1  0.12283050  0.82681150  0.05245130  1
  C  949  1  0.83400400  0.18055250  0.44821650  1
  C  950  1  0.95639100  0.16830600  0.44183200  1
  C  951  1  0.91772700  0.22617650  0.47178650  1
  C  952  1  0.00049748  0.14441300  0.46044200  1
  C  953  1  0.05634250  0.12453900  0.44631900  1
  C  954  1  0.06930050  0.12822150  0.41323550  1
  C  955  1  0.02410150  0.15167950  0.39460150  1
  C  956  1  0.96846400  0.17164950  0.40877350  1
  C  957  1  0.80107500  0.14758350  0.46246200  1
  C  958  1  0.73563800  0.13560400  0.45211300  1
  C  959  1  0.70178000  0.15618650  0.42709550  1
  C  960  1  0.73410500  0.19026100  0.41381950  1
  C  961  1  0.79949300  0.20230750  0.42425750  1
  C  962  1  0.90972700  0.22978200  0.50505050  1
  C  963  1  0.92576800  0.26592650  0.52052050  1
  C  964  1  0.95060000  0.29901050  0.50293600  1
  C  965  1  0.95928400  0.29509600  0.46962350  1
  C  966  1  0.94267600  0.25908050  0.45418800  1
  C  979  1  0.96452800  0.33519750  0.51732300  1
  C  980  1  0.64063200  0.14240950  0.41419000  1
  C  981  1  0.12404650  0.10912200  0.39878200  1
  H  26  1  0.09565800  0.98067700  0.05232100  1
  H  27  1  0.09947600  0.99701200  0.10747750  1
  H  28  1  0.87992800  0.98990800  0.05365850  1
  H  29  1  0.88340700  0.00588400  0.10871600  1
  H  30  1  0.88199600  0.96261800  0.15830650  1
  H  31  1  0.87550200  0.89563500  0.17675350  1
  H  32  1  0.09151200  0.88986300  0.18049750  1
  H  33  1  0.09826500  0.95681450  0.16136250  1
  H  34  1  0.06165000  0.00813250  0.20797300  1
  H  35  1  0.15353500  0.04726400  0.22838450  1
  H  36  1  0.15627600  0.11498250  0.14362200  1
  H  37  1  0.06486800  0.07558650  0.12286650  1
  H  38  1  0.93076600  0.07955500  0.12497550  1
  H  39  1  0.92983500  0.00988250  0.20893600  1
  H  40  1  0.83610000  0.04807700  0.22879700  1
  H  45  1  0.83672000  0.11761500  0.14497900  1
  H  71  1  0.12485900  0.95028450  0.95989200  1
  H  72  1  0.11571400  0.93372150  0.90498900  1
  H  73  1  0.90919800  0.95582200  0.96653900  1
  H  74  1  0.89983700  0.93917800  0.91178450  1
  H  75  1  0.88598100  0.97342000  0.85799650  1
  H  76  1  0.87756000  0.04018100  0.83952150  1
  H  77  1  0.09334900  0.04811300  0.83589700  1
  H  78  1  0.10202800  0.98118200  0.85508100  1
  H  79  1  0.06855300  0.93181700  0.80834700  1
  H  80  1  0.15818500  0.89207650  0.78652100  1
  H  81  1  0.15182500  0.81697600  0.86720300  1
  H  82  1  0.06304400  0.85707100  0.88947600  1
  H  83  1  0.92817500  0.86355950  0.89739700  1
  H  84  1  0.93639600  0.92210250  0.80830700  1
  H  85  1  0.83967400  0.88475500  0.79078350  1
  H  90  1  0.83065400  0.82668000  0.87986500  1
  H  116  1  0.36806000  0.45072700  0.55712900  1
  H  117  1  0.37717000  0.43411000  0.61202200  1
  H  118  1  0.58374600  0.45568500  0.55042400  1
  H  119  1  0.59306000  0.43899000  0.60516200  1
  H  120  1  0.60693500  0.47342950  0.65876800  1
  H  121  1  0.61560300  0.54021800  0.67712150  1
  H  122  1  0.39985800  0.54831000  0.68118100  1
  H  123  1  0.39093400  0.48135000  0.66208800  1
  H  124  1  0.42443100  0.43183300  0.70865200  1
  H  125  1  0.33483800  0.39209500  0.73047800  1
  H  126  1  0.34089100  0.31718200  0.64968100  1
  H  127  1  0.42964200  0.35726850  0.62741600  1
  H  128  1  0.56452800  0.36350250  0.61965600  1
  H  129  1  0.55655600  0.42225400  0.70866100  1
  H  130  1  0.65325200  0.38487250  0.72620400  1
  H  135  1  0.66205100  0.32658650  0.63720200  1
  H  161  1  0.39736400  0.48075600  0.46463700  1
  H  162  1  0.39359200  0.49703400  0.40947400  1
  H  163  1  0.61308000  0.49002300  0.46335000  1
  H  164  1  0.60963400  0.50594750  0.40828100  1
  H  165  1  0.61091400  0.46247200  0.35876850  1
  H  166  1  0.61730800  0.39546450  0.34036500  1
  H  167  1  0.40130300  0.38993750  0.33647300  1
  H  168  1  0.39463400  0.45690650  0.35556400  1
  H  169  1  0.43146400  0.50816400  0.30897050  1
  H  170  1  0.33952200  0.54727900  0.28855000  1
  H  171  1  0.33662300  0.61498650  0.37331900  1
  H  172  1  0.42809200  0.57560950  0.39408150  1
  H  173  1  0.56218000  0.57960000  0.39186900  1
  H  174  1  0.56328600  0.50966900  0.30804900  1
  H  175  1  0.65702200  0.54779850  0.28814100  1
  H  180  1  0.65620500  0.61760550  0.37181600  1
  H  200  1  0.91100600  0.64158350  0.24691600  1
  H  201  1  0.87153200  0.65491600  0.36075200  1
  H  202  1  0.96601200  0.68900800  0.33642800  1
  H  203  1  0.81608000  0.60724050  0.27089100  1
  H  204  1  0.08025600  0.72595050  0.31797500  1
  H  205  1  0.07788600  0.63123400  0.25170000  1
  H  206  1  0.18951400  0.61076800  0.26908750  1
  H  207  1  0.19159300  0.70563550  0.33595950  1
  H  208  1  0.01114200  0.70607250  0.21323250  1
  H  209  1  0.92673800  0.81855000  0.27531300  1
  H  210  1  0.95454000  0.75684400  0.30138200  1
  H  211  1  0.98400000  0.76791250  0.18675150  1
  H  215  1  0.89832800  0.85085650  0.22162900  1
  H  216  1  0.29337700  0.66138950  0.32874950  1
  H  217  1  0.78488900  0.59951450  0.35498200  1
  H  237  1  0.90546600  0.29646850  0.76754500  1
  H  238  1  0.87520400  0.28027850  0.65334250  1
  H  239  1  0.96768500  0.24684900  0.67985700  1
  H  240  1  0.81274000  0.33024050  0.74139800  1
  H  241  1  0.08078100  0.21076100  0.70096800  1
  H  242  1  0.07249600  0.30628850  0.76640600  1
  H  243  1  0.18636200  0.32591050  0.75161500  1
  H  244  1  0.19432900  0.23019000  0.68562700  1
  H  245  1  0.00590100  0.23165600  0.80385300  1
  H  246  1  0.92627600  0.11822000  0.74154600  1
  H  247  1  0.95251000  0.18016350  0.71553100  1
  H  248  1  0.98047400  0.16952300  0.83027500  1
  H  252  1  0.89790000  0.08583100  0.79545800  1
  H  253  1  0.29602500  0.27394800  0.69519600  1
  H  254  1  0.78624100  0.33419750  0.65622400  1
  H  274  1  0.58748200  0.79648150  0.74942550  1
  H  275  1  0.61776000  0.78009600  0.86361150  1
  H  276  1  0.52534600  0.74668500  0.83705550  1
  H  277  1  0.68014300  0.83023250  0.77561400  1
  H  278  1  0.41217200  0.71057900  0.81582600  1
  H  279  1  0.42051400  0.80630900  0.75058000  1
  H  280  1  0.30662000  0.82591950  0.76537700  1
  H  281  1  0.29859000  0.73000100  0.83118350  1
  H  282  1  0.48709700  0.73189750  0.71301950  1
  H  283  1  0.56731000  0.61825700  0.77495950  1
  H  284  1  0.54072600  0.68003300  0.80117950  1
  H  285  1  0.51286600  0.66993600  0.68639550  1
  H  289  1  0.59608800  0.58631100  0.72089650  1
  H  290  1  0.19692500  0.77381450  0.82168050  1
  H  291  1  0.70661300  0.83404550  0.86079800  1
  H  311  1  0.58192000  0.14171750  0.26991500  1
  H  312  1  0.62139400  0.15503850  0.15607800  1
  H  313  1  0.52683400  0.18910350  0.18039450  1
  H  314  1  0.67692000  0.10740250  0.24594900  1
  H  315  1  0.41244700  0.22601600  0.19887250  1
  H  316  1  0.41513000  0.13129800  0.26514200  1
  H  317  1  0.30349900  0.11080150  0.24780600  1
  H  318  1  0.30110600  0.20566450  0.18093350  1
  H  319  1  0.48155600  0.20607800  0.30360000  1
  H  320  1  0.56607800  0.31862600  0.24166850  1
  H  321  1  0.53830400  0.25697600  0.21552450  1
  H  322  1  0.50866600  0.26786300  0.33015800  1
  H  326  1  0.59444200  0.35081800  0.29539100  1
  H  327  1  0.19948000  0.16139350  0.18814800  1
  H  328  1  0.70812600  0.09964800  0.16186450  1
  H  682  1  0.50620400  0.98067700  0.26684800  1
  H  683  1  0.51002200  0.99701200  0.32200450  1
  H  684  1  0.29047400  0.98990800  0.26818550  1
  H  685  1  0.29395300  0.00588400  0.32324300  1
  H  686  1  0.29254200  0.96261800  0.37283350  1
  H  687  1  0.28604800  0.89563500  0.39128050  1
  H  688  1  0.50205800  0.88986300  0.39502450  1
  H  689  1  0.50881100  0.95681450  0.37588950  1
  H  690  1  0.47219600  0.00813250  0.42250000  1
  H  691  1  0.56408100  0.04726400  0.44291150  1
  H  692  1  0.56682200  0.11498250  0.35814900  1
  H  693  1  0.47541400  0.07558650  0.33739350  1
  H  694  1  0.34131200  0.07955500  0.33950250  1
  H  695  1  0.34038100  0.00988250  0.42346300  1
  H  696  1  0.24664600  0.04807700  0.44332400  1
  H  701  1  0.24726600  0.11761500  0.35950600  1
  H  727  1  0.53540500  0.95028450  0.17441900  1
  H  728  1  0.52626000  0.93372150  0.11951600  1
  H  729  1  0.31974400  0.95582200  0.18106600  1
  H  730  1  0.31038300  0.93917800  0.12631150  1
  H  731  1  0.29652700  0.97342000  0.07252380  1
  H  732  1  0.28810600  0.04018100  0.05404880  1
  H  733  1  0.50389500  0.04811300  0.05042430  1
  H  734  1  0.51257400  0.98118200  0.06960830  1
  H  735  1  0.47909900  0.93181700  0.02287430  1
  H  736  1  0.56873100  0.89207650  0.00104831  1
  H  737  1  0.56237100  0.81697600  0.08173030  1
  H  738  1  0.47359000  0.85707100  0.10400300  1
  H  739  1  0.33872100  0.86355950  0.11192400  1
  H  740  1  0.34694200  0.92210250  0.02283430  1
  H  741  1  0.25022000  0.88475500  0.00531081  1
  H  746  1  0.24120000  0.82668000  0.09439230  1
  H  772  1  0.77860600  0.45072700  0.77165600  1
  H  773  1  0.78771600  0.43411000  0.82654900  1
  H  774  1  0.99429200  0.45568500  0.76495100  1
  H  775  1  0.00360648  0.43899000  0.81968900  1
  H  776  1  0.01748148  0.47342950  0.87329500  1
  H  777  1  0.02614950  0.54021800  0.89164850  1
  H  778  1  0.81040400  0.54831000  0.89570800  1
  H  779  1  0.80148000  0.48135000  0.87661500  1
  H  780  1  0.83497700  0.43183300  0.92317900  1
  H  781  1  0.74538400  0.39209500  0.94500500  1
  H  782  1  0.75143700  0.31718200  0.86420800  1
  H  783  1  0.84018800  0.35726850  0.84194300  1
  H  784  1  0.97507400  0.36350250  0.83418300  1
  H  785  1  0.96710200  0.42225400  0.92318800  1
  H  786  1  0.06379850  0.38487250  0.94073100  1
  H  791  1  0.07259750  0.32658650  0.85172900  1
  H  817  1  0.80791000  0.48075600  0.67916400  1
  H  818  1  0.80413800  0.49703400  0.62400100  1
  H  819  1  0.02362650  0.49002300  0.67787700  1
  H  820  1  0.02018050  0.50594750  0.62280800  1
  H  821  1  0.02146050  0.46247200  0.57329550  1
  H  822  1  0.02785450  0.39546450  0.55489200  1
  H  823  1  0.81184900  0.38993750  0.55100000  1
  H  824  1  0.80518000  0.45690650  0.57009100  1
  H  825  1  0.84201000  0.50816400  0.52349750  1
  H  826  1  0.75006800  0.54727900  0.50307700  1
  H  827  1  0.74716900  0.61498650  0.58784600  1
  H  828  1  0.83863800  0.57560950  0.60860850  1
  H  829  1  0.97272600  0.57960000  0.60639600  1
  H  830  1  0.97383200  0.50966900  0.52257600  1
  H  831  1  0.06756850  0.54779850  0.50266800  1
  H  836  1  0.06675150  0.61760550  0.58634300  1
  H  856  1  0.32155200  0.64158350  0.46144300  1
  H  857  1  0.28207800  0.65491600  0.57527900  1
  H  858  1  0.37655800  0.68900800  0.55095500  1
  H  859  1  0.22662600  0.60724050  0.48541800  1
  H  860  1  0.49080200  0.72595050  0.53250200  1
  H  861  1  0.48843200  0.63123400  0.46622700  1
  H  862  1  0.60006000  0.61076800  0.48361450  1
  H  863  1  0.60213900  0.70563550  0.55048650  1
  H  864  1  0.42168800  0.70607250  0.42775950  1
  H  865  1  0.33728400  0.81855000  0.48984000  1
  H  866  1  0.36508600  0.75684400  0.51590900  1
  H  867  1  0.39454600  0.76791250  0.40127850  1
  H  871  1  0.30887400  0.85085650  0.43615600  1
  H  872  1  0.70392300  0.66138950  0.54327650  1
  H  873  1  0.19543550  0.59951450  0.56950900  1
  H  893  1  0.31601200  0.29646850  0.98207200  1
  H  894  1  0.28575000  0.28027850  0.86786950  1
  H  895  1  0.37823100  0.24684900  0.89438400  1
  H  896  1  0.22328600  0.33024050  0.95592500  1
  H  897  1  0.49132700  0.21076100  0.91549500  1
  H  898  1  0.48304200  0.30628850  0.98093300  1
  H  899  1  0.59690800  0.32591050  0.96614200  1
  H  900  1  0.60487500  0.23019000  0.90015400  1
  H  901  1  0.41644700  0.23165600  0.01838030  1
  H  902  1  0.33682200  0.11822000  0.95607300  1
  H  903  1  0.36305600  0.18016350  0.93005800  1
  H  904  1  0.39102000  0.16952300  0.04480230  1
  H  908  1  0.30844600  0.08583100  0.00998531  1
  H  909  1  0.70657100  0.27394800  0.90972300  1
  H  910  1  0.19678750  0.33419750  0.87075100  1
  H  930  1  0.99802800  0.79648150  0.96395250  1
  H  931  1  0.02830650  0.78009600  0.07813880  1
  H  932  1  0.93589200  0.74668500  0.05158280  1
  H  933  1  0.09068950  0.83023250  0.99014100  1
  H  934  1  0.82271800  0.71057900  0.03035330  1
  H  935  1  0.83106000  0.80630900  0.96510700  1
  H  936  1  0.71716600  0.82591950  0.97990400  1
  H  937  1  0.70913600  0.73000100  0.04571080  1
  H  938  1  0.89764300  0.73189750  0.92754650  1
  H  939  1  0.97785600  0.61825700  0.98948650  1
  H  940  1  0.95127200  0.68003300  0.01570680  1
  H  941  1  0.92341200  0.66993600  0.90092250  1
  H  945  1  0.00663448  0.58631100  0.93542350  1
  H  946  1  0.60747100  0.77381450  0.03620780  1
  H  947  1  0.11715950  0.83404550  0.07532530  1
  H  967  1  0.99246600  0.14171750  0.48444200  1
  H  968  1  0.03194050  0.15503850  0.37060500  1
  H  969  1  0.93738000  0.18910350  0.39492150  1
  H  970  1  0.08746650  0.10740250  0.46047600  1
  H  971  1  0.82299300  0.22601600  0.41339950  1
  H  972  1  0.82567600  0.13129800  0.47966900  1
  H  973  1  0.71404500  0.11080150  0.46233300  1
  H  974  1  0.71165200  0.20566450  0.39546050  1
  H  975  1  0.89210200  0.20607800  0.51812700  1
  H  976  1  0.97662400  0.31862600  0.45619550  1
  H  977  1  0.94885000  0.25697600  0.43005150  1
  H  978  1  0.91921200  0.26786300  0.54468500  1
  H  982  1  0.00498848  0.35081800  0.50991800  1
  H  983  1  0.61002600  0.16139350  0.40267500  1
  H  984  1  0.11867250  0.09964800  0.37639150  1
  N  41  1  0.98119200  0.97409500  0.01744000  1
  N  42  1  0.98286700  0.85119350  0.19531450  1
  N  43  1  0.77038600  0.10323450  0.19906400  1
  N  44  1  0.21524600  0.10495050  0.20027600  1
  N  86  1  0.02667100  0.96437300  0.99878500  1
  N  87  1  0.98342000  0.08582900  0.82109200  1
  N  88  1  0.76847200  0.83550600  0.82346900  1
  N  89  1  0.21523500  0.83083700  0.81228800  1
  N  131  1  0.46629500  0.46455200  0.51820800  1
  N  132  1  0.50995500  0.58600900  0.69568200  1
  N  133  1  0.72435800  0.33551500  0.69355300  1
  N  134  1  0.27766800  0.33094400  0.70466200  1
  N  176  1  0.51179900  0.47421400  0.49955050  1
  N  177  1  0.50989900  0.35115900  0.32170400  1
  N  178  1  0.72262400  0.60306900  0.31778350  1
  N  179  1  0.27767300  0.60493200  0.31666800  1
  N  181  1  0.00098100  0.68926850  0.27447100  1
  N  218  1  0.99754100  0.24806250  0.74243600  1
  N  255  1  0.49547400  0.74801600  0.77448950  1
  N  292  1  0.49186200  0.18937150  0.24234400  1
  N  697  1  0.39173800  0.97409500  0.23196700  1
  N  698  1  0.39341300  0.85119350  0.40984150  1
  N  699  1  0.18093250  0.10323450  0.41359100  1
  N  700  1  0.62579200  0.10495050  0.41480300  1
  N  742  1  0.43721700  0.96437300  0.21331200  1
  N  743  1  0.39396600  0.08582900  0.03561930  1
  N  744  1  0.17901850  0.83550600  0.03799630  1
  N  745  1  0.62578100  0.83083700  0.02681530  1
  N  787  1  0.87684100  0.46455200  0.73273500  1
  N  788  1  0.92050100  0.58600900  0.91020900  1
  N  789  1  0.13490450  0.33551500  0.90808000  1
  N  790  1  0.68821400  0.33094400  0.91918900  1
  N  832  1  0.92234500  0.47421400  0.71407750  1
  N  833  1  0.92044500  0.35115900  0.53623100  1
  N  834  1  0.13317050  0.60306900  0.53231050  1
  N  835  1  0.68821900  0.60493200  0.53119500  1
  N  837  1  0.41152700  0.68926850  0.48899800  1
  N  874  1  0.40808700  0.24806250  0.95696300  1
  N  911  1  0.90602000  0.74801600  0.98901650  1
  N  948  1  0.90240800  0.18937150  0.45687100  1
