# generated using pymatgen
data_CdH26C26N4O5
_symmetry_space_group_name_H-M   'P 1'
_cell_length_a   9.55278000
_cell_length_b   11.62615000
_cell_length_c   27.52599000
_cell_angle_alpha   90.00000000
_cell_angle_beta   90.00000000
_cell_angle_gamma   114.17375000
_symmetry_Int_Tables_number   1
_chemical_formula_structural   CdH26C26N4O5
_chemical_formula_sum   'Cd4 H104 C104 N16 O20'
_cell_volume   2789.00983812
_cell_formula_units_Z   4
loop_
 _symmetry_equiv_pos_site_id
 _symmetry_equiv_pos_as_xyz
  1  'x, y, z'
loop_
 _atom_site_type_symbol
 _atom_site_label
 _atom_site_symmetry_multiplicity
 _atom_site_fract_x
 _atom_site_fract_y
 _atom_site_fract_z
 _atom_site_occupancy
  Cd  Cd0  1  0.63942000  0.99949000  0.49999000  1
  Cd  Cd1  1  0.36058000  0.00051000  0.99999000  1
  Cd  Cd2  1  0.74572000  0.49306000  0.24953000  1
  Cd  Cd3  1  0.25429000  0.50694000  0.74953000  1
  H  H4  1  0.72532000  0.60729000  0.51307000  1
  H  H5  1  0.89802000  0.49526000  0.49953000  1
  H  H6  1  0.13962000  0.76324000  0.38849000  1
  H  H7  1  0.96656000  0.87413000  0.40224000  1
  H  H8  1  0.42425000  0.66499000  0.45243000  1
  H  H9  1  0.61047000  0.66412000  0.38842000  1
  H  H10  1  0.23922000  0.51257000  0.28590000  1
  H  H11  1  0.05495000  0.51505000  0.34876000  1
  H  H12  1  0.47902000  0.22625000  0.26079000  1
  H  H13  1  0.31206000  0.24217000  0.24065000  1
  H  H14  1  0.33848000  0.10266000  0.22601000  1
  H  H15  1  0.76300000  0.46918000  0.12539000  1
  H  H16  1  0.50726000  0.31770000  0.06947000  1
  H  H17  1  0.26685000  0.12749000  0.08914000  1
  H  H18  1  0.23055000  0.07196000  0.14930000  1
  H  H19  1  0.16254000  0.25771000  0.17012000  1
  H  H20  1  0.19518000  0.30570000  0.10923000  1
  H  H21  1  0.98425000  0.10192000  0.08240000  1
  H  H22  1  0.95105000  0.04956000  0.14300000  1
  H  H23  1  0.91876000  0.28663000  0.10533000  1
  H  H24  1  0.87753000  0.22750000  0.16480000  1
  H  H25  1  0.63135000  0.01312000  0.17765000  1
  H  H26  1  0.37703000  0.89526000  0.11753000  1
  H  H27  1  0.69086000  0.16209000  0.99146000  1
  H  H28  1  0.76571000  0.29383000  0.03125000  1
  H  H29  1  0.86798000  0.19832000  0.02139000  1
  H  H30  1  0.27468000  0.39271000  0.01308000  1
  H  H31  1  0.10198000  0.50475000  0.99953000  1
  H  H32  1  0.86039000  0.23677000  0.88849000  1
  H  H33  1  0.03344000  0.12587000  0.90224000  1
  H  H34  1  0.57575000  0.33501000  0.95243000  1
  H  H35  1  0.38953000  0.33588000  0.88842000  1
  H  H36  1  0.76078000  0.48743000  0.78590000  1
  H  H37  1  0.94506000  0.48496000  0.84876000  1
  H  H38  1  0.52099000  0.77376000  0.76079000  1
  H  H39  1  0.68795000  0.75784000  0.74065000  1
  H  H40  1  0.66152000  0.89734000  0.72601000  1
  H  H41  1  0.23700000  0.53082000  0.62539000  1
  H  H42  1  0.49274000  0.68230000  0.56947000  1
  H  H43  1  0.73315000  0.87251000  0.58913000  1
  H  H44  1  0.76946000  0.92804000  0.64930000  1
  H  H45  1  0.83746000  0.74229000  0.67012000  1
  H  H46  1  0.80483000  0.69430000  0.60923000  1
  H  H47  1  0.01575000  0.89808000  0.58240000  1
  H  H48  1  0.04896000  0.95044000  0.64299000  1
  H  H49  1  0.08125000  0.71337000  0.60533000  1
  H  H50  1  0.12248000  0.77250000  0.66480000  1
  H  H51  1  0.36866000  0.98688000  0.67764000  1
  H  H52  1  0.62298000  0.10474000  0.61753000  1
  H  H53  1  0.30915000  0.83791000  0.49146000  1
  H  H54  1  0.23429000  0.70617000  0.53125000  1
  H  H55  1  0.13202000  0.80168000  0.52139000  1
  H  H56  1  0.88482000  0.60982000  0.98704000  1
  H  H57  1  0.60058000  0.49649000  0.00043000  1
  H  H58  1  0.62441000  0.76363000  0.11177000  1
  H  H59  1  0.90784000  0.87546000  0.09798000  1
  H  H60  1  0.24228000  0.66463000  0.04699000  1
  H  H61  1  0.05308000  0.66335000  0.11032000  1
  H  H62  1  0.27082000  0.51222000  0.21387000  1
  H  H63  1  0.45940000  0.51464000  0.15162000  1
  H  H64  1  0.74939000  0.22896000  0.23886000  1
  H  H65  1  0.93187000  0.24453000  0.25928000  1
  H  H66  1  0.76606000  0.10481000  0.27345000  1
  H  H67  1  0.70611000  0.47145000  0.37401000  1
  H  H68  1  0.80950000  0.31963000  0.43022000  1
  H  H69  1  0.86025000  0.12886000  0.41074000  1
  H  H70  1  0.84141000  0.07343000  0.35052000  1
  H  H71  1  0.09509000  0.25869000  0.32985000  1
  H  H72  1  0.11046000  0.30656000  0.39076000  1
  H  H73  1  0.11694000  0.10213000  0.41746000  1
  H  H74  1  0.09808000  0.05016000  0.35680000  1
  H  H75  1  0.36661000  0.28719000  0.39467000  1
  H  H76  1  0.34938000  0.22812000  0.33519000  1
  H  H77  1  0.38228000  0.01396000  0.32244000  1
  H  H78  1  0.51908000  0.89618000  0.38263000  1
  H  H79  1  0.47047000  0.16284000  0.50862000  1
  H  H80  1  0.52742000  0.29473000  0.46891000  1
  H  H81  1  0.32984000  0.19940000  0.47859000  1
  H  H82  1  0.11519000  0.39018000  0.48704000  1
  H  H83  1  0.39942000  0.50352000  0.50043000  1
  H  H84  1  0.37559000  0.23637000  0.61177000  1
  H  H85  1  0.09217000  0.12454000  0.59798000  1
  H  H86  1  0.75773000  0.33537000  0.54698000  1
  H  H87  1  0.94693000  0.33665000  0.61031000  1
  H  H88  1  0.72919000  0.48778000  0.71386000  1
  H  H89  1  0.54061000  0.48537000  0.65162000  1
  H  H90  1  0.25062000  0.77104000  0.73886000  1
  H  H91  1  0.06813000  0.75548000  0.75927000  1
  H  H92  1  0.23394000  0.89520000  0.77345000  1
  H  H93  1  0.29389000  0.52856000  0.87401000  1
  H  H94  1  0.19051000  0.68038000  0.93021000  1
  H  H95  1  0.13976000  0.87114000  0.91073000  1
  H  H96  1  0.15860000  0.92657000  0.85052000  1
  H  H97  1  0.90491000  0.74131000  0.82984000  1
  H  H98  1  0.88955000  0.69345000  0.89075000  1
  H  H99  1  0.88306000  0.89787000  0.91745000  1
  H  H100  1  0.90193000  0.94985000  0.85680000  1
  H  H101  1  0.63340000  0.71281000  0.89467000  1
  H  H102  1  0.65063000  0.77188000  0.83519000  1
  H  H103  1  0.61773000  0.98604000  0.82244000  1
  H  H104  1  0.48092000  0.10382000  0.88263000  1
  H  H105  1  0.52953000  0.83716000  0.00863000  1
  H  H106  1  0.47258000  0.70528000  0.96891000  1
  H  H107  1  0.67016000  0.80060000  0.97859000  1
  C  C108  1  0.74555000  0.82369000  0.46937000  1
  C  C109  1  0.83678000  0.74880000  0.45869000  1
  C  C110  1  0.81534000  0.64046000  0.48578000  1
  C  C111  1  0.90977000  0.57747000  0.47822000  1
  C  C112  1  0.02737000  0.62367000  0.44366000  1
  C  C113  1  0.04759000  0.72871000  0.41510000  1
  C  C114  1  0.95178000  0.79046000  0.42300000  1
  C  C115  1  0.22936000  0.58472000  0.40443000  1
  C  C116  1  0.38512000  0.63084000  0.41593000  1
  C  C117  1  0.48876000  0.63083000  0.38020000  1
  C  C118  1  0.43658000  0.58455000  0.33352000  1
  C  C119  1  0.28071000  0.54624000  0.32217000  1
  C  C120  1  0.17626000  0.54712000  0.35730000  1
  C  C121  1  0.54348000  0.56513000  0.29793000  1
  C  C122  1  0.39734000  0.20529000  0.23062000  1
  C  C123  1  0.48151000  0.26766000  0.18592000  1
  C  C124  1  0.65562000  0.39350000  0.13589000  1
  C  C125  1  0.53152000  0.32123000  0.10801000  1
  C  C126  1  0.26560000  0.15702000  0.12680000  1
  C  C127  1  0.15582000  0.22213000  0.13279000  1
  C  C128  1  0.99047000  0.13458000  0.12016000  1
  C  C129  1  0.88109000  0.19985000  0.12690000  1
  C  C130  1  0.61219000  0.02781000  0.13987000  1
  C  C131  1  0.48801000  0.97050000  0.10992000  1
  C  C132  1  0.66747000  0.11346000  0.06611000  1
  C  C133  1  0.75279000  0.19635000  0.02562000  1
  C  C134  1  0.25445000  0.17631000  0.96937000  1
  C  C135  1  0.16322000  0.25120000  0.95869000  1
  C  C136  1  0.18466000  0.35954000  0.98578000  1
  C  C137  1  0.09023000  0.42253000  0.97822000  1
  C  C138  1  0.97264000  0.37633000  0.94366000  1
  C  C139  1  0.95242000  0.27129000  0.91510000  1
  C  C140  1  0.04822000  0.20955000  0.92300000  1
  C  C141  1  0.77064000  0.41528000  0.90443000  1
  C  C142  1  0.61488000  0.36917000  0.91593000  1
  C  C143  1  0.51124000  0.36917000  0.88020000  1
  C  C144  1  0.56343000  0.41545000  0.83352000  1
  C  C145  1  0.71930000  0.45377000  0.82217000  1
  C  C146  1  0.82375000  0.45288000  0.85730000  1
  C  C147  1  0.45652000  0.43487000  0.79793000  1
  C  C148  1  0.60266000  0.79471000  0.73061000  1
  C  C149  1  0.51850000  0.73234000  0.68592000  1
  C  C150  1  0.34438000  0.60651000  0.63589000  1
  C  C151  1  0.46849000  0.67877000  0.60801000  1
  C  C152  1  0.73440000  0.84298000  0.62680000  1
  C  C153  1  0.84419000  0.77787000  0.63279000  1
  C  C154  1  0.00953000  0.86542000  0.62016000  1
  C  C155  1  0.11891000  0.80015000  0.62690000  1
  C  C156  1  0.38781000  0.97219000  0.63987000  1
  C  C157  1  0.51199000  0.02950000  0.60992000  1
  C  C158  1  0.33254000  0.88654000  0.56611000  1
  C  C159  1  0.24722000  0.80365000  0.52562000  1
  C  C160  1  0.07927000  0.82524000  0.03052000  1
  C  C161  1  0.91350000  0.75044000  0.04143000  1
  C  C162  1  0.82715000  0.64215000  0.01436000  1
  C  C163  1  0.67001000  0.57864000  0.02190000  1
  C  C164  1  0.59815000  0.62441000  0.05654000  1
  C  C165  1  0.68243000  0.72955000  0.08512000  1
  C  C166  1  0.83977000  0.79178000  0.07716000  1
  C  C167  1  0.35629000  0.58475000  0.09551000  1
  C  C168  1  0.24649000  0.63057000  0.08355000  1
  C  C169  1  0.14177000  0.63047000  0.11890000  1
  C  C170  1  0.14681000  0.58454000  0.16572000  1
  C  C171  1  0.26417000  0.54616000  0.17753000  1
  C  C172  1  0.37045000  0.54692000  0.14273000  1
  C  C173  1  0.02001000  0.56572000  0.20103000  1
  C  C174  1  0.80962000  0.20751000  0.26908000  1
  C  C175  1  0.78685000  0.26949000  0.31377000  1
  C  C176  1  0.73798000  0.39562000  0.36359000  1
  C  C177  1  0.78937000  0.32315000  0.39164000  1
  C  C178  1  0.89130000  0.15841000  0.37307000  1
  C  C179  1  0.06605000  0.22304000  0.36716000  1
  C  C180  1  0.14356000  0.13503000  0.37973000  1
  C  C181  1  0.31809000  0.20040000  0.37308000  1
  C  C182  1  0.41590000  0.02862000  0.36022000  1
  C  C183  1  0.48298000  0.97135000  0.39020000  1
  C  C184  1  0.44589000  0.11436000  0.43397000  1
  C  C185  1  0.44302000  0.19726000  0.47445000  1
  C  C186  1  0.92073000  0.17476000  0.53052000  1
  C  C187  1  0.08650000  0.24957000  0.54143000  1
  C  C188  1  0.17285000  0.35786000  0.51436000  1
  C  C189  1  0.32999000  0.42136000  0.52190000  1
  C  C190  1  0.40185000  0.37559000  0.55654000  1
  C  C191  1  0.31758000  0.27045000  0.58512000  1
  C  C192  1  0.16023000  0.20822000  0.57716000  1
  C  C193  1  0.64372000  0.41525000  0.59551000  1
  C  C194  1  0.75351000  0.36944000  0.58355000  1
  C  C195  1  0.85823000  0.36953000  0.61890000  1
  C  C196  1  0.85319000  0.41546000  0.66571000  1
  C  C197  1  0.73584000  0.45384000  0.67753000  1
  C  C198  1  0.62956000  0.45309000  0.64273000  1
  C  C199  1  0.97999000  0.43428000  0.70103000  1
  C  C200  1  0.19038000  0.79249000  0.76908000  1
  C  C201  1  0.21316000  0.73051000  0.81377000  1
  C  C202  1  0.26203000  0.60438000  0.86359000  1
  C  C203  1  0.21064000  0.67685000  0.89163000  1
  C  C204  1  0.10871000  0.84160000  0.87307000  1
  C  C205  1  0.93396000  0.77696000  0.86716000  1
  C  C206  1  0.85644000  0.86497000  0.87973000  1
  C  C207  1  0.68192000  0.79960000  0.87308000  1
  C  C208  1  0.58410000  0.97138000  0.86022000  1
  C  C209  1  0.51703000  0.02865000  0.89020000  1
  C  C210  1  0.55411000  0.88564000  0.93397000  1
  C  C211  1  0.55698000  0.80275000  0.97445000  1
  N  N212  1  0.62375000  0.35903000  0.18431000  1
  N  N213  1  0.42267000  0.24161000  0.13999000  1
  N  N214  1  0.72435000  0.11879000  0.11191000  1
  N  N215  1  0.52393000  0.02437000  0.06415000  1
  N  N216  1  0.37625000  0.64097000  0.68431000  1
  N  N217  1  0.57733000  0.75839000  0.63999000  1
  N  N218  1  0.27565000  0.88121000  0.61191000  1
  N  N219  1  0.47607000  0.97563000  0.56415000  1
  N  N220  1  0.73599000  0.36107000  0.31522000  1
  N  N221  1  0.81914000  0.24342000  0.35978000  1
  N  N222  1  0.39428000  0.11957000  0.38816000  1
  N  N223  1  0.50064000  0.02526000  0.43597000  1
  N  N224  1  0.26401000  0.63893000  0.81522000  1
  N  N225  1  0.18087000  0.75658000  0.85978000  1
  N  N226  1  0.60573000  0.88043000  0.88816000  1
  N  N227  1  0.49937000  0.97474000  0.93596000  1
  O  O228  1  0.64292000  0.78695000  0.50273000  1
  O  O229  1  0.77736000  0.92565000  0.44541000  1
  O  O230  1  0.12670000  0.56489000  0.44284000  1
  O  O231  1  0.68796000  0.61659000  0.30689000  1
  O  O232  1  0.48615000  0.49183000  0.26196000  1
  O  O233  1  0.35709000  0.21305000  0.00274000  1
  O  O234  1  0.22265000  0.07435000  0.94541000  1
  O  O235  1  0.87330000  0.43511000  0.94284000  1
  O  O236  1  0.31205000  0.38341000  0.80689000  1
  O  O237  1  0.51385000  0.50817000  0.76196000  1
  O  O238  1  0.14572000  0.78802000  0.99743000  1
  O  O239  1  0.14871000  0.92792000  0.05407000  1
  O  O240  1  0.44015000  0.56544000  0.05727000  1
  O  O241  1  0.92350000  0.61292000  0.19069000  1
  O  O242  1  0.00709000  0.49697000  0.23826000  1
  O  O243  1  0.85429000  0.21198000  0.49743000  1
  O  O244  1  0.85130000  0.07208000  0.55407000  1
  O  O245  1  0.55985000  0.43456000  0.55726000  1
  O  O246  1  0.07650000  0.38708000  0.69069000  1
  O  O247  1  0.99291000  0.50303000  0.73826000  1
