# generated using pymatgen
data_H14C18N7
_symmetry_space_group_name_H-M   'P 1'
_cell_length_a   31.26780000
_cell_length_b   31.26780000
_cell_length_c   33.83610000
_cell_angle_alpha   90.00000000
_cell_angle_beta   90.00000000
_cell_angle_gamma   120.00000000
_symmetry_Int_Tables_number   1
_chemical_formula_structural   H14C18N7
_chemical_formula_sum   'H84 C108 N42'
_cell_volume   28648.74371200
_cell_formula_units_Z   6
loop_
 _symmetry_equiv_pos_site_id
 _symmetry_equiv_pos_as_xyz
  1  'x, y, z'
loop_
 _atom_site_type_symbol
 _atom_site_label
 _atom_site_symmetry_multiplicity
 _atom_site_fract_x
 _atom_site_fract_y
 _atom_site_fract_z
 _atom_site_occupancy
  H  7  1  0.42792100  0.47555100  0.05259000  1
  H  8  1  0.40069500  0.58131100  0.00094300  1
  H  15  1  0.57475000  0.42119200  0.01758300  1
  H  16  1  0.48967600  0.47000200  0.95786300  1
  H  19  1  0.56563800  0.57346400  0.97059100  1
  H  20  1  0.55316000  0.61345300  0.94948800  1
  H  21  1  0.55122100  0.52188200  0.10793700  1
  H  22  1  0.52120000  0.54422900  0.08366700  1
  H  24  1  0.56596700  0.42388300  0.94114600  1
  H  26  1  0.57220100  0.45952800  0.10750500  1
  H  28  1  0.47357900  0.65012700  0.96583500  1
  H  30  1  0.37652800  0.51389600  0.08304900  1
  H  37  1  0.01877900  0.53526100  0.38593300  1
  H  38  1  0.15177800  0.56251000  0.33429600  1
  H  45  1  0.81761100  0.38841300  0.35093500  1
  H  46  1  0.95148700  0.47349000  0.29120600  1
  H  49  1  0.97900600  0.39754800  0.30394100  1
  H  50  1  0.03147600  0.41003800  0.28283900  1
  H  51  1  0.94184100  0.41198500  0.44128800  1
  H  52  1  0.99420800  0.44200600  0.41701500  1
  H  54  1  0.82907400  0.39718000  0.27450200  1
  H  56  1  0.85850000  0.39098400  0.44085400  1
  H  58  1  0.14772300  0.48962900  0.29919100  1
  H  60  1  0.10851300  0.58666300  0.41639800  1
  H  67  1  0.48768200  0.94439800  0.71925800  1
  H  68  1  0.38193500  0.81138200  0.66764400  1
  H  75  1  0.54191000  0.14555300  0.68419800  1
  H  76  1  0.49319700  0.01164400  0.62454200  1
  H  79  1  0.38976700  0.98415600  0.63721200  1
  H  80  1  0.34980500  0.93169300  0.61609600  1
  H  81  1  0.44135500  0.02137400  0.77460700  1
  H  82  1  0.41907800  0.96898100  0.75038200  1
  H  84  1  0.53925000  0.13404100  0.60777900  1
  H  86  1  0.50362800  0.10471900  0.77411800  1
  H  88  1  0.31309100  0.81541800  0.63254600  1
  H  90  1  0.44940900  0.85468600  0.74972900  1
  H  97  1  0.53417200  0.40274600  0.84135100  1
  H  101  1  0.45113800  0.30544600  0.93358900  1
  H  106  1  0.50033700  0.21264800  0.73453200  1
  H  108  1  0.41425800  0.11705300  0.82660500  1
  H  110  1  0.43410100  0.11952000  0.72271100  1
  H  111  1  0.41753200  0.08075300  0.76430400  1
  H  113  1  0.46160900  0.39380500  0.92462600  1
  H  114  1  0.51441900  0.43697600  0.89819000  1
  H  121  1  0.83967700  0.42891000  0.17470900  1
  H  125  1  0.82549000  0.51203200  0.26691200  1
  H  130  1  0.68338500  0.46271200  0.06789900  1
  H  132  1  0.67395500  0.54888500  0.15993700  1
  H  134  1  0.65652500  0.52896200  0.05605100  1
  H  135  1  0.63437200  0.54559200  0.09763700  1
  H  137  1  0.90335100  0.50152800  0.25795100  1
  H  138  1  0.89369800  0.44870500  0.23153000  1
  H  145  1  0.56041900  0.12342500  0.50801300  1
  H  149  1  0.65771300  0.13766100  0.60024300  1
  H  154  1  0.75052300  0.27977200  0.40123600  1
  H  156  1  0.84611300  0.28924600  0.49330100  1
  H  158  1  0.84364200  0.30666600  0.38941200  1
  H  159  1  0.88241500  0.32882800  0.43100300  1
  H  161  1  0.56936700  0.05978500  0.59128500  1
  H  162  1  0.52619000  0.06940600  0.56483700  1
  H  169  1  0.41055300  0.59065500  0.84369900  1
  H  173  1  0.52480600  0.70342300  0.91149800  1
  H  178  1  0.44680400  0.75211100  0.70628600  1
  H  180  1  0.55914300  0.86405300  0.77578700  1
  H  182  1  0.50271100  0.84426600  0.68040600  1
  H  183  1  0.52993100  0.88886700  0.71834700  1
  H  185  1  0.45365400  0.57344800  0.90518300  1
  H  186  1  0.41077200  0.59065500  0.92210500  1
  H  193  1  0.15129800  0.55267900  0.17705800  1
  H  197  1  0.14982900  0.43843000  0.24485300  1
  H  202  1  0.27654100  0.51647200  0.03964900  1
  H  204  1  0.27616000  0.40413800  0.10914500  1
  H  206  1  0.31276700  0.46054000  0.01375900  1
  H  207  1  0.33017700  0.43334900  0.05170100  1
  H  209  1  0.09097800  0.50955700  0.23853100  1
  H  210  1  0.15105900  0.55244400  0.25546600  1
  H  217  1  0.37254600  0.81184200  0.51040400  1
  H  221  1  0.25977800  0.81331900  0.57821000  1
  H  226  1  0.21108200  0.68664700  0.37299100  1
  H  228  1  0.09914400  0.68703300  0.44250000  1
  H  230  1  0.11892600  0.65042800  0.34710800  1
  H  231  1  0.07432900  0.63302500  0.38505200  1
  H  233  1  0.38975700  0.87215400  0.57188000  1
  H  234  1  0.37255300  0.81207100  0.58881400  1
  C  1  1  0.48347900  0.52376300  0.01253000  1
  C  2  1  0.43866800  0.50479500  0.03371700  1
  C  3  1  0.40870000  0.52635100  0.03014400  1
  C  4  1  0.42274700  0.56595000  0.00392000  1
  C  5  1  0.46680200  0.58487500  0.98174500  1
  C  6  1  0.49849800  0.56480600  0.98654100  1
  C  9  1  0.50988300  0.49777600  0.01573900  1
  C  10  1  0.53548400  0.49777000  0.05061300  1
  C  11  1  0.56021700  0.46987900  0.05041500  1
  C  12  1  0.55700000  0.44124700  0.01715200  1
  C  13  1  0.53137000  0.44066600  0.98275500  1
  C  14  1  0.50828500  0.46955200  0.98256200  1
  C  31  1  0.01145200  0.47971200  0.34587500  1
  C  32  1  0.03728100  0.52453000  0.36705400  1
  C  33  1  0.08880700  0.55450100  0.36349000  1
  C  34  1  0.11436400  0.54045100  0.33726900  1
  C  35  1  0.08924400  0.49640100  0.31509400  1
  C  36  1  0.03747700  0.46469400  0.31988800  1
  C  39  1  0.95906100  0.45330100  0.34908500  1
  C  40  1  0.93346200  0.42770600  0.38396500  1
  C  41  1  0.88083600  0.40296500  0.38376700  1
  C  42  1  0.85541600  0.40616900  0.35050000  1
  C  43  1  0.88045800  0.43179400  0.31610200  1
  C  44  1  0.93243100  0.45488900  0.31590700  1
  C  61  1  0.43942400  0.95170800  0.67922400  1
  C  62  1  0.45845700  0.92589400  0.70037300  1
  C  63  1  0.43689400  0.87436600  0.69682600  1
  C  64  1  0.39728600  0.84879500  0.67061200  1
  C  65  1  0.37834600  0.87390800  0.64844000  1
  C  66  1  0.39839400  0.92567100  0.65323100  1
  C  69  1  0.46542400  0.00409700  0.68241900  1
  C  70  1  0.46538600  0.02971800  0.71727000  1
  C  71  1  0.49322800  0.08234700  0.71703900  1
  C  72  1  0.52189000  0.10774800  0.68378400  1
  C  73  1  0.52249100  0.08268700  0.64940400  1
  C  74  1  0.49363600  0.03071400  0.64923200  1
  C  91  1  0.49379300  0.36104900  0.89135000  1
  C  92  1  0.46684600  0.31231000  0.90614100  1
  C  94  1  0.47937200  0.27912100  0.84678100  1
  C  95  1  0.50750000  0.32717600  0.83061500  1
  C  96  1  0.51436300  0.36802900  0.85305500  1
  C  98  1  0.47163700  0.23838200  0.82374700  1
  C  99  1  0.45584500  0.15790500  0.77654000  1
  C  100  1  0.48521500  0.20662200  0.76221900  1
  C  103  1  0.49292400  0.24711700  0.78553000  1
  C  107  1  0.43548100  0.15149300  0.81485700  1
  C  109  1  0.44690800  0.11514400  0.75173100  1
  C  112  1  0.49875900  0.40286300  0.91550500  1
  C  115  1  0.83840100  0.46933500  0.22469100  1
  C  116  1  0.81662600  0.49630300  0.23947400  1
  C  118  1  0.77087800  0.48373900  0.18012900  1
  C  119  1  0.79078400  0.45558900  0.16396900  1
  C  120  1  0.82478100  0.44873500  0.18640600  1
  C  122  1  0.73786800  0.49146600  0.15709400  1
  C  123  1  0.67317400  0.50724900  0.10989000  1
  C  124  1  0.69249700  0.47785400  0.09558000  1
  C  127  1  0.72528700  0.47015100  0.11888900  1
  C  131  1  0.68715300  0.52764200  0.14819500  1
  C  133  1  0.63935500  0.51619000  0.08507900  1
  C  136  1  0.87525500  0.46437700  0.24884300  1
  C  139  1  0.60211300  0.12472200  0.55800700  1
  C  140  1  0.65085300  0.14651500  0.57280200  1
  C  142  1  0.68404500  0.19226600  0.51345700  1
  C  143  1  0.63599000  0.17234000  0.49728800  1
  C  144  1  0.59513800  0.13833100  0.51971600  1
  C  146  1  0.72478300  0.22529000  0.49043100  1
  C  147  1  0.80526500  0.29000700  0.44324200  1
  C  148  1  0.75654800  0.27066300  0.42892000  1
  C  151  1  0.71605100  0.23786200  0.45222000  1
  C  155  1  0.81167300  0.27603300  0.48155300  1
  C  157  1  0.84802700  0.32383500  0.41844000  1
  C  160  1  0.56029800  0.08786700  0.58215600  1
  C  163  1  0.46530200  0.64092900  0.88331000  1
  C  164  1  0.50419700  0.69046400  0.88638100  1
  C  166  1  0.48854500  0.70963400  0.82168200  1
  C  167  1  0.45029900  0.66014600  0.81629600  1
  C  168  1  0.43917800  0.62603200  0.84712900  1
  C  170  1  0.49686900  0.74433200  0.79182300  1
  C  171  1  0.50439500  0.81402700  0.73580900  1
  C  172  1  0.47103500  0.76321800  0.72949100  1
  C  175  1  0.46658900  0.72819200  0.75767100  1
  C  179  1  0.53535100  0.82775800  0.76942300  1
  C  181  1  0.50016900  0.85143100  0.71170600  1
  C  184  1  0.44991600  0.60440200  0.91604700  1
  C  187  1  0.14682900  0.49793000  0.21666700  1
  C  188  1  0.15747900  0.45904100  0.21973800  1
  C  190  1  0.19231800  0.47471400  0.15504300  1
  C  191  1  0.18106700  0.51295100  0.14965800  1
  C  192  1  0.15806000  0.52406000  0.18048900  1
  C  194  1  0.21870400  0.46640400  0.12518700  1
  C  195  1  0.28087700  0.45888700  0.06917000  1
  C  196  1  0.26342600  0.49224700  0.06285800  1
  C  199  1  0.23284000  0.49668400  0.09103800  1
  C  203  1  0.26365700  0.42793000  0.10278500  1
  C  205  1  0.32249600  0.46310500  0.04505700  1
  C  208  1  0.12567100  0.51330000  0.24940100  1
  C  211  1  0.32227500  0.81631500  0.55001800  1
  C  212  1  0.27273600  0.80567000  0.55309500  1
  C  214  1  0.25356400  0.77084400  0.48839500  1
  C  215  1  0.30305100  0.78209100  0.48300700  1
  C  216  1  0.33716700  0.80508700  0.51383800  1
  C  218  1  0.21886400  0.74447200  0.45853600  1
  C  219  1  0.14916600  0.68231500  0.40251900  1
  C  220  1  0.19997800  0.69976500  0.39620000  1
  C  223  1  0.23500600  0.73033900  0.42438300  1
  C  227  1  0.13543600  0.69953100  0.43613700  1
  C  229  1  0.11176100  0.64070000  0.37840600  1
  C  232  1  0.35880600  0.83746500  0.58275000  1
  N  17  1  0.54217000  0.58477800  0.96646900  1
  N  18  1  0.53666600  0.52396400  0.08324400  1
  N  23  1  0.53029800  0.41061200  0.95069500  1
  N  25  1  0.59097200  0.46998200  0.08116900  1
  N  27  1  0.47820500  0.62265200  0.95355300  1
  N  29  1  0.36657800  0.51175700  0.05383200  1
  N  47  1  0.01378400  0.42102200  0.29981800  1
  N  48  1  0.95847800  0.42653500  0.41659300  1
  N  53  1  0.85147300  0.43285100  0.28404200  1
  N  55  1  0.85018800  0.37221000  0.41452100  1
  N  57  1  0.11562300  0.48500100  0.28690600  1
  N  59  1  0.11632800  0.59661600  0.38718000  1
  N  77  1  0.37839200  0.94934500  0.63316600  1
  N  78  1  0.43918000  0.00472300  0.74990100  1
  N  83  1  0.55253600  0.11166100  0.61733700  1
  N  85  1  0.49313100  0.11300400  0.74779000  1
  N  87  1  0.34056200  0.84751700  0.62025700  1
  N  89  1  0.45152200  0.84686100  0.72050800  1
  N  93  1  0.46030800  0.27355800  0.88371300  1
  N  102  1  0.44396900  0.19122300  0.83688400  1
  N  104  1  0.51974800  0.29438500  0.77238500  1
  N  105  1  0.52655800  0.33227100  0.79369300  1
  N  117  1  0.78440500  0.50283200  0.21704800  1
  N  126  1  0.71840000  0.51916100  0.17022200  1
  N  128  1  0.74571400  0.44330500  0.10575300  1
  N  129  1  0.77679300  0.43650200  0.12705800  1
  N  141  1  0.68960400  0.17874800  0.55038200  1
  N  150  1  0.77194000  0.24477600  0.50357100  1
  N  152  1  0.66878400  0.21741700  0.43907200  1
  N  153  1  0.63089900  0.18632300  0.46037100  1
  N  165  1  0.51400800  0.72270900  0.85624600  1
  N  174  1  0.53015000  0.79314200  0.79618400  1
  N  176  1  0.43138800  0.67983100  0.75451700  1
  N  177  1  0.42371300  0.64758700  0.78226300  1
  N  189  1  0.17992700  0.44924500  0.18960700  1
  N  198  1  0.23423800  0.43312500  0.12954700  1
  N  200  1  0.21967100  0.53187600  0.08788400  1
  N  201  1  0.19509300  0.53954200  0.11562700  1
  N  213  1  0.24049100  0.78323400  0.52296100  1
  N  222  1  0.17005700  0.72894500  0.46290100  1
  N  224  1  0.28336500  0.74350100  0.42122700  1
  N  225  1  0.31561000  0.76806800  0.44897200  1
