# generated using pymatgen
data_ZnH16C16N3O5
_symmetry_space_group_name_H-M   'P 1'
_cell_length_a   10.32170000
_cell_length_b   14.96091918
_cell_length_c   14.98434000
_cell_angle_alpha   65.09252995
_cell_angle_beta   89.98187000
_cell_angle_gamma   69.87587958
_symmetry_Int_Tables_number   1
_chemical_formula_structural   ZnH16C16N3O5
_chemical_formula_sum   'Zn4 H64 C64 N12 O20'
_cell_volume   1941.96082280
_cell_formula_units_Z   4
loop_
 _symmetry_equiv_pos_site_id
 _symmetry_equiv_pos_as_xyz
  1  'x, y, z'
loop_
 _atom_site_type_symbol
 _atom_site_label
 _atom_site_symmetry_multiplicity
 _atom_site_fract_x
 _atom_site_fract_y
 _atom_site_fract_z
 _atom_site_occupancy
  Zn  Zn0  1  0.84725000  0.58025000  0.46498000  1
  Zn  Zn1  1  0.42621000  0.42011000  0.03461000  1
  Zn  Zn2  1  0.15275000  0.41974000  0.53501000  1
  Zn  Zn3  1  0.57378000  0.57989000  0.96538000  1
  H  H4  1  0.22973000  0.54436000  0.23759000  1
  H  H5  1  0.21334000  0.83461000  0.99251000  1
  H  H6  1  0.92172000  0.84285000  0.19970000  1
  H  H7  1  0.20667000  0.71682000  0.42520000  1
  H  H8  1  0.27092000  0.73702000  0.31213000  1
  H  H9  1  0.65811000  0.68187000  0.58661000  1
  H  H10  1  0.63992000  0.63508000  0.29098000  1
  H  H11  1  0.45928000  0.71047000  0.24600000  1
  H  H12  1  0.36721000  0.76186000  0.54616000  1
  H  H13  1  0.59349000  0.47386000  0.39975000  1
  H  H14  1  0.51061000  0.52368000  0.27534000  1
  H  H15  1  0.40966000  0.54568000  0.36541000  1
  H  H16  1  0.08749000  0.90470000  0.29899000  1
  H  H17  1  0.18503000  0.89728000  0.39953000  1
  H  H18  1  0.27978000  0.92707000  0.19815000  1
  H  H19  1  0.38513000  0.90649000  0.30248000  1
  H  H20  1  0.77269000  0.45562000  0.26268000  1
  H  H21  1  0.04648000  0.16575000  0.50760000  1
  H  H22  1  0.76453000  0.15657000  0.30034000  1
  H  H23  1  0.92287000  0.28238000  0.07527000  1
  H  H24  1  0.00754000  0.26240000  0.18821000  1
  H  H25  1  0.33881000  0.31877000  0.91296000  1
  H  H26  1  0.27438000  0.36472000  0.20890000  1
  H  H27  1  0.16858000  0.28963000  0.25380000  1
  H  H28  1  0.12854000  0.23786000  0.95385000  1
  H  H29  1  0.06713000  0.52625000  0.10026000  1
  H  H30  1  0.03429000  0.47648000  0.22477000  1
  H  H31  1  0.95482000  0.45447000  0.13491000  1
  H  H32  1  0.99232000  0.09442000  0.20183000  1
  H  H33  1  0.08204000  0.10183000  0.10107000  1
  H  H34  1  0.20664000  0.07308000  0.30181000  1
  H  H35  1  0.29092000  0.09393000  0.19725000  1
  H  H36  1  0.77026000  0.45564000  0.76241000  1
  H  H37  1  0.78665000  0.16539000  0.00748000  1
  H  H38  1  0.07827000  0.15715000  0.80030000  1
  H  H39  1  0.79332000  0.28318000  0.57479000  1
  H  H40  1  0.72907000  0.26298000  0.68786000  1
  H  H41  1  0.34189000  0.31813000  0.41338000  1
  H  H42  1  0.36007000  0.36492000  0.70901000  1
  H  H43  1  0.54071000  0.28953000  0.75399000  1
  H  H44  1  0.63280000  0.23813000  0.45384000  1
  H  H45  1  0.40651000  0.52614000  0.60024000  1
  H  H46  1  0.48939000  0.47632000  0.72465000  1
  H  H47  1  0.59033000  0.45432000  0.63458000  1
  H  H48  1  0.91250000  0.09530000  0.70100000  1
  H  H49  1  0.81496000  0.10272000  0.60047000  1
  H  H50  1  0.72021000  0.07293000  0.80184000  1
  H  H51  1  0.61487000  0.09351000  0.69751000  1
  H  H52  1  0.22731000  0.54438000  0.73731000  1
  H  H53  1  0.95352000  0.83424000  0.49239000  1
  H  H54  1  0.23548000  0.84342000  0.69965000  1
  H  H55  1  0.07713000  0.71761000  0.92472000  1
  H  H56  1  0.99246000  0.73759000  0.81178000  1
  H  H57  1  0.66120000  0.68122000  0.08703000  1
  H  H58  1  0.72562000  0.63528000  0.79109000  1
  H  H59  1  0.83143000  0.71036000  0.74619000  1
  H  H60  1  0.87146000  0.76213000  0.04614000  1
  H  H61  1  0.93287000  0.47374000  0.89973000  1
  H  H62  1  0.96571000  0.52351000  0.77522000  1
  H  H63  1  0.04517000  0.54553000  0.86509000  1
  H  H64  1  0.00768000  0.90558000  0.79816000  1
  H  H65  1  0.91795000  0.89817000  0.89892000  1
  H  H66  1  0.79335000  0.92692000  0.69819000  1
  H  H67  1  0.70909000  0.90606000  0.80275000  1
  C  C68  1  0.22917000  0.68384000  0.11006000  1
  C  C69  1  0.18244000  0.63059000  0.19649000  1
  C  C70  1  0.07406000  0.68805000  0.23025000  1
  C  C71  1  0.33820000  0.61999000  0.07092000  1
  C  C72  1  0.02820000  0.62825000  0.32506000  1
  C  C73  1  0.17226000  0.79524000  0.05765000  1
  C  C74  1  0.00998000  0.79857000  0.17597000  1
  C  C75  1  0.52941000  0.67272000  0.39606000  1
  C  C76  1  0.06010000  0.85259000  0.09018000  1
  C  C77  1  0.26544000  0.75843000  0.37384000  1
  C  C78  1  0.58841000  0.68820000  0.52843000  1
  C  C79  1  0.53561000  0.64435000  0.31156000  1
  C  C80  1  0.44521000  0.72792000  0.50913000  1
  C  C81  1  0.51029000  0.54089000  0.33971000  1
  C  C82  1  0.19505000  0.87911000  0.33546000  1
  C  C83  1  0.27588000  0.94003000  0.26535000  1
  C  C84  1  0.91141000  0.31643000  0.39020000  1
  C  C85  1  0.81169000  0.36940000  0.30386000  1
  C  C86  1  0.76114000  0.31174000  0.27006000  1
  C  C87  1  0.95644000  0.38060000  0.42904000  1
  C  C88  1  0.65641000  0.37209000  0.17484000  1
  C  C89  1  0.96611000  0.20502000  0.44254000  1
  C  C90  1  0.80771000  0.20119000  0.32424000  1
  C  C91  1  0.20103000  0.32747000  0.10374000  1
  C  C92  1  0.91191000  0.14740000  0.40995000  1
  C  C93  1  0.02327000  0.24108000  0.12641000  1
  C  C94  1  0.27538000  0.31233000  0.97115000  1
  C  C95  1  0.17908000  0.35575000  0.18830000  1
  C  C96  1  0.17230000  0.27203000  0.99080000  1
  C  C97  1  0.05080000  0.45926000  0.16039000  1
  C  C98  1  0.07391000  0.12033000  0.16494000  1
  C  C99  1  0.21567000  0.05993000  0.23472000  1
  C  C100  1  0.77083000  0.31615000  0.88993000  1
  C  C101  1  0.81755000  0.36941000  0.80350000  1
  C  C102  1  0.92593000  0.31195000  0.76974000  1
  C  C103  1  0.66180000  0.38002000  0.92907000  1
  C  C104  1  0.97179000  0.37175000  0.67493000  1
  C  C105  1  0.82774000  0.20476000  0.94234000  1
  C  C106  1  0.99001000  0.20143000  0.82402000  1
  C  C107  1  0.47058000  0.32728000  0.60393000  1
  C  C108  1  0.93989000  0.14741000  0.90982000  1
  C  C109  1  0.73457000  0.24156000  0.62615000  1
  C  C110  1  0.41158000  0.31180000  0.47156000  1
  C  C111  1  0.46439000  0.35564000  0.68843000  1
  C  C112  1  0.55478000  0.27208000  0.49087000  1
  C  C113  1  0.48970000  0.45911000  0.66029000  1
  C  C114  1  0.80494000  0.12089000  0.66453000  1
  C  C115  1  0.72412000  0.05997000  0.73464000  1
  C  C116  1  0.08859000  0.68357000  0.60979000  1
  C  C117  1  0.18831000  0.63060000  0.69613000  1
  C  C118  1  0.23887000  0.68825000  0.72993000  1
  C  C119  1  0.04354000  0.61941000  0.57095000  1
  C  C120  1  0.34359000  0.62792000  0.82515000  1
  C  C121  1  0.03388000  0.79498000  0.55746000  1
  C  C122  1  0.19229000  0.79881000  0.67575000  1
  C  C123  1  0.79896000  0.67253000  0.89625000  1
  C  C124  1  0.08809000  0.85260000  0.59005000  1
  C  C125  1  0.97672000  0.75892000  0.87358000  1
  C  C126  1  0.72462000  0.68766000  0.02884000  1
  C  C127  1  0.82091000  0.64425000  0.81169000  1
  C  C128  1  0.82769000  0.72797000  0.00919000  1
  C  C129  1  0.94920000  0.54074000  0.83960000  1
  C  C130  1  0.92608000  0.87967000  0.83506000  1
  C  C131  1  0.78432000  0.94007000  0.76527000  1
  N  N132  1  0.63978000  0.65363000  0.45833000  1
  N  N133  1  0.40903000  0.71732000  0.42589000  1
  N  N134  1  0.98014000  0.96733000  0.04028000  1
  N  N135  1  0.29226000  0.34672000  0.04140000  1
  N  N136  1  0.12542000  0.28264000  0.07404000  1
  N  N137  1  0.94848000  0.03242000  0.45911000  1
  N  N138  1  0.36021000  0.34637000  0.54167000  1
  N  N139  1  0.59097000  0.28268000  0.57410000  1
  N  N140  1  0.01986000  0.03267000  0.95972000  1
  N  N141  1  0.70775000  0.65327000  0.95860000  1
  N  N142  1  0.87458000  0.71736000  0.92595000  1
  N  N143  1  0.05152000  0.96758000  0.54088000  1
  O  O144  1  0.90179000  0.66928000  0.33427000  1
  O  O145  1  0.42449000  0.65950000  0.02698000  1
  O  O146  1  0.33089000  0.53172000  0.08542000  1
  O  O147  1  0.12212000  0.54113000  0.38748000  1
  O  O148  1  0.87154000  0.00464000  0.07349000  1
  O  O149  1  0.56941000  0.33236000  0.16530000  1
  O  O150  1  0.08188000  0.34089000  0.47332000  1
  O  O151  1  0.86130000  0.46915000  0.41408000  1
  O  O152  1  0.66556000  0.45842000  0.11265000  1
  O  O153  1  0.88117000  0.99428000  0.42369000  1
  O  O154  1  0.09821000  0.33072000  0.66573000  1
  O  O155  1  0.57550000  0.34050000  0.97301000  1
  O  O156  1  0.66911000  0.46827000  0.91457000  1
  O  O157  1  0.87789000  0.45886000  0.61252000  1
  O  O158  1  0.12845000  0.99536000  0.92650000  1
  O  O159  1  0.43058000  0.66764000  0.83469000  1
  O  O160  1  0.91813000  0.65910000  0.52668000  1
  O  O161  1  0.13870000  0.53085000  0.58592000  1
  O  O162  1  0.33443000  0.54157000  0.88734000  1
  O  O163  1  0.11884000  0.00571000  0.57630000  1
