# generated using pymatgen
data_H7C14N3O2
_symmetry_space_group_name_H-M   'P 1'
_cell_length_a   9.88720000
_cell_length_b   59.95490000
_cell_length_c   59.95490000
_cell_angle_alpha   120.00000000
_cell_angle_beta   90.00000000
_cell_angle_gamma   90.00000000
_symmetry_Int_Tables_number   1
_chemical_formula_structural   H7C14N3O2
_chemical_formula_sum   'H126 C252 N54 O36'
_cell_volume   30778.91574741
_cell_formula_units_Z   18
loop_
 _symmetry_equiv_pos_site_id
 _symmetry_equiv_pos_as_xyz
  1  'x, y, z'
loop_
 _atom_site_type_symbol
 _atom_site_label
 _atom_site_symmetry_multiplicity
 _atom_site_fract_x
 _atom_site_fract_y
 _atom_site_fract_z
 _atom_site_occupancy
  C  1  1  0.99648000  0.89009100  0.33423400  1
  C  3  1  0.98495700  0.84452000  0.30635900  1
  C  5  1  0.99739900  0.86252800  0.35215000  1
  C  7  1  0.96931600  0.89504800  0.56749900  1
  C  9  1  0.98829000  0.84942400  0.54970100  1
  C  11  1  0.97872800  0.86738300  0.52178500  1
  C  15  1  0.00101500  0.85996900  0.37458000  1
  C  16  1  0.99975500  0.85951600  0.42233800  1
  C  17  1  0.07548000  0.87793300  0.41949000  1
  C  18  1  0.07557700  0.87822800  0.39622700  1
  C  21  1  0.99123400  0.86087700  0.44685200  1
  C  22  1  0.98009700  0.86487100  0.49676700  1
  C  23  1  0.96673800  0.88683900  0.49388200  1
  C  24  1  0.97199800  0.88488900  0.46955300  1
  C  27  1  0.99692300  0.91604600  0.33979300  1
  C  28  1  0.11518300  0.93146200  0.34915000  1
  C  29  1  0.10546200  0.95867100  0.36067800  1
  C  30  1  0.97950100  0.97126200  0.36420000  1
  C  31  1  0.86316000  0.95549000  0.35446400  1
  C  32  1  0.87153200  0.92844500  0.34245300  1
  C  39  1  0.96888100  0.97605400  0.62267800  1
  C  40  1  0.05712300  0.95898700  0.62553500  1
  C  41  1  0.05152600  0.93203400  0.60862500  1
  C  42  1  0.95990900  0.92120100  0.58770600  1
  C  43  1  0.87053700  0.93823400  0.58509300  1
  C  44  1  0.87385800  0.96496500  0.60231300  1
  C  148  1  0.98009300  0.82166300  0.28132300  1
  C  149  1  0.03478600  0.82012000  0.25860100  1
  C  150  1  0.03437600  0.79626000  0.23492900  1
  C  151  1  0.98105400  0.77330900  0.23275000  1
  C  152  1  0.92341900  0.77541200  0.25533300  1
  C  153  1  0.92353000  0.79880400  0.27888700  1
  C  156  1  0.98719800  0.74881100  0.20907000  1
  C  157  1  0.96639800  0.74631700  0.18450500  1
  C  161  1  0.03470500  0.73004000  0.57647900  1
  C  162  1  0.03433600  0.75371200  0.57629200  1
  C  163  1  0.98102300  0.75589800  0.55552500  1
  C  164  1  0.92332900  0.73332200  0.53504400  1
  C  166  1  0.98718900  0.77957900  0.55471100  1
  C  167  1  0.96647500  0.80414300  0.57678900  1
  C  168  1  0.96904300  0.82702200  0.57539500  1
  C  169  1  0.99270000  0.82655600  0.55184300  1
  C  170  1  0.01660000  0.80201100  0.52993500  1
  C  171  1  0.01432600  0.77925200  0.53134100  1
  C  179  1  0.92825300  0.84066500  0.37677600  1
  C  180  1  0.92880400  0.84069600  0.40049800  1
  C  181  1  0.00144900  0.83876700  0.44952600  1
  C  182  1  0.99652400  0.84074000  0.47398600  1
  C  271  1  0.99638800  0.65437000  0.57075200  1
  C  273  1  0.98496600  0.68228000  0.55309600  1
  C  276  1  0.98832000  0.67394500  0.13922900  1
  C  278  1  0.96907400  0.72204500  0.16162300  1
  C  279  1  0.99270100  0.69896000  0.16209300  1
  C  280  1  0.01660200  0.70160200  0.18664200  1
  C  281  1  0.01431700  0.72576900  0.20940000  1
  C  285  1  0.98006700  0.70731900  0.55528700  1
  C  286  1  0.92343500  0.70976500  0.53487400  1
  C  290  1  0.05025800  0.65040700  0.05661800  1
  C  334  1  0.99607400  0.41777300  0.09847200  1
  C  336  1  0.98491500  0.43545500  0.14404000  1
  C  338  1  0.99729400  0.46324700  0.12604700  1
  C  340  1  0.99773700  0.63650200  0.52528100  1
  C  342  1  0.99663600  0.08478000  0.66807800  1
  C  344  1  0.98491500  0.13034500  0.69598200  1
  C  346  1  0.99774300  0.11237800  0.65020100  1
  C  348  1  0.99629200  0.55708200  0.90383200  1
  C  350  1  0.98487900  0.53940600  0.85826400  1
  C  352  1  0.99738400  0.51160900  0.87625100  1
  C  354  1  0.99611900  0.32048400  0.43153700  1
  C  356  1  0.98499000  0.29260000  0.44922300  1
  C  358  1  0.99729800  0.33838900  0.47701100  1
  C  360  1  0.96937700  0.55370400  0.65983100  1
  C  362  1  0.98829000  0.53593100  0.68768200  1
  C  364  1  0.97890300  0.50799100  0.64181000  1
  C  366  1  0.96939700  0.32879000  0.90872200  1
  C  368  1  0.98839200  0.30092100  0.86309900  1
  C  370  1  0.97911200  0.34679000  0.88100900  1
  C  372  1  0.96947800  0.07984900  0.43487400  1
  C  374  1  0.98855000  0.12547100  0.45264900  1
  C  376  1  0.97921000  0.10753600  0.48058600  1
  C  378  1  0.96956400  0.42120100  0.34250300  1
  C  380  1  0.98861000  0.43894700  0.31462700  1
  C  382  1  0.97943200  0.46691200  0.36049600  1
  C  384  1  0.96939200  0.64609700  0.09360100  1
  C  385  1  0.97905500  0.62807100  0.12129100  1
  C  387  1  0.98008700  0.43327300  0.16689600  1
  C  388  1  0.03485700  0.41209700  0.16843600  1
  C  389  1  0.03449300  0.41228800  0.19229700  1
  C  390  1  0.98116100  0.43305700  0.21524800  1
  C  391  1  0.92340300  0.45352800  0.21314300  1
  C  392  1  0.92346500  0.45368900  0.18975200  1
  C  395  1  0.98735400  0.43388200  0.23974700  1
  C  396  1  0.96658000  0.41181700  0.24225100  1
  C  397  1  0.96920000  0.41322500  0.26653200  1
  C  398  1  0.99297500  0.43678100  0.28960600  1
  C  399  1  0.01686400  0.45868000  0.28695100  1
  C  400  1  0.01452200  0.45725900  0.26277900  1
  C  409  1  0.97999700  0.15319500  0.72102000  1
  C  410  1  0.03461900  0.15472900  0.74374600  1
  C  411  1  0.03419900  0.17858900  0.76741900  1
  C  412  1  0.98090300  0.20154100  0.76960100  1
  C  413  1  0.92324700  0.19944100  0.74701900  1
  C  414  1  0.92336300  0.17605100  0.72346300  1
  C  417  1  0.98711700  0.22604100  0.79327500  1
  C  418  1  0.96638300  0.22854400  0.81784600  1
  C  419  1  0.96901300  0.25282200  0.84072000  1
  C  420  1  0.99274100  0.27590000  0.84024100  1
  C  421  1  0.01667700  0.27324600  0.81568700  1
  C  422  1  0.01433400  0.24907600  0.79293700  1
  C  431  1  0.98000600  0.54158900  0.83541000  1
  C  432  1  0.03480700  0.56275900  0.83386300  1
  C  433  1  0.03442100  0.56256900  0.81000300  1
  C  434  1  0.98101300  0.54180500  0.78705700  1
  C  435  1  0.92325600  0.52133500  0.78916300  1
  C  436  1  0.92334800  0.52117600  0.81255700  1
  C  439  1  0.98718900  0.54098000  0.76255600  1
  C  440  1  0.96646500  0.56304900  0.76005600  1
  C  441  1  0.96914400  0.56165000  0.73578200  1
  C  442  1  0.99269600  0.53809000  0.71270000  1
  C  443  1  0.01653000  0.51618300  0.71534500  1
  C  444  1  0.01424400  0.51760100  0.73951600  1
  C  453  1  0.98018400  0.26756500  0.44704200  1
  C  454  1  0.03492700  0.24484800  0.42585900  1
  C  455  1  0.03456300  0.22117700  0.42604600  1
  C  456  1  0.98125600  0.21899100  0.44681300  1
  C  457  1  0.92354000  0.24156600  0.46729300  1
  C  458  1  0.92360100  0.26512100  0.46745900  1
  C  461  1  0.98741100  0.19531100  0.44762800  1
  C  462  1  0.96661500  0.17074600  0.42555500  1
  C  463  1  0.96920400  0.14786800  0.42694900  1
  C  464  1  0.99295400  0.14833500  0.45049900  1
  C  465  1  0.01686400  0.17288200  0.47240500  1
  C  466  1  0.01455900  0.19563900  0.47099800  1
  C  475  1  0.00102600  0.48824100  0.12862600  1
  C  476  1  0.92813100  0.50972900  0.14791300  1
  C  477  1  0.92888100  0.53343800  0.14791800  1
  C  478  1  0.00007033  0.53647900  0.12913600  1
  C  479  1  0.07592100  0.51522000  0.11073100  1
  C  480  1  0.07586400  0.49165000  0.11040900  1
  C  483  1  0.99163900  0.55963600  0.12778100  1
  C  484  1  0.00164200  0.58441900  0.14989900  1
  C  485  1  0.99671600  0.60690900  0.14793100  1
  C  486  1  0.98048700  0.60556200  0.12380000  1
  C  487  1  0.96735900  0.58071000  0.10182100  1
  C  488  1  0.97263900  0.55832700  0.10376500  1
  C  497  1  0.00162300  0.61410200  0.50028100  1
  C  498  1  0.92850100  0.61188000  0.47880700  1
  C  499  1  0.92928500  0.58817400  0.45509900  1
  C  500  1  0.00072200  0.56637000  0.45205200  1
  C  501  1  0.07671800  0.56924200  0.47329900  1
  C  502  1  0.07664300  0.59249200  0.49686700  1
  C  505  1  0.99224600  0.54185300  0.42890400  1
  C  506  1  0.00214300  0.53917500  0.40411400  1
  C  507  1  0.99707000  0.51471300  0.38163200  1
  C  508  1  0.98098000  0.49193500  0.38299600  1
  C  509  1  0.96805100  0.49482200  0.40785600  1
  C  510  1  0.97339100  0.51915200  0.43023100  1
  C  519  1  0.00155000  0.11496200  0.62778800  1
  C  520  1  0.92868900  0.13425200  0.62558400  1
  C  521  1  0.92936700  0.13423600  0.60187000  1
  C  522  1  0.00043900  0.11542800  0.58004000  1
  C  523  1  0.07626300  0.09702800  0.58289800  1
  C  524  1  0.07628400  0.09672500  0.60615600  1
  C  527  1  0.99195800  0.11406200  0.55552400  1
  C  528  1  0.00212200  0.13616900  0.55284400  1
  C  529  1  0.99712100  0.13418900  0.52838200  1
  C  530  1  0.98072000  0.11005500  0.50560600  1
  C  531  1  0.96748600  0.08808800  0.50849600  1
  C  532  1  0.97281500  0.09004300  0.53282800  1
  C  541  1  0.00110600  0.48661200  0.87366600  1
  C  542  1  0.92816700  0.46512900  0.85438200  1
  C  543  1  0.92886800  0.44142200  0.85438400  1
  C  544  1  0.00009233  0.43837500  0.87315600  1
  C  545  1  0.07603200  0.45962800  0.89155300  1
  C  546  1  0.07598000  0.48319900  0.89187700  1
  C  549  1  0.99168900  0.41521700  0.87450700  1
  C  550  1  0.00167100  0.39043400  0.85239000  1
  C  551  1  0.99676200  0.36794600  0.85436200  1
  C  552  1  0.98055800  0.36929500  0.87849400  1
  C  553  1  0.96742600  0.39414800  0.90047000  1
  C  554  1  0.97268300  0.41652900  0.89852400  1
  C  563  1  0.00099600  0.36080600  0.50200200  1
  C  564  1  0.92803600  0.36301200  0.52348700  1
  C  565  1  0.92874900  0.38672200  0.54719400  1
  C  566  1  0.99999800  0.40854100  0.55023300  1
  C  567  1  0.07587500  0.40568300  0.52898000  1
  C  568  1  0.07585800  0.38242900  0.50541100  1
  C  571  1  0.99149800  0.43305600  0.57338600  1
  C  572  1  0.00144500  0.43572800  0.59817200  1
  C  573  1  0.99650400  0.46018800  0.62065800  1
  C  574  1  0.98031100  0.48297000  0.61930500  1
  C  575  1  0.96723400  0.48008900  0.59444900  1
  C  576  1  0.97253200  0.45576000  0.57206900  1
  C  585  1  0.96856700  0.99882400  0.37968600  1
  C  586  1  0.05626800  0.01590100  0.37672900  1
  C  587  1  0.05078100  0.04285800  0.39364600  1
  C  588  1  0.95992600  0.05368300  0.41468500  1
  C  589  1  0.87110300  0.03664600  0.41740800  1
  C  590  1  0.87434500  0.00991200  0.40019200  1
  C  595  1  0.99618000  0.39737800  0.07250900  1
  C  596  1  0.11467800  0.39112200  0.05713800  1
  C  597  1  0.10489600  0.37547600  0.02992700  1
  C  598  1  0.97877300  0.36664300  0.01731900  1
  C  599  1  0.86223900  0.37284300  0.03307000  1
  C  600  1  0.87056300  0.38788200  0.06011100  1
  C  603  1  0.96800000  0.35459900  0.98975400  1
  C  604  1  0.05508000  0.33444500  0.97266400  1
  C  605  1  0.04990100  0.32446400  0.94571300  1
  C  606  1  0.95980800  0.33481600  0.93490700  1
  C  607  1  0.87149400  0.35467700  0.95195400  1
  C  608  1  0.87449800  0.36415600  0.97868000  1
  C  617  1  0.99664700  0.64877500  0.59112600  1
  C  618  1  0.11496900  0.63938000  0.59712900  1
  C  619  1  0.10524500  0.62784300  0.61280400  1
  C  620  1  0.97933800  0.62440400  0.62195300  1
  C  621  1  0.86302900  0.63421900  0.61600000  1
  C  622  1  0.87134200  0.64620100  0.60094000  1
  C  624  1  0.96843700  0.60891100  0.63401900  1
  C  625  1  0.05622800  0.61184700  0.65403400  1
  C  626  1  0.05084800  0.59490300  0.66404200  1
  C  627  1  0.95989900  0.57387900  0.65383400  1
  C  628  1  0.87091500  0.57118900  0.63411100  1
  C  629  1  0.87417400  0.58841200  0.62460300  1
  C  637  1  0.99720300  0.05880800  0.66248300  1
  C  638  1  0.11537500  0.04339700  0.65289600  1
  C  639  1  0.10572600  0.01619000  0.64139700  1
  C  640  1  0.97995100  0.00361400  0.63815000  1
  C  641  1  0.86378700  0.01939300  0.64814200  1
  C  642  1  0.87209500  0.04643800  0.66013900  1
  C  649  1  0.99656400  0.57747100  0.92979000  1
  C  650  1  0.11490900  0.58363100  0.94519700  1
  C  651  1  0.10516500  0.59928900  0.97240900  1
  C  652  1  0.97913600  0.60824000  0.98501300  1
  C  653  1  0.86270500  0.60210600  0.96924800  1
  C  654  1  0.87107300  0.58708900  0.94220300  1
  C  657  1  0.96828400  0.62028700  0.01257600  1
  C  658  1  0.05567100  0.64038100  0.02966300  1
  C  659  1  0.95982000  0.64011300  0.06743100  1
  C  660  1  0.87126000  0.62030000  0.05038500  1
  C  661  1  0.87444600  0.61079600  0.02365600  1
  C  669  1  0.99622100  0.32604500  0.41113900  1
  C  670  1  0.11475300  0.33513500  0.40486500  1
  C  671  1  0.10499600  0.34669700  0.38921300  1
  C  672  1  0.97887400  0.35049000  0.38039400  1
  C  673  1  0.86231400  0.34096100  0.38661000  1
  C  674  1  0.87060800  0.32896400  0.40165500  1
  C  677  1  0.96814200  0.36600300  0.36834200  1
  C  678  1  0.05522100  0.36292500  0.34818000  1
  C  679  1  0.05006700  0.37988400  0.33818800  1
  C  680  1  0.95997100  0.40104100  0.34852900  1
  C  681  1  0.87169500  0.40387600  0.36840200  1
  C  682  1  0.87468400  0.38664000  0.37789500  1
  H  14  1  0.94990800  0.84410300  0.59181600  1
  H  19  1  0.13088000  0.89163900  0.43453700  1
  H  20  1  0.13102100  0.89221200  0.39539700  1
  H  25  1  0.95344200  0.90477700  0.50954600  1
  H  26  1  0.96054600  0.90137500  0.46863800  1
  H  33  1  0.76956200  0.96368800  0.35690700  1
  H  34  1  0.78367200  0.91801000  0.33724800  1
  H  35  1  0.19103700  0.96945500  0.36827500  1
  H  45  1  0.12850200  0.96616100  0.63979600  1
  H  46  1  0.12137800  0.92057300  0.61063800  1
  H  47  1  0.80409400  0.93136000  0.56998900  1
  H  48  1  0.81098000  0.97642700  0.59881100  1
  H  154  1  0.87977700  0.75973900  0.25492300  1
  H  155  1  0.88066500  0.79884500  0.29443600  1
  H  158  1  0.94462700  0.76221800  0.18305700  1
  H  159  1  0.07905000  0.79557200  0.21921300  1
  H  165  1  0.87967500  0.73373800  0.51978500  1
  H  172  1  0.94454300  0.80558400  0.59412900  1
  H  173  1  0.03594800  0.80025700  0.51237100  1
  H  174  1  0.03400200  0.76225500  0.51486000  1
  H  175  1  0.07895400  0.76942600  0.59133000  1
  H  183  1  0.01675100  0.82102500  0.43368100  1
  H  184  1  0.00699800  0.82427600  0.47495600  1
  H  185  1  0.87114800  0.82736900  0.40205700  1
  H  282  1  0.94993800  0.72138000  0.14454000  1
  H  283  1  0.03594900  0.68579500  0.18840200  1
  H  284  1  0.03403900  0.72628700  0.22639600  1
  H  287  1  0.88056600  0.69421800  0.51936500  1
  H  288  1  0.78355100  0.65150800  0.59579300  1
  H  291  1  0.11944200  0.66403200  0.06809200  1
  H  393  1  0.87973400  0.46878700  0.22881600  1
  H  394  1  0.88053600  0.46919000  0.18970800  1
  H  401  1  0.94474900  0.39446800  0.22635600  1
  H  402  1  0.95016800  0.39680800  0.26720600  1
  H  403  1  0.03627400  0.47624800  0.30274900  1
  H  404  1  0.03425200  0.47373200  0.26225000  1
  H  405  1  0.07922700  0.39726500  0.19298600  1
  H  415  1  0.87960400  0.21511600  0.74743100  1
  H  416  1  0.88050500  0.17601200  0.70791500  1
  H  423  1  0.94438600  0.21265200  0.81929700  1
  H  424  1  0.94981600  0.25349800  0.85780700  1
  H  425  1  0.03609600  0.28904700  0.81392200  1
  H  426  1  0.03406300  0.24854700  0.77593500  1
  H  427  1  0.07885800  0.17927400  0.78313600  1
  H  437  1  0.87954900  0.50607900  0.77349500  1
  H  438  1  0.88039300  0.50567700  0.81260400  1
  H  445  1  0.94474000  0.58040200  0.77595700  1
  H  446  1  0.95005700  0.57806800  0.73511300  1
  H  447  1  0.03581600  0.49861300  0.69954100  1
  H  448  1  0.03390600  0.50112200  0.74004000  1
  H  449  1  0.07917500  0.57758800  0.80931000  1
  H  459  1  0.87988300  0.24114900  0.48255100  1
  H  460  1  0.88069600  0.28066600  0.48296400  1
  H  467  1  0.94479100  0.16930400  0.40821000  1
  H  468  1  0.95015900  0.13078300  0.41052700  1
  H  469  1  0.03626200  0.17464000  0.48997000  1
  H  470  1  0.03430000  0.21263700  0.48747600  1
  H  471  1  0.07926800  0.20546400  0.41101900  1
  H  481  1  0.13147600  0.51657300  0.09704800  1
  H  482  1  0.13135500  0.47683800  0.09643300  1
  H  489  1  0.01676800  0.58631200  0.16764400  1
  H  490  1  0.00702700  0.62434300  0.16440000  1
  H  491  1  0.95421500  0.57843600  0.08388000  1
  H  492  1  0.96130500  0.54092700  0.08727200  1
  H  493  1  0.87105800  0.54831000  0.16121600  1
  H  503  1  0.13241200  0.55421900  0.47193900  1
  H  504  1  0.13224700  0.59334200  0.51167300  1
  H  511  1  0.01698700  0.55502600  0.40220800  1
  H  512  1  0.00718500  0.51374000  0.36419100  1
  H  513  1  0.95502500  0.47915900  0.41014500  1
  H  514  1  0.96217600  0.52007000  0.44763700  1
  H  515  1  0.87131100  0.58658300  0.44023600  1
  H  525  1  0.13175900  0.08333400  0.56785800  1
  H  526  1  0.13176500  0.08275000  0.60699500  1
  H  533  1  0.01722900  0.15391800  0.56869200  1
  H  534  1  0.00741600  0.15065400  0.52740800  1
  H  535  1  0.95420700  0.07014400  0.49283600  1
  H  536  1  0.96137300  0.07356100  0.53374900  1
  H  537  1  0.87157500  0.14753800  0.60029400  1
  H  547  1  0.13163800  0.45826800  0.90522700  1
  H  548  1  0.13153200  0.49800600  0.90584500  1
  H  555  1  0.01677300  0.38853800  0.83464300  1
  H  556  1  0.00703800  0.35051000  0.83789200  1
  H  557  1  0.95429200  0.39642800  0.91841600  1
  H  558  1  0.96138100  0.43393000  0.91501600  1
  H  559  1  0.87107300  0.42654900  0.84107700  1
  H  569  1  0.13144600  0.42071500  0.53033200  1
  H  570  1  0.13139400  0.38159000  0.49060300  1
  H  577  1  0.01654500  0.41987900  0.60007100  1
  H  578  1  0.00678100  0.46115800  0.63809600  1
  H  579  1  0.95412700  0.49575500  0.59216900  1
  H  580  1  0.96124500  0.45484800  0.55466700  1
  H  581  1  0.87087700  0.38829900  0.56206200  1
  H  591  1  0.12703100  0.00873600  0.36235900  1
  H  592  1  0.12019900  0.05432200  0.39153600  1
  H  593  1  0.80526700  0.04350500  0.43260200  1
  H  594  1  0.81196100  0.99845000  0.40378500  1
  H  601  1  0.76858100  0.36723600  0.02485700  1
  H  602  1  0.78272100  0.39322400  0.07055100  1
  H  609  1  0.12522100  0.32711600  0.97981600  1
  H  610  1  0.11860700  0.31073100  0.93422400  1
  H  611  1  0.80604500  0.36308100  0.94510400  1
  H  612  1  0.81259800  0.37929100  0.99015400  1
  H  613  1  0.19064300  0.37214600  0.01915300  1
  H  623  1  0.76948300  0.63183900  0.62182300  1
  H  630  1  0.12707200  0.62620500  0.66122700  1
  H  631  1  0.12024900  0.59702000  0.67762400  1
  H  632  1  0.80483900  0.55602900  0.62581500  1
  H  633  1  0.81150500  0.58487800  0.60960200  1
  H  634  1  0.19082600  0.62022500  0.61596300  1
  H  643  1  0.77031400  0.01119400  0.64588200  1
  H  644  1  0.78429000  0.05688700  0.66553100  1
  H  645  1  0.19109900  0.00539500  0.63362200  1
  H  655  1  0.76906300  0.60777500  0.97745300  1
  H  656  1  0.78319700  0.58178400  0.93177300  1
  H  662  1  0.12614100  0.64764700  0.02250600  1
  H  663  1  0.80568000  0.61191600  0.05723400  1
  H  664  1  0.81228600  0.59570200  0.01218800  1
  H  665  1  0.19083700  0.60254600  0.98318500  1
  H  675  1  0.76865800  0.34357600  0.38100900  1
  H  676  1  0.78275100  0.32388100  0.40700800  1
  H  683  1  0.12534200  0.34844000  0.34085600  1
  H  684  1  0.11876800  0.37763100  0.32445200  1
  H  685  1  0.80626200  0.41913200  0.37680200  1
  H  686  1  0.81279200  0.39031300  0.39303500  1
  H  687  1  0.19076500  0.35412500  0.38587200  1
  N  2  1  0.98801400  0.86902800  0.31016100  1
  N  4  1  0.98932200  0.84208500  0.32781700  1
  N  6  1  0.00096300  0.88631900  0.35469400  1
  N  8  1  0.97981900  0.87391900  0.57045400  1
  N  10  1  0.98759200  0.84704300  0.52581300  1
  N  12  1  0.96939200  0.89096500  0.54312400  1
  N  36  1  0.24057800  0.91929400  0.34749400  1
  N  145  1  0.09481300  0.84218500  0.25991400  1
  N  176  1  0.09468600  0.72871600  0.59722800  1
  N  186  1  0.84979000  0.82241200  0.35578600  1
  N  272  1  0.98785200  0.67845500  0.57379000  1
  N  274  1  0.98956600  0.66084200  0.52919400  1
  N  275  1  0.97979300  0.67018800  0.11472800  1
  N  277  1  0.98780100  0.65244400  0.14162300  1
  N  335  1  0.98776800  0.41475200  0.11953000  1
  N  337  1  0.98933800  0.45935000  0.14648600  1
  N  339  1  0.00064100  0.44200600  0.10224800  1
  N  341  1  0.00114500  0.63392800  0.54651200  1
  N  343  1  0.98798100  0.10582700  0.69215900  1
  N  345  1  0.98948100  0.13280500  0.67454100  1
  N  347  1  0.00132900  0.08857700  0.64763500  1
  N  349  1  0.98785500  0.56010700  0.88277600  1
  N  351  1  0.98931500  0.51551100  0.85581600  1
  N  353  1  0.00085200  0.53284700  0.90005000  1
  N  355  1  0.98784600  0.29640600  0.42851900  1
  N  357  1  0.98937300  0.31405300  0.47311700  1
  N  359  1  0.00065000  0.34094400  0.45576800  1
  N  361  1  0.97982300  0.55667500  0.68392300  1
  N  363  1  0.98769300  0.51203500  0.66618400  1
  N  365  1  0.96954800  0.52932100  0.63955500  1
  N  367  1  0.97981000  0.30469300  0.88760600  1
  N  369  1  0.98787000  0.32241100  0.86068700  1
  N  371  1  0.96969900  0.34905200  0.90459600  1
  N  373  1  0.97995700  0.10097100  0.43190500  1
  N  375  1  0.98802700  0.12786600  0.47654300  1
  N  377  1  0.96975600  0.08395200  0.45925600  1
  N  379  1  0.97998600  0.41821500  0.31840300  1
  N  381  1  0.98817000  0.46285100  0.33611600  1
  N  383  1  0.96996300  0.44559300  0.36276400  1
  N  386  1  0.96965900  0.62582000  0.09770800  1
  N  406  1  0.09492500  0.39135500  0.14636900  1
  N  428  1  0.09464000  0.13266300  0.74242800  1
  N  450  1  0.09492400  0.58349900  0.85592600  1
  N  472  1  0.09496000  0.24617600  0.40511700  1
  N  494  1  0.84935500  0.50696500  0.16611500  1
  N  516  1  0.84949400  0.63282600  0.48158600  1
  N  538  1  0.85003100  0.15247400  0.64655700  1
  N  560  1  0.84938300  0.46789600  0.83618400  1
  N  582  1  0.84923200  0.34204800  0.52072000  1
  N  614  1  0.24027800  0.40141700  0.06933800  1
  N  635  1  0.24032300  0.64099500  0.58657800  1
  N  646  1  0.24050600  0.05554300  0.65429300  1
  N  666  1  0.24042500  0.57323600  0.93301700  1
  N  688  1  0.24035500  0.33321300  0.41514700  1
  O  13  1  0.03594800  0.84851800  0.24533300  1
  O  37  1  0.29014700  0.92668800  0.36939800  1
  O  38  1  0.32461400  0.92354000  0.33433500  1
  O  160  1  0.21830500  0.83879900  0.25421100  1
  O  177  1  0.21817400  0.73442100  0.59955500  1
  O  178  1  0.03578200  0.74329200  0.61813900  1
  O  187  1  0.72610200  0.82429400  0.36128100  1
  O  188  1  0.88787700  0.79978600  0.34846000  1
  O  289  1  0.32453500  0.65412100  0.60395800  1
  O  407  1  0.21842800  0.38905200  0.14975300  1
  O  408  1  0.03614000  0.37043400  0.14003300  1
  O  429  1  0.21811500  0.13604900  0.74813800  1
  O  430  1  0.03574200  0.12632400  0.75700300  1
  O  451  1  0.21842800  0.58579500  0.85253300  1
  O  452  1  0.03616700  0.60442300  0.86226300  1
  O  473  1  0.21845800  0.24048200  0.40280400  1
  O  474  1  0.03613200  0.23159200  0.38419700  1
  O  495  1  0.72572400  0.51057900  0.16418200  1
  O  496  1  0.88718100  0.52224600  0.18876500  1
  O  517  1  0.72589100  0.62724700  0.47799400  1
  O  518  1  0.88704900  0.64020200  0.46629500  1
  O  539  1  0.72637600  0.15055900  0.64102900  1
  O  540  1  0.88795700  0.17511200  0.65390700  1
  O  561  1  0.72574800  0.46429000  0.83812400  1
  O  562  1  0.88716800  0.45261200  0.81353300  1
  O  583  1  0.72559900  0.34759700  0.52432200  1
  O  584  1  0.88698900  0.33468500  0.53600800  1
  O  615  1  0.29111600  0.41584400  0.06195900  1
  O  616  1  0.32329000  0.38386100  0.06509800  1
  O  636  1  0.28966000  0.61907500  0.57204800  1
  O  647  1  0.28874100  0.04813700  0.63229100  1
  O  648  1  0.32560700  0.05129200  0.66728700  1
  O  667  1  0.29064200  0.55876200  0.94039400  1
  O  668  1  0.32392900  0.59072100  0.93726500  1
  O  689  1  0.29130100  0.35501000  0.42956200  1
  O  690  1  0.32329000  0.31988000  0.39758300  1
