# generated using pymatgen
data_Gd4H2C2S5O24
_symmetry_space_group_name_H-M   'P 1'
_cell_length_a   9.75669000
_cell_length_b   11.36235000
_cell_length_c   11.36242000
_cell_angle_alpha   69.01854000
_cell_angle_beta   89.36431000
_cell_angle_gamma   89.36430000
_symmetry_Int_Tables_number   1
_chemical_formula_structural   Gd4H2C2S5O24
_chemical_formula_sum   'Gd8 H4 C4 S10 O48'
_cell_volume   1176.00128586
_cell_formula_units_Z   2
loop_
 _symmetry_equiv_pos_site_id
 _symmetry_equiv_pos_as_xyz
  1  'x, y, z'
loop_
 _atom_site_type_symbol
 _atom_site_label
 _atom_site_symmetry_multiplicity
 _atom_site_fract_x
 _atom_site_fract_y
 _atom_site_fract_z
 _atom_site_occupancy
  Gd  Gd0  1  0.10584000  0.00060000  0.34217000  1
  Gd  Gd1  1  0.00318000  0.51981000  0.22949000  1
  Gd  Gd2  1  0.39416000  0.65783000  0.99940000  1
  Gd  Gd3  1  0.49682000  0.77051000  0.48019000  1
  Gd  Gd4  1  0.89416000  0.99940000  0.65783000  1
  Gd  Gd5  1  0.99682000  0.48019000  0.77051000  1
  Gd  Gd6  1  0.60584000  0.34217000  0.00061000  1
  Gd  Gd7  1  0.50318000  0.22949000  0.51982000  1
  H  H8  1  0.25603000  0.82413000  0.69413000  1
  H  H9  1  0.24396000  0.30587000  0.17586000  1
  H  H10  1  0.74397000  0.17586000  0.30587000  1
  H  H11  1  0.75604000  0.69412000  0.82415000  1
  C  C12  1  0.21692000  0.87414000  0.59893000  1
  C  C13  1  0.28307000  0.40107000  0.12586000  1
  C  C14  1  0.78308000  0.12586000  0.40107000  1
  C  C15  1  0.71693000  0.59893000  0.87414000  1
  S  S16  1  0.96224000  0.27117000  0.09527000  1
  S  S17  1  0.86341000  0.75301000  0.51571000  1
  S  S18  1  0.53777000  0.90473000  0.72883000  1
  S  S19  1  0.63660000  0.48430000  0.24700000  1
  S  S20  1  0.03776000  0.72883000  0.90474000  1
  S  S21  1  0.13659000  0.24699000  0.48430000  1
  S  S22  1  0.46223000  0.09527000  0.27117000  1
  S  S23  1  0.36341000  0.51570000  0.75301000  1
  S  S24  1  0.25000000  0.75739000  0.24261000  1
  S  S25  1  0.75001000  0.24261000  0.75739000  1
  O  O26  1  0.72767000  0.73344000  0.46362000  1
  O  O27  1  0.10398000  0.93389000  0.58309000  1
  O  O28  1  0.95748000  0.82360000  0.41035000  1
  O  O29  1  0.03623000  0.14890000  0.15474000  1
  O  O30  1  0.96512000  0.34491000  0.18182000  1
  O  O31  1  0.28375000  0.87157000  0.50218000  1
  O  O32  1  0.81876000  0.24491000  0.07224000  1
  O  O33  1  0.03496000  0.34533000  0.97451000  1
  O  O34  1  0.14955000  0.65073000  0.27399000  1
  O  O35  1  0.92482000  0.62502000  0.58385000  1
  O  O36  1  0.17334000  0.87539000  0.22776000  1
  O  O37  1  0.83978000  0.82035000  0.60575000  1
  O  O38  1  0.77234000  0.53638000  0.26657000  1
  O  O39  1  0.39603000  0.41691000  0.06611000  1
  O  O40  1  0.54252000  0.58965000  0.17640000  1
  O  O41  1  0.46377000  0.84526000  0.85111000  1
  O  O42  1  0.53488000  0.81817000  0.65510000  1
  O  O43  1  0.21625000  0.49784000  0.12841000  1
  O  O44  1  0.68124000  0.92776000  0.75509000  1
  O  O45  1  0.46504000  0.02548000  0.65466000  1
  O  O46  1  0.35046000  0.72601000  0.34927000  1
  O  O47  1  0.57518000  0.41616000  0.37498000  1
  O  O48  1  0.32667000  0.77224000  0.12460000  1
  O  O49  1  0.66023000  0.39425000  0.17965000  1
  O  O50  1  0.27234000  0.26656000  0.53638000  1
  O  O51  1  0.89602000  0.06611000  0.41691000  1
  O  O52  1  0.04252000  0.17639000  0.58965000  1
  O  O53  1  0.96377000  0.85110000  0.84526000  1
  O  O54  1  0.03488000  0.65509000  0.81819000  1
  O  O55  1  0.71625000  0.12843000  0.49783000  1
  O  O56  1  0.18124000  0.75509000  0.92776000  1
  O  O57  1  0.96504000  0.65467000  0.02549000  1
  O  O58  1  0.85046000  0.34927000  0.72602000  1
  O  O59  1  0.07518000  0.37498000  0.41616000  1
  O  O60  1  0.82667000  0.12461000  0.77224000  1
  O  O61  1  0.16022000  0.17965000  0.39426000  1
  O  O62  1  0.22767000  0.46362000  0.73344000  1
  O  O63  1  0.60397000  0.58309000  0.93390000  1
  O  O64  1  0.45748000  0.41035000  0.82361000  1
  O  O65  1  0.53623000  0.15474000  0.14890000  1
  O  O66  1  0.46512000  0.18183000  0.34490000  1
  O  O67  1  0.78375000  0.50216000  0.87160000  1
  O  O68  1  0.31877000  0.07224000  0.24492000  1
  O  O69  1  0.53496000  0.97452000  0.34534000  1
  O  O70  1  0.64954000  0.27399000  0.65073000  1
  O  O71  1  0.42482000  0.58384000  0.62502000  1
  O  O72  1  0.67334000  0.22776000  0.87540000  1
  O  O73  1  0.33978000  0.60574000  0.82035000  1
