# generated using pymatgen
data_H8C15N4O5
_symmetry_space_group_name_H-M   'P 1'
_cell_length_a   10.01280000
_cell_length_b   59.01870000
_cell_length_c   59.01870000
_cell_angle_alpha   120.00000000
_cell_angle_beta   90.00000000
_cell_angle_gamma   90.00000000
_symmetry_Int_Tables_number   1
_chemical_formula_structural   H8C15N4O5
_chemical_formula_sum   'H144 C270 N72 O90'
_cell_volume   30204.06883573
_cell_formula_units_Z   18
loop_
 _symmetry_equiv_pos_site_id
 _symmetry_equiv_pos_as_xyz
  1  'x, y, z'
loop_
 _atom_site_type_symbol
 _atom_site_label
 _atom_site_symmetry_multiplicity
 _atom_site_fract_x
 _atom_site_fract_y
 _atom_site_fract_z
 _atom_site_occupancy
  C  1  1  0.91804200  0.84892200  0.30547700  1
  C  2  1  0.93024700  0.84560200  0.32755200  1
  C  3  1  0.95923500  0.86685500  0.35271400  1
  C  4  1  0.97674800  0.89177500  0.35523200  1
  C  5  1  0.96484300  0.89581300  0.33365400  1
  C  6  1  0.93197600  0.87434500  0.30901800  1
  C  10  1  0.90117400  0.82682600  0.28005900  1
  C  11  1  0.98432800  0.92116400  0.33711400  1
  C  12  1  0.97968300  0.86342200  0.37475500  1
  C  16  1  0.91750300  0.43953700  0.15242400  1
  C  17  1  0.92944900  0.46492300  0.15571600  1
  C  18  1  0.95810200  0.46879700  0.13442900  1
  C  19  1  0.97524500  0.44637800  0.10950400  1
  C  20  1  0.96337600  0.42077200  0.10549900  1
  C  21  1  0.93116600  0.41763400  0.12701100  1
  C  25  1  0.90144300  0.43623400  0.17454200  1
  C  26  1  0.98245200  0.39885700  0.08014700  1
  C  27  1  0.97860400  0.49425900  0.13783900  1
  C  31  1  0.91733400  0.69546400  0.56152800  1
  C  32  1  0.92952300  0.67336400  0.53614800  1
  C  33  1  0.95873100  0.64822700  0.53228600  1
  C  34  1  0.97625800  0.64575300  0.55471500  1
  C  35  1  0.96430500  0.66736000  0.58031700  1
  C  36  1  0.93143100  0.69197700  0.58343800  1
  C  40  1  0.90034500  0.72087400  0.56483100  1
  C  41  1  0.98368400  0.66394700  0.60224100  1
  C  42  1  0.97904500  0.62615300  0.50682600  1
  C  46  1  0.91901700  0.14049100  0.70757800  1
  C  47  1  0.93012300  0.14379800  0.68548000  1
  C  48  1  0.95852100  0.12253400  0.66029100  1
  C  49  1  0.97616800  0.09761100  0.65775800  1
  C  50  1  0.96551300  0.09358700  0.67936500  1
  C  51  1  0.93356400  0.11508300  0.70404600  1
  C  55  1  0.90243400  0.16257700  0.73301400  1
  C  56  1  0.98553700  0.06823700  0.67589200  1
  C  57  1  0.97810700  0.12593700  0.63821300  1
  C  61  1  0.91801200  0.55011500  0.86077600  1
  C  62  1  0.93023900  0.52473300  0.85748800  1
  C  63  1  0.95948000  0.52086600  0.87875800  1
  C  64  1  0.97701900  0.54328800  0.90366300  1
  C  65  1  0.96497300  0.56889200  0.90766900  1
  C  66  1  0.93206400  0.57202000  0.88617900  1
  C  70  1  0.90105400  0.55339300  0.83865400  1
  C  71  1  0.98433300  0.59080600  0.93301100  1
  C  72  1  0.97978500  0.49540500  0.87536700  1
  C  76  1  0.91698400  0.29349100  0.45135300  1
  C  77  1  0.92843000  0.31556600  0.47676200  1
  C  78  1  0.95699700  0.34074600  0.48068200  1
  C  79  1  0.97421000  0.34329900  0.45829300  1
  C  80  1  0.96281500  0.32171800  0.43266700  1
  C  81  1  0.93088200  0.29703400  0.42947500  1
  C  85  1  0.90132400  0.26805100  0.44801000  1
  C  86  1  0.98234600  0.32520700  0.41079400  1
  C  87  1  0.97752700  0.36277300  0.50615800  1
  C  91  1  0.04774600  0.53646900  0.69172500  1
  C  92  1  0.01595200  0.51137700  0.67069000  1
  C  93  1  0.01469300  0.50610700  0.64455500  1
  C  94  1  0.04780100  0.52671600  0.63988100  1
  C  95  1  0.07820100  0.55229100  0.66036600  1
  C  96  1  0.07919600  0.55653000  0.68616500  1
  C  100  1  0.04906500  0.54126700  0.71784500  1
  C  101  1  0.10557700  0.57344000  0.65567200  1
  C  102  1  0.97531100  0.48123000  0.62340200  1
  C  106  1  0.04619000  0.30955200  0.86320400  1
  C  107  1  0.01432000  0.33061400  0.85919100  1
  C  108  1  0.01307900  0.35673200  0.88007800  1
  C  109  1  0.04603700  0.36137000  0.90535300  1
  C  110  1  0.07641900  0.34086300  0.91041100  1
  C  111  1  0.07749400  0.31507700  0.88882200  1
  C  115  1  0.04792700  0.28345400  0.84183700  1
  C  116  1  0.10385400  0.34552700  0.93624300  1
  C  117  1  0.97408600  0.37791600  0.87638100  1
  C  121  1  0.04863500  0.13805000  0.46472800  1
  C  122  1  0.01525800  0.14219100  0.48978800  1
  C  123  1  0.01261100  0.12138000  0.49513200  1
  C  124  1  0.04566800  0.09604400  0.47461500  1
  C  125  1  0.07739900  0.09085100  0.44905500  1
  C  126  1  0.07991500  0.11237500  0.44476100  1
  C  130  1  0.05158200  0.15933500  0.45987100  1
  C  131  1  0.10495800  0.06496500  0.42799300  1
  C  132  1  0.97223900  0.12522000  0.52000200  1
  C  136  1  0.04900900  0.45248800  0.32110500  1
  C  137  1  0.01626700  0.47755800  0.34208000  1
  C  138  1  0.01393800  0.48284300  0.36821700  1
  C  139  1  0.04692200  0.46227600  0.37296100  1
  C  140  1  0.07815200  0.43672000  0.35253700  1
  C  141  1  0.08018500  0.43246000  0.32673200  1
  C  145  1  0.05143600  0.44767600  0.29498100  1
  C  146  1  0.10548100  0.41562000  0.35730800  1
  C  147  1  0.97397100  0.50770700  0.38930900  1
  C  151  1  0.04773100  0.67999500  0.14995400  1
  C  152  1  0.01582200  0.65894300  0.15397800  1
  C  153  1  0.01449400  0.63281900  0.13309400  1
  C  154  1  0.04766700  0.62817200  0.10782300  1
  C  155  1  0.07808800  0.64867500  0.10276100  1
  C  156  1  0.07915600  0.67446300  0.12434000  1
  C  160  1  0.04910500  0.70610400  0.17129700  1
  C  161  1  0.10554200  0.64399200  0.07692600  1
  C  162  1  0.97509000  0.61165100  0.13678500  1
  C  166  1  0.04796500  0.85119200  0.54837300  1
  C  167  1  0.01562200  0.84722600  0.52333300  1
  C  168  1  0.01450900  0.86813700  0.51813300  1
  C  169  1  0.04834000  0.89336800  0.53874800  1
  C  170  1  0.07939600  0.89834900  0.56425900  1
  C  171  1  0.08019500  0.87676200  0.56844900  1
  C  175  1  0.04911300  0.82983000  0.55310400  1
  C  176  1  0.10765900  0.92414300  0.58537900  1
  C  177  1  0.97493000  0.86450100  0.49330400  1
  C  181  1  0.98377700  0.80121800  0.23601300  1
  C  182  1  0.11148500  0.79052100  0.22606300  1
  C  183  1  0.12524600  0.76584600  0.20284000  1
  C  184  1  0.00832600  0.75185400  0.18956000  1
  C  185  1  0.88157000  0.76321400  0.19871900  1
  C  186  1  0.86957000  0.78755400  0.22166600  1
  C  188  1  0.36348200  0.76997400  0.20739000  1
  C  189  1  0.34989100  0.79417400  0.23074100  1
  C  195  1  0.45899000  0.80877900  0.24499600  1
  C  203  1  0.98617700  0.41783200  0.20012200  1
  C  204  1  0.11407000  0.41846700  0.21070600  1
  C  205  1  0.12824400  0.41970000  0.23527200  1
  C  206  1  0.01158100  0.42029600  0.24927200  1
  C  207  1  0.88462600  0.41823800  0.23802800  1
  C  208  1  0.87221100  0.41705500  0.21379200  1
  C  210  1  0.36640700  0.42018500  0.23106400  1
  C  211  1  0.35242400  0.41953500  0.20696500  1
  C  217  1  0.46127900  0.41933800  0.19238000  1
  C  225  1  0.98426300  0.76490600  0.58315300  1
  C  226  1  0.11191300  0.77497600  0.58258300  1
  C  227  1  0.12551900  0.79827200  0.58126100  1
  C  228  1  0.00852500  0.81151100  0.58051300  1
  C  229  1  0.88179000  0.80224200  0.58255600  1
  C  230  1  0.86994300  0.77921200  0.58380000  1
  C  232  1  0.36379700  0.79385900  0.58099400  1
  C  233  1  0.35039500  0.77044900  0.58173600  1
  C  239  1  0.45961000  0.75622200  0.58209300  1
  C  247  1  0.98597500  0.18829000  0.77698300  1
  C  248  1  0.11333100  0.19922100  0.78691200  1
  C  249  1  0.12630100  0.22388000  0.81018400  1
  C  250  1  0.00895600  0.23762900  0.82351800  1
  C  251  1  0.88263900  0.22603700  0.81436400  1
  C  252  1  0.87142100  0.20169100  0.79139900  1
  C  254  1  0.36463000  0.22022100  0.80557800  1
  C  255  1  0.35175500  0.19607100  0.78215800  1
  C  261  1  0.46148700  0.18172200  0.76791400  1
  C  269  1  0.98399900  0.57170700  0.81295500  1
  C  270  1  0.11169400  0.57093300  0.80224200  1
  C  271  1  0.12542800  0.56946700  0.77756000  1
  C  272  1  0.00849600  0.56876000  0.76357400  1
  C  273  1  0.88175900  0.57098700  0.77494800  1
  C  274  1  0.86978400  0.57239500  0.79929600  1
  C  276  1  0.36367300  0.56901900  0.78167100  1
  C  277  1  0.35010000  0.56988000  0.80587700  1
  C  283  1  0.45920900  0.57022700  0.82047700  1
  C  291  1  0.98773500  0.22422000  0.42981700  1
  C  292  1  0.11562000  0.21447800  0.43082200  1
  C  293  1  0.12982200  0.19116500  0.43209400  1
  C  294  1  0.01319100  0.17758400  0.43236900  1
  C  295  1  0.88635800  0.18656200  0.42993300  1
  C  296  1  0.87390900  0.20958900  0.42870300  1
  C  298  1  0.36790700  0.19622500  0.43324300  1
  C  299  1  0.35382900  0.21967800  0.43261000  1
  C  305  1  0.46281600  0.23417800  0.43268200  1
  C  313  1  0.93245400  0.84211900  0.39975600  1
  C  314  1  0.82107700  0.84162000  0.41428700  1
  C  315  1  0.83798500  0.84063200  0.43774200  1
  C  316  1  0.96930800  0.83992900  0.44654700  1
  C  317  1  0.07969000  0.83876700  0.43114600  1
  C  318  1  0.06131800  0.83983800  0.40813400  1
  C  320  1  0.59990100  0.84121900  0.44246300  1
  C  321  1  0.58339000  0.84259700  0.41945100  1
  C  327  1  0.45879800  0.84270100  0.40938100  1
  C  335  1  0.93178000  0.54057300  0.15918100  1
  C  336  1  0.82049300  0.55560000  0.15963600  1
  C  337  1  0.83756700  0.58005400  0.16065700  1
  C  338  1  0.96894800  0.58956800  0.16141300  1
  C  339  1  0.07922600  0.57529400  0.16255900  1
  C  340  1  0.06069900  0.55122400  0.16150700  1
  C  342  1  0.59952000  0.58418400  0.15995800  1
  C  343  1  0.58285300  0.55976600  0.15850500  1
  C  349  1  0.45804700  0.54962800  0.15835100  1
  C  357  1  0.93216600  0.60117500  0.46050000  1
  C  358  1  0.82076600  0.58671000  0.44542100  1
  C  359  1  0.83763100  0.56328300  0.42095300  1
  C  360  1  0.96894800  0.55442200  0.41147600  1
  C  361  1  0.07937700  0.56976000  0.42577300  1
  C  362  1  0.06104900  0.59275300  0.44987300  1
  C  364  1  0.59952100  0.55867200  0.41674300  1
  C  365  1  0.58303000  0.58164700  0.44116600  1
  C  371  1  0.45845600  0.59174400  0.45133400  1
  C  379  1  0.93064800  0.14740500  0.61335300  1
  C  380  1  0.81908000  0.14808500  0.59896200  1
  C  381  1  0.83567700  0.14919700  0.57556900  1
  C  382  1  0.96688000  0.14981500  0.56666300  1
  C  383  1  0.07750800  0.15075400  0.58191700  1
  C  384  1  0.05944000  0.14959700  0.60488800  1
  C  386  1  0.59752200  0.14880800  0.57104200  1
  C  387  1  0.58129900  0.14729500  0.59398700  1
  C  393  1  0.45684300  0.14718500  0.60410600  1
  C  401  1  0.93247500  0.44907000  0.85402400  1
  C  402  1  0.82109200  0.43400400  0.85344200  1
  C  403  1  0.83799600  0.40954200  0.85241300  1
  C  404  1  0.96932800  0.40006000  0.85176700  1
  C  405  1  0.07973400  0.41433200  0.85067200  1
  C  406  1  0.06136000  0.43843200  0.85178100  1
  C  408  1  0.59991000  0.40536300  0.85290600  1
  C  409  1  0.58339000  0.42977500  0.85433500  1
  C  415  1  0.45879100  0.43995300  0.85444900  1
  C  423  1  0.93110700  0.38769500  0.55246700  1
  C  424  1  0.81997900  0.40236200  0.56747000  1
  C  425  1  0.83731100  0.42582300  0.59188900  1
  C  426  1  0.96879300  0.43451500  0.60138000  1
  C  427  1  0.07887600  0.41899100  0.58714700  1
  C  428  1  0.06009200  0.39594600  0.56311200  1
  C  430  1  0.59932000  0.43080100  0.59601200  1
  C  431  1  0.58243300  0.40781400  0.57162200  1
  C  437  1  0.45754200  0.39788300  0.56150300  1
  C  445  1  0.07921100  0.96399500  0.36731700  1
  C  446  1  0.19949200  0.97855500  0.37612900  1
  C  447  1  0.19982700  0.00536800  0.39614500  1
  C  448  1  0.07592000  0.01796100  0.40704200  1
  C  449  1  0.95628300  0.00353700  0.39778900  1
  C  450  1  0.95793200  0.97705800  0.37851000  1
  C  452  1  0.43960500  0.00508500  0.39440500  1
  C  453  1  0.43908500  0.97881600  0.37395000  1
  C  459  1  0.55544800  0.96515300  0.36230800  1
  C  467  1  0.07776700  0.38595600  0.03725900  1
  C  468  1  0.19825500  0.38019500  0.02276200  1
  C  469  1  0.19894300  0.37326600  0.99591200  1
  C  470  1  0.07521000  0.37145100  0.98322500  1
  C  471  1  0.95535600  0.37661400  0.99759100  1
  C  472  1  0.95660400  0.38387600  0.02408700  1
  C  474  1  0.43870700  0.37190500  0.99632700  1
  C  475  1  0.43785600  0.37788800  0.02265000  1
  C  481  1  0.55404900  0.38003900  0.03640300  1
  C  489  1  0.07913600  0.63398600  0.61514600  1
  C  490  1  0.19951300  0.62523900  0.62093000  1
  C  491  1  0.20010100  0.60532600  0.62787000  1
  C  492  1  0.07630900  0.59446900  0.62968000  1
  C  493  1  0.95652900  0.60366300  0.62448400  1
  C  494  1  0.95794200  0.62285600  0.61716600  1
  C  496  1  0.43987500  0.60710000  0.62926000  1
  C  497  1  0.43910600  0.62743500  0.62327100  1
  C  503  1  0.55534200  0.63904000  0.62114000  1
  C  511  1  0.08064400  0.02531100  0.64582400  1
  C  512  1  0.20112100  0.01091000  0.63654500  1
  C  513  1  0.20136200  0.98398700  0.61680500  1
  C  514  1  0.07717800  0.97114200  0.60661300  1
  C  515  1  0.95741300  0.98541500  0.61631500  1
  C  516  1  0.95905900  0.01195900  0.63541100  1
  C  518  1  0.44131100  0.98466300  0.61743400  1
  C  519  1  0.44084200  0.01110600  0.63744000  1
  C  525  1  0.55751900  0.02492900  0.64837900  1
  C  533  1  0.07931500  0.60360600  0.97587900  1
  C  534  1  0.19964200  0.60937200  0.99042500  1
  C  535  1  0.20005600  0.61626400  0.01726800  1
  C  536  1  0.07617500  0.61802500  0.02989300  1
  C  537  1  0.95648400  0.61285700  0.01548500  1
  C  538  1  0.95805700  0.60557200  0.98898300  1
  C  540  1  0.43984500  0.61764700  0.01693300  1
  C  541  1  0.43924500  0.61173200  0.99063100  1
  C  547  1  0.55557500  0.60962400  0.97692900  1
  C  555  1  0.07791300  0.35522000  0.39794200  1
  C  556  1  0.19857800  0.36414700  0.39246300  1
  C  557  1  0.19936200  0.38400600  0.38544800  1
  C  558  1  0.07555900  0.39462000  0.38325400  1
  C  559  1  0.95557000  0.38523800  0.38815000  1
  C  560  1  0.95671200  0.36606800  0.39550100  1
  C  562  1  0.43921700  0.38265500  0.38471800  1
  C  563  1  0.43829600  0.36241900  0.39084400  1
  C  569  1  0.55466700  0.35103200  0.39325100  1
  H  7  1  0.99606300  0.90752200  0.37333700  1
  H  8  1  0.92289200  0.87716100  0.29330800  1
  H  9  1  0.92566300  0.82712800  0.32497100  1
  H  22  1  0.99427500  0.44871400  0.09373400  1
  H  23  1  0.92212800  0.39912000  0.12423000  1
  H  24  1  0.92529500  0.48082200  0.17418700  1
  H  37  1  0.99560400  0.62766300  0.55239000  1
  H  38  1  0.92226700  0.70771200  0.60194700  1
  H  39  1  0.92500900  0.67592700  0.52024600  1
  H  52  1  0.99479400  0.08185400  0.63962400  1
  H  53  1  0.92529200  0.11229500  0.71978600  1
  H  54  1  0.92539300  0.16227300  0.68807000  1
  H  67  1  0.99634300  0.54095600  0.91942500  1
  H  68  1  0.92281200  0.59053300  0.88896700  1
  H  69  1  0.92574200  0.50882700  0.83902300  1
  H  82  1  0.99306600  0.36142700  0.46067100  1
  H  83  1  0.92243200  0.28129500  0.41094900  1
  H  84  1  0.92436600  0.31295100  0.49263800  1
  H  97  1  0.05259900  0.52265400  0.62091900  1
  H  98  1  0.10362600  0.57465300  0.70132300  1
  H  99  1  0.98772900  0.49702800  0.67463200  1
  H  112  1  0.05086300  0.38032500  0.92026200  1
  H  113  1  0.10206600  0.29990900  0.89176000  1
  H  114  1  0.98649000  0.32671500  0.84089500  1
  H  127  1  0.04937500  0.08118300  0.47874200  1
  H  128  1  0.10552200  0.10934800  0.42666900  1
  H  129  1  0.98738500  0.16053000  0.50408500  1
  H  142  1  0.05091700  0.46635600  0.39193400  1
  H  143  1  0.10523400  0.41435000  0.31162600  1
  H  144  1  0.98837300  0.49189300  0.33809200  1
  H  157  1  0.05235500  0.60921700  0.09290400  1
  H  158  1  0.10365400  0.68963000  0.12139600  1
  H  159  1  0.98771300  0.66286500  0.17226900  1
  H  172  1  0.05314400  0.90831700  0.53475300  1
  H  173  1  0.10497200  0.87967400  0.58653900  1
  H  174  1  0.98706400  0.82896500  0.50897100  1
  H  191  1  0.77634900  0.79506200  0.22817000  1
  H  192  1  0.79673800  0.75327300  0.18931400  1
  H  194  1  0.26461000  0.74010700  0.17824300  1
  H  198  1  0.53441400  0.81666400  0.22036000  1
  H  200  1  0.03552300  0.83795400  0.26210300  1
  H  202  1  0.96711500  0.72387300  0.15293300  1
  H  213  1  0.77885100  0.41613800  0.20637400  1
  H  214  1  0.79998200  0.41869900  0.24798000  1
  H  216  1  0.26801900  0.42065900  0.26086200  1
  H  220  1  0.53754100  0.38683700  0.18434500  1
  H  222  1  0.03730900  0.40739700  0.16341100  1
  H  224  1  0.96973600  0.41155300  0.27716100  1
  H  235  1  0.77673400  0.77262200  0.58466700  1
  H  236  1  0.79690900  0.81160100  0.58196000  1
  H  238  1  0.26469000  0.82300700  0.58031900  1
  H  242  1  0.53504400  0.78088600  0.61460500  1
  H  244  1  0.03614300  0.73871300  0.59366000  1
  H  246  1  0.96688000  0.84816500  0.58916700  1
  H  257  1  0.77846200  0.19401300  0.78490900  1
  H  258  1  0.79750600  0.23578800  0.82381700  1
  H  260  1  0.26486300  0.24981600  0.83483200  1
  H  264  1  0.53332600  0.17237000  0.79170300  1
  H  266  1  0.03911700  0.15165000  0.75072400  1
  H  268  1  0.96695900  0.26557800  0.86015600  1
  H  279  1  0.77657400  0.57342800  0.80681900  1
  H  280  1  0.79691700  0.57046900  0.76501900  1
  H  282  1  0.26478000  0.56829800  0.75180600  1
  H  286  1  0.53455400  0.60276100  0.82838400  1
  H  288  1  0.03591000  0.58235200  0.84970900  1
  H  290  1  0.96673200  0.57731500  0.73551200  1
  H  301  1  0.78058900  0.21593800  0.42750600  1
  H  302  1  0.80173100  0.17694100  0.43015500  1
  H  304  1  0.26965100  0.16672600  0.43339500  1
  H  308  1  0.53716000  0.21046700  0.39976000  1
  H  310  1  0.03927700  0.25063700  0.41956100  1
  H  312  1  0.97158900  0.14093900  0.42360400  1
  H  323  1  0.14341500  0.83953100  0.39769700  1
  H  324  1  0.17484900  0.83835500  0.43727200  1
  H  326  1  0.73366000  0.83922800  0.46667300  1
  H  330  1  0.40454100  0.80819400  0.39917200  1
  H  332  1  0.84468600  0.83490100  0.36608800  1
  H  334  1  0.05331300  0.82866100  0.47014200  1
  H  345  1  0.14272000  0.54108400  0.16183200  1
  H  346  1  0.17441900  0.58185700  0.16305400  1
  H  348  1  0.73342800  0.61041800  0.16207600  1
  H  352  1  0.40552300  0.57308300  0.19314800  1
  H  354  1  0.84390400  0.51417000  0.16642900  1
  H  356  1  0.05351800  0.62436200  0.17263000  1
  H  367  1  0.14317500  0.60315900  0.46002500  1
  H  368  1  0.17452900  0.56361700  0.41924100  1
  H  370  1  0.73324800  0.53445100  0.39054200  1
  H  374  1  0.40403100  0.60182000  0.42694400  1
  H  376  1  0.84450800  0.63484900  0.48690600  1
  H  378  1  0.05407700  0.53071500  0.37669100  1
  H  389  1  0.14169700  0.14976300  0.61522200  1
  H  390  1  0.17257700  0.15113000  0.57573300  1
  H  392  1  0.73096300  0.15084100  0.54680500  1
  H  396  1  0.40222200  0.18166100  0.61426800  1
  H  398  1  0.84385800  0.15465100  0.64709000  1
  H  400  1  0.05202200  0.16091900  0.54303700  1
  H  411  1  0.14347900  0.44859400  0.85154300  1
  H  412  1  0.17489300  0.40781900  0.85031400  1
  H  414  1  0.73367400  0.37915500  0.85089800  1
  H  418  1  0.40441900  0.41565200  0.81995300  1
  H  420  1  0.84502500  0.47550400  0.84677900  1
  H  422  1  0.05365800  0.36521900  0.84066200  1
  H  433  1  0.14198600  0.38541500  0.55298100  1
  H  434  1  0.17413400  0.42500500  0.59369900  1
  H  436  1  0.73346500  0.45486900  0.62221700  1
  H  440  1  0.40551400  0.38628000  0.58477500  1
  H  442  1  0.84296800  0.35406100  0.52605100  1
  H  444  1  0.05381900  0.45821700  0.63617500  1
  H  455  1  0.86991900  0.96697900  0.37422000  1
  H  456  1  0.86659000  0.01198800  0.40602500  1
  H  458  1  0.32616900  0.03508900  0.41946100  1
  H  462  1  0.62887300  0.98715400  0.35071400  1
  H  464  1  0.15318600  0.92890900  0.35787300  1
  H  466  1  0.00558000  0.04478000  0.44178300  1
  H  477  1  0.86846700  0.38972700  0.03411500  1
  H  478  1  0.86581000  0.37635700  0.98907400  1
  H  480  1  0.32562100  0.36668400  0.96618100  1
  H  484  1  0.62743000  0.34638100  0.01467200  1
  H  486  1  0.15125500  0.41180200  0.07231400  1
  H  488  1  0.00554000  0.37963700  0.95657300  1
  H  499  1  0.86986400  0.62701900  0.61128400  1
  H  500  1  0.86693900  0.59540000  0.62471100  1
  H  502  1  0.32671000  0.58216500  0.63444900  1
  H  506  1  0.62879400  0.65090200  0.65478200  1
  H  508  1  0.15246300  0.64314200  0.58925800  1
  H  510  1  0.00647800  0.55967800  0.62167000  1
  H  521  1  0.87060300  0.02190000  0.63993200  1
  H  522  1  0.86737800  0.97678300  0.60853600  1
  H  524  1  0.32734800  0.95424400  0.59334800  1
  H  528  1  0.62060300  0.00673800  0.66501200  1
  H  530  1  0.15228100  0.06035300  0.65453400  1
  H  532  1  0.00480000  0.94439400  0.57207800  1
  H  543  1  0.87000400  0.59977000  0.97892000  1
  H  544  1  0.86680800  0.61311000  0.02396100  1
  H  546  1  0.32649100  0.62274300  0.04700000  1
  H  550  1  0.62900400  0.64325300  0.99877800  1
  H  552  1  0.15318100  0.57784800  0.94079600  1
  H  554  1  0.00604000  0.61004000  0.05667100  1
  H  565  1  0.86833700  0.36177400  0.40116300  1
  H  566  1  0.86591000  0.39332200  0.38763200  1
  H  568  1  0.32606100  0.40728600  0.37905700  1
  H  572  1  0.62575600  0.33779800  0.35925600  1
  H  574  1  0.15050500  0.34612100  0.42395700  1
  H  576  1  0.00485100  0.42930700  0.39116100  1
  N  187  1  0.25180600  0.75667700  0.19436900  1
  N  190  1  0.22435000  0.80326600  0.23891000  1
  N  199  1  0.97091400  0.82435800  0.25906500  1
  N  201  1  0.01368900  0.72703400  0.16877400  1
  N  209  1  0.25495100  0.42033500  0.24435300  1
  N  212  1  0.22672700  0.41868600  0.19796700  1
  N  221  1  0.97306400  0.41796300  0.17710000  1
  N  223  1  0.01753500  0.42411900  0.27401800  1
  N  231  1  0.25201600  0.80684500  0.58069900  1
  N  234  1  0.22490000  0.76217400  0.58251200  1
  N  243  1  0.97174500  0.74176200  0.58306600  1
  N  245  1  0.01390800  0.83235100  0.57657200  1
  N  253  1  0.25255500  0.23327000  0.81865600  1
  N  256  1  0.22654800  0.18672300  0.77400500  1
  N  265  1  0.97378700  0.16517400  0.75389200  1
  N  267  1  0.01333900  0.26245300  0.84431000  1
  N  275  1  0.25198600  0.56875100  0.76838000  1
  N  278  1  0.22457000  0.57082600  0.81498100  1
  N  287  1  0.97124000  0.57183000  0.83611000  1
  N  289  1  0.01387800  0.56475500  0.73876600  1
  N  297  1  0.25651900  0.18290600  0.43306800  1
  N  300  1  0.22818000  0.22762300  0.43137500  1
  N  309  1  0.97449000  0.24736000  0.42993700  1
  N  311  1  0.01891200  0.15668500  0.43623500  1
  N  319  1  0.72553000  0.84039800  0.45084900  1
  N  322  1  0.69488000  0.84270100  0.40644300  1
  N  331  1  0.91725500  0.84467100  0.37799700  1
  N  333  1  0.99408700  0.84182600  0.47023200  1
  N  341  1  0.72520000  0.59340300  0.16086000  1
  N  344  1  0.69424900  0.54666200  0.15847500  1
  N  353  1  0.91646500  0.51626500  0.15662900  1
  N  355  1  0.99374700  0.61137100  0.15953500  1
  N  363  1  0.72514000  0.55024600  0.40756000  1
  N  366  1  0.69456900  0.59458800  0.45432200  1
  N  375  1  0.91696900  0.62293700  0.48481400  1
  N  377  1  0.99358500  0.53075500  0.38965800  1
  N  385  1  0.72304100  0.14958700  0.56258600  1
  N  388  1  0.69298200  0.14704000  0.60687200  1
  N  397  1  0.91563700  0.14471700  0.63503500  1
  N  399  1  0.99110900  0.14801500  0.54299300  1
  N  407  1  0.72553900  0.39616500  0.85210300  1
  N  410  1  0.69488800  0.44291900  0.85450600  1
  N  419  1  0.91717300  0.47341400  0.85666500  1
  N  421  1  0.99407600  0.37830700  0.85371800  1
  N  429  1  0.72508000  0.43905500  0.60522100  1
  N  432  1  0.69367900  0.39464800  0.55853800  1
  N  441  1  0.91559500  0.36595000  0.52816500  1
  N  443  1  0.99395700  0.45819900  0.62313600  1
  N  451  1  0.32145100  0.01724700  0.40490400  1
  N  454  1  0.31876800  0.96677200  0.36611300  1
  N  463  1  0.08282600  0.93713300  0.35300800  1
  N  465  1  0.06554400  0.04282100  0.42793400  1
  N  473  1  0.32070600  0.37011300  0.98407000  1
  N  476  1  0.31738200  0.38209900  0.03464000  1
  N  485  1  0.08085500  0.39870400  0.06412700  1
  N  487  1  0.06539400  0.36766900  0.95842200  1
  N  495  1  0.32183400  0.59663500  0.63103400  1
  N  498  1  0.31867000  0.63521300  0.61904200  1
  N  507  1  0.08218700  0.64808900  0.60237900  1
  N  509  1  0.06615200  0.57355900  0.63362200  1
  N  517  1  0.32290500  0.97222200  0.60764000  1
  N  520  1  0.32056300  0.02299000  0.64581000  1
  N  529  1  0.08307200  0.05219600  0.65973400  1
  N  531  1  0.06633100  0.94630700  0.58570600  1
  N  539  1  0.32172100  0.61939000  0.02913400  1
  N  542  1  0.31888700  0.60752100  0.97860200  1
  N  551  1  0.08280600  0.59093500  0.94901300  1
  N  553  1  0.06584800  0.62197800  0.05474800  1
  N  561  1  0.32116500  0.39287800  0.38256700  1
  N  564  1  0.31773100  0.35442100  0.39473800  1
  N  573  1  0.08057600  0.34117500  0.41076900  1
  N  575  1  0.06563300  0.41557500  0.37937500  1
  O  13  1  0.89512100  0.92993200  0.32601100  1
  O  14  1  0.83288100  0.80607100  0.27807600  1
  O  15  1  0.06018100  0.88089500  0.39411800  1
  O  28  1  0.89347400  0.37895800  0.07148000  1
  O  29  1  0.83302200  0.45494800  0.19531800  1
  O  30  1  0.05902100  0.49613100  0.12034600  1
  O  43  1  0.89493100  0.67520300  0.62218000  1
  O  44  1  0.83196300  0.72279200  0.54603200  1
  O  45  1  0.05945100  0.60678600  0.50495400  1
  O  58  1  0.89895800  0.05966600  0.68759800  1
  O  59  1  0.83309200  0.18323600  0.73501700  1
  O  60  1  0.05803200  0.10842700  0.61875200  1
  O  73  1  0.89534700  0.61071000  0.94171600  1
  O  74  1  0.83241300  0.53462900  0.81795100  1
  O  75  1  0.06030200  0.49352300  0.89284000  1
  O  88  1  0.89438400  0.31380600  0.39072700  1
  O  89  1  0.83178800  0.26589500  0.46655300  1
  O  90  1  0.05816800  0.38212100  0.50805400  1
  O  103  1  0.16326800  0.59542000  0.67502700  1
  O  104  1  0.08696600  0.52136100  0.72165800  1
  O  105  1  0.91667000  0.48078700  0.60246000  1
  O  118  1  0.16131200  0.32613600  0.93884100  1
  O  119  1  0.08531300  0.27972800  0.81812300  1
  O  120  1  0.91518800  0.39884100  0.89685600  1
  O  133  1  0.16268500  0.06225800  0.40598000  1
  O  134  1  0.08864500  0.18307400  0.47986100  1
  O  135  1  0.91249900  0.10481600  0.52045600  1
  O  148  1  0.16437200  0.39371100  0.33809100  1
  O  149  1  0.08934400  0.46762300  0.29123100  1
  O  150  1  0.91437300  0.50812800  0.41016400  1
  O  163  1  0.16312900  0.66336700  0.07431800  1
  O  164  1  0.08672500  0.70989600  0.19502200  1
  O  165  1  0.91644000  0.59071800  0.11627500  1
  O  178  1  0.16797300  0.92670000  0.60711300  1
  O  179  1  0.08690100  0.80612800  0.53315700  1
  O  180  1  0.91650500  0.88504900  0.49292100  1
  O  193  1  0.48547700  0.75962700  0.19789600  1
  O  196  1  0.45420600  0.81903400  0.26880900  1
  O  197  1  0.52891200  0.82052800  0.23690400  1
  O  215  1  0.48856200  0.42097400  0.24132600  1
  O  218  1  0.45601300  0.43298700  0.18222800  1
  O  219  1  0.53171200  0.39957800  0.18057500  1
  O  237  1  0.48571600  0.80344900  0.58026500  1
  O  240  1  0.45504400  0.73240700  0.56853400  1
  O  241  1  0.52967000  0.76434100  0.60192200  1
  O  259  1  0.48630600  0.23074300  0.81510000  1
  O  262  1  0.45679300  0.17238600  0.74419800  1
  O  263  1  0.52853100  0.16906900  0.77532900  1
  O  281  1  0.48566200  0.56814800  0.77131300  1
  O  284  1  0.45443600  0.55666100  0.83072300  1
  O  285  1  0.52906500  0.59007600  0.83224200  1
  O  303  1  0.49007400  0.18691200  0.43430700  1
  O  306  1  0.45653800  0.25789600  0.44696600  1
  O  307  1  0.53131200  0.22684000  0.41279800  1
  O  325  1  0.49308700  0.84077900  0.45634200  1
  O  328  1  0.43981500  0.85835600  0.40189700  1
  O  329  1  0.39588000  0.82199500  0.39708800  1
  O  347  1  0.49279700  0.59852600  0.16039900  1
  O  350  1  0.43978600  0.52663000  0.14209700  1
  O  351  1  0.39658500  0.55738600  0.17908900  1
  O  369  1  0.49268700  0.54485300  0.40237600  1
  O  372  1  0.43946000  0.59929800  0.47448900  1
  O  373  1  0.39530300  0.60394200  0.44284200  1
  O  391  1  0.49052500  0.14938800  0.55727500  1
  O  394  1  0.43805800  0.13153900  0.61161100  1
  O  395  1  0.39364300  0.16786100  0.61635500  1
  O  413  1  0.49310100  0.39101100  0.85240400  1
  O  416  1  0.43980500  0.46309300  0.87011100  1
  O  417  1  0.39573200  0.43153300  0.83375800  1
  O  435  1  0.49273200  0.44477800  0.61033800  1
  O  438  1  0.43910500  0.39129500  0.53854900  1
  O  439  1  0.39647900  0.38474700  0.56912300  1
  O  457  1  0.55565500  0.01822300  0.40418700  1
  O  460  1  0.56079100  0.94195300  0.35564500  1
  O  461  1  0.62949300  0.97169400  0.34977600  1
  O  479  1  0.55492800  0.36849400  0.98322200  1
  O  482  1  0.55916700  0.39672900  0.05955300  1
  O  483  1  0.62790400  0.36097900  0.03006600  1
  O  501  1  0.55604600  0.59739900  0.63267900  1
  O  504  1  0.56051000  0.64553500  0.60447500  1
  O  505  1  0.62931200  0.65171600  0.64019400  1
  O  523  1  0.55744400  0.97162800  0.60748600  1
  O  526  1  0.56427500  0.04712700  0.65185700  1
  O  527  1  0.62297900  0.02120100  0.66397100  1
  O  545  1  0.55594100  0.62101900  0.03006400  1
  O  548  1  0.56083500  0.59299800  0.95375900  1
  O  549  1  0.62955300  0.62868700  0.98335700  1
  O  567  1  0.55552600  0.39244600  0.38147700  1
  O  570  1  0.55911300  0.34539100  0.41054600  1
  O  571  1  0.62624500  0.33744900  0.37409200  1
