# generated using pymatgen
data_ZnH2(C3O2)2
_symmetry_space_group_name_H-M   'P 1'
_cell_length_a   18.94338010
_cell_length_b   18.94492896
_cell_length_c   18.95119000
_cell_angle_alpha   60.01183606
_cell_angle_beta   90.00000000
_cell_angle_gamma   119.99729557
_symmetry_Int_Tables_number   1
_chemical_formula_structural   ZnH2(C3O2)2
_chemical_formula_sum   'Zn12 H24 C72 O48'
_cell_volume   4810.24681656
_cell_formula_units_Z   12
loop_
 _symmetry_equiv_pos_site_id
 _symmetry_equiv_pos_as_xyz
  1  'x, y, z'
loop_
 _atom_site_type_symbol
 _atom_site_label
 _atom_site_symmetry_multiplicity
 _atom_site_fract_x
 _atom_site_fract_y
 _atom_site_fract_z
 _atom_site_occupancy
  Zn  Zn1  1  0.49999000  0.99998000  0.93228000  1.0
  Zn  Zn2  1  0.93226000  1.00000000  0.50000000  1.0
  Zn  Zn3  1  0.50001000  0.00002000  0.06772000  1.0
  Zn  Zn4  1  0.06774000  0.00000000  0.50000000  1.0
  Zn  Zn5  1  0.50000000  0.56774000  0.50000000  1.0
  Zn  Zn6  1  0.93226000  0.43227000  0.06772000  1.0
  Zn  Zn7  1  0.50000000  0.43226000  0.50000000  1.0
  Zn  Zn8  1  0.06774000  0.56773000  0.93227000  1.0
  Zn  Zn9  1  0.50001000  0.43227000  0.06772000  1.0
  Zn  Zn10  1  0.93226000  0.43226000  0.49999000  1.0
  Zn  Zn11  1  0.49999000  0.56773000  0.93227000  1.0
  Zn  Zn12  1  0.06774000  0.56774000  0.50000000  1.0
  H  H1  1  0.23325000  0.76070000  0.00605000  1.0
  H  H2  1  0.00601000  0.23930000  0.23326000  1.0
  H  H3  1  0.52745000  0.76073000  0.23325000  1.0
  H  H4  1  0.23328000  0.23927000  0.52745000  1.0
  H  H5  1  0.23327000  0.46654000  0.52745000  1.0
  H  H6  1  0.00602000  0.53346000  0.23326000  1.0
  H  H7  1  0.52745000  0.53347000  0.23325000  1.0
  H  H8  1  0.23324000  0.46648000  0.00607000  1.0
  H  H9  1  0.23329000  0.23930000  0.23326000  1.0
  H  H10  1  0.00600000  0.23928000  0.52744000  1.0
  H  H11  1  0.52745000  0.76069000  0.00606000  1.0
  H  H12  1  0.23328000  0.76072000  0.23326000  1.0
  H  H13  1  0.99398000  0.46653000  0.76675000  1.0
  H  H14  1  0.76676000  0.53351000  0.99393000  1.0
  H  H15  1  0.76673000  0.53345000  0.47255000  1.0
  H  H16  1  0.47256000  0.46654000  0.76674000  1.0
  H  H17  1  0.47256000  0.23928000  0.76674000  1.0
  H  H18  1  0.76676000  0.23931000  0.99393000  1.0
  H  H19  1  0.76672000  0.76072000  0.47255000  1.0
  H  H20  1  0.99399000  0.76070000  0.76674000  1.0
  H  H21  1  0.76671000  0.76070000  0.76674000  1.0
  H  H22  1  0.47256000  0.23931000  0.99393000  1.0
  H  H23  1  0.99401000  0.76072000  0.47255000  1.0
  H  H24  1  0.76672000  0.23927000  0.76675000  1.0
  C  C1  1  0.33521000  0.85891000  0.07055000  1.0
  C  C2  1  0.24258000  0.77109000  0.11447000  1.0
  C  C3  1  0.07055000  0.14110000  0.33521000  1.0
  C  C4  1  0.11445000  0.22890000  0.24259000  1.0
  C  C5  1  0.52370000  0.85891000  0.07055000  1.0
  C  C6  1  0.52851000  0.77109000  0.11447000  1.0
  C  C7  1  0.07054000  0.14108000  0.52369000  1.0
  C  C8  1  0.11445000  0.22890000  0.52851000  1.0
  C  C9  1  0.33523000  0.40576000  0.52370000  1.0
  C  C10  1  0.24259000  0.35703000  0.52852000  1.0
  C  C11  1  0.07054000  0.59424000  0.07054000  1.0
  C  C12  1  0.11444000  0.64295000  0.11447000  1.0
  C  C13  1  0.52369000  0.59424000  0.33521000  1.0
  C  C14  1  0.52851000  0.64296000  0.24259000  1.0
  C  C15  1  0.07054000  0.40576000  0.07054000  1.0
  C  C16  1  0.11443000  0.35701000  0.11448000  1.0
  C  C17  1  0.33522000  0.40576000  0.07054000  1.0
  C  C18  1  0.24258000  0.35701000  0.11448000  1.0
  C  C19  1  0.07053000  0.40576000  0.52370000  1.0
  C  C20  1  0.11444000  0.35703000  0.52852000  1.0
  C  C21  1  0.52370000  0.59424000  0.07054000  1.0
  C  C22  1  0.52851000  0.64295000  0.11447000  1.0
  C  C23  1  0.07055000  0.59424000  0.33521000  1.0
  C  C24  1  0.11445000  0.64296000  0.24259000  1.0
  C  C25  1  0.92945000  0.40576000  0.66478000  1.0
  C  C26  1  0.88555000  0.35704000  0.75741000  1.0
  C  C27  1  0.66478000  0.59425000  0.92945000  1.0
  C  C28  1  0.75742000  0.64298000  0.88553000  1.0
  C  C29  1  0.92946000  0.59423000  0.47630000  1.0
  C  C30  1  0.88556000  0.64297000  0.47148000  1.0
  C  C31  1  0.47630000  0.40577000  0.92944000  1.0
  C  C32  1  0.47149000  0.35705000  0.88553000  1.0
  C  C33  1  0.47631000  0.40576000  0.66479000  1.0
  C  C34  1  0.47149000  0.35704000  0.75741000  1.0
  C  C35  1  0.92947000  0.40577000  0.92944000  1.0
  C  C36  1  0.88556000  0.35705000  0.88553000  1.0
  C  C37  1  0.66477000  0.59423000  0.47630000  1.0
  C  C38  1  0.75741000  0.64297000  0.47148000  1.0
  C  C39  1  0.92947000  0.59425000  0.92945000  1.0
  C  C40  1  0.88557000  0.64299000  0.88552000  1.0
  C  C41  1  0.92945000  0.85890000  0.66479000  1.0
  C  C42  1  0.88555000  0.77110000  0.75740000  1.0
  C  C43  1  0.47630000  0.14109000  0.92944000  1.0
  C  C44  1  0.47149000  0.22891000  0.88553000  1.0
  C  C45  1  0.92946000  0.85892000  0.47630000  1.0
  C  C46  1  0.88556000  0.77111000  0.47148000  1.0
  C  C47  1  0.66479000  0.14109000  0.92944000  1.0
  C  C48  1  0.75742000  0.22891000  0.88553000  1.0
  C  C49  1  0.19977000  0.72838000  0.07185000  1.0
  C  C50  1  0.07183000  0.27162000  0.19977000  1.0
  C  C51  1  0.52861000  0.72840000  0.19976000  1.0
  C  C52  1  0.19979000  0.27161000  0.52861000  1.0
  C  C53  1  0.19978000  0.39956000  0.52862000  1.0
  C  C54  1  0.07183000  0.60044000  0.19977000  1.0
  C  C55  1  0.52861000  0.60044000  0.19977000  1.0
  C  C56  1  0.19977000  0.39954000  0.07185000  1.0
  C  C57  1  0.19979000  0.27162000  0.19977000  1.0
  C  C58  1  0.07182000  0.27161000  0.52861000  1.0
  C  C59  1  0.52861000  0.72838000  0.07185000  1.0
  C  C60  1  0.19979000  0.72840000  0.19976000  1.0
  C  C61  1  0.92817000  0.39956000  0.80022000  1.0
  C  C62  1  0.80023000  0.60046000  0.92815000  1.0
  C  C63  1  0.80022000  0.60044000  0.47137000  1.0
  C  C64  1  0.47139000  0.39956000  0.80022000  1.0
  C  C65  1  0.47139000  0.27160000  0.80023000  1.0
  C  C66  1  0.80023000  0.27162000  0.92815000  1.0
  C  C67  1  0.80021000  0.72839000  0.47139000  1.0
  C  C68  1  0.92817000  0.72838000  0.80022000  1.0
  C  C69  1  0.80021000  0.72838000  0.80022000  1.0
  C  C70  1  0.47139000  0.27162000  0.92815000  1.0
  C  C71  1  0.92819000  0.72840000  0.47138000  1.0
  C  C72  1  0.80021000  0.27160000  0.80023000  1.0
  O  O1  1  0.37148000  0.89253000  0.99357000  1.0
  O  O2  1  0.99353000  0.10746000  0.37150000  1.0
  O  O3  1  0.52106000  0.89257000  0.11392000  1.0
  O  O4  1  0.11393000  0.10744000  0.52104000  1.0
  O  O5  1  0.37152000  0.48544000  0.52104000  1.0
  O  O6  1  0.99352000  0.51457000  0.11391000  1.0
  O  O7  1  0.52104000  0.51457000  0.37149000  1.0
  O  O8  1  0.11390000  0.48538000  0.99358000  1.0
  O  O9  1  0.37152000  0.36503000  0.11391000  1.0
  O  O10  1  0.99351000  0.36503000  0.52104000  1.0
  O  O11  1  0.52104000  0.63494000  0.99357000  1.0
  O  O12  1  0.11393000  0.63497000  0.37150000  1.0
  O  O13  1  0.00647000  0.48543000  0.62850000  1.0
  O  O14  1  0.62852000  0.51462000  0.00642000  1.0
  O  O15  1  0.88608000  0.51456000  0.47896000  1.0
  O  O16  1  0.47894000  0.48542000  0.88609000  1.0
  O  O17  1  0.47896000  0.36503000  0.62850000  1.0
  O  O18  1  0.88610000  0.36506000  0.00642000  1.0
  O  O19  1  0.62848000  0.63497000  0.47896000  1.0
  O  O20  1  0.00649000  0.63497000  0.88609000  1.0
  O  O21  1  0.88607000  0.89254000  0.62850000  1.0
  O  O22  1  0.47895000  0.10746000  0.00644000  1.0
  O  O23  1  0.00649000  0.89256000  0.47895000  1.0
  O  O24  1  0.62849000  0.10743000  0.88608000  1.0
  O  O25  1  0.62852000  0.10747000  0.00643000  1.0
  O  O26  1  0.00647000  0.89253000  0.62851000  1.0
  O  O27  1  0.47894000  0.10743000  0.88608000  1.0
  O  O28  1  0.88607000  0.89256000  0.47895000  1.0
  O  O29  1  0.62849000  0.51457000  0.47894000  1.0
  O  O30  1  0.00648000  0.48542000  0.88609000  1.0
  O  O31  1  0.47896000  0.48543000  0.62850000  1.0
  O  O32  1  0.88610000  0.51461000  0.00643000  1.0
  O  O33  1  0.62848000  0.63497000  0.88609000  1.0
  O  O34  1  0.00649000  0.63497000  0.47896000  1.0
  O  O35  1  0.47896000  0.36505000  0.00643000  1.0
  O  O36  1  0.88607000  0.36503000  0.62850000  1.0
  O  O37  1  0.99354000  0.51458000  0.37148000  1.0
  O  O38  1  0.37148000  0.48538000  0.99358000  1.0
  O  O39  1  0.11392000  0.48544000  0.52104000  1.0
  O  O40  1  0.52106000  0.51457000  0.11391000  1.0
  O  O41  1  0.52104000  0.63497000  0.37150000  1.0
  O  O42  1  0.11390000  0.63494000  0.99357000  1.0
  O  O43  1  0.37152000  0.36503000  0.52104000  1.0
  O  O44  1  0.99351000  0.36503000  0.11391000  1.0
  O  O45  1  0.11394000  0.10747000  0.37149000  1.0
  O  O46  1  0.52105000  0.89253000  0.99357000  1.0
  O  O47  1  0.99351000  0.10744000  0.52104000  1.0
  O  O48  1  0.37152000  0.89258000  0.11391000  1.0
