# generated using pymatgen
data_H37C55
_symmetry_space_group_name_H-M   'P 1'
_cell_length_a   22.75580000
_cell_length_b   37.11220000
_cell_length_c   41.62240000
_cell_angle_alpha   90.00000000
_cell_angle_beta   90.01360000
_cell_angle_gamma   89.98600000
_symmetry_Int_Tables_number   1
_chemical_formula_structural   H37C55
_chemical_formula_sum   'H148 C220'
_cell_volume   35150.85567078
_cell_formula_units_Z   4
loop_
 _symmetry_equiv_pos_site_id
 _symmetry_equiv_pos_as_xyz
  1  'x, y, z'
loop_
 _atom_site_type_symbol
 _atom_site_label
 _atom_site_symmetry_multiplicity
 _atom_site_fract_x
 _atom_site_fract_y
 _atom_site_fract_z
 _atom_site_occupancy
  C  1  1  0.00762300  0.90391150  0.16589400  1
  C  2  1  0.95631600  0.91827550  0.15157700  1
  C  3  1  0.95610600  0.95295500  0.13784900  1
  C  4  1  0.00626100  0.97578800  0.13872600  1
  C  5  1  0.05846800  0.95995150  0.15108200  1
  C  6  1  0.05903500  0.92527550  0.16473350  1
  C  7  1  0.00360800  0.01386700  0.12436000  1
  C  8  1  0.00082600  0.00532800  0.08827500  1
  C  9  1  0.05020200  0.99004250  0.07236700  1
  C  10  1  0.04977200  0.98194950  0.03932400  1
  C  11  1  0.99934000  0.98807350  0.02014100  1
  C  12  1  0.94877800  0.00119550  0.03615200  1
  C  13  1  0.94923000  0.00878400  0.06929300  1
  C  14  1  0.95180400  0.03633200  0.13687800  1
  C  15  1  0.05588000  0.03768500  0.13393000  1
  C  16  1  0.08961600  0.05813700  0.11172500  1
  C  17  1  0.13979200  0.07759000  0.12125400  1
  C  18  1  0.15741300  0.07884400  0.15380200  1
  C  19  1  0.12109000  0.06154300  0.17660000  1
  C  20  1  0.07124200  0.04194700  0.16686000  1
  C  21  1  0.92159600  0.02845900  0.16598000  1
  C  22  1  0.87404000  0.04939200  0.17685200  1
  C  23  1  0.85518800  0.07970400  0.15924800  1
  C  24  1  0.88679800  0.08958900  0.13149000  1
  C  25  1  0.93521600  0.06891400  0.12125500  1
  C  42  1  0.00764100  0.06469300  0.84048300  1
  C  43  1  0.95631000  0.05033000  0.85474900  1
  C  44  1  0.95609400  0.01565600  0.86848900  1
  C  45  1  0.00624300  0.99280150  0.86762100  1
  C  46  1  0.05847700  0.00864400  0.85533150  1
  C  47  1  0.05906500  0.04332900  0.84170200  1
  C  48  1  0.00359800  0.95472550  0.88199000  1
  C  49  1  0.00083900  0.96325350  0.91807600  1
  C  50  1  0.05021600  0.97852350  0.93399700  1
  C  51  1  0.04978400  0.98662850  0.96703700  1
  C  52  1  0.99934000  0.98055150  0.98620300  1
  C  53  1  0.94876400  0.96746550  0.97017600  1
  C  54  1  0.94922200  0.95986650  0.93703800  1
  C  55  1  0.95178400  0.93227650  0.86947800  1
  C  56  1  0.05587500  0.93090600  0.87241600  1
  C  57  1  0.08962100  0.91042800  0.89461250  1
  C  58  1  0.13979300  0.89096450  0.88508100  1
  C  59  1  0.15740900  0.88973700  0.85253600  1
  C  60  1  0.12110200  0.90709000  0.82974500  1
  C  61  1  0.07122100  0.92666000  0.83948600  1
  C  62  1  0.92158900  0.94012550  0.84035500  1
  C  63  1  0.87404000  0.91919550  0.82947800  1
  C  64  1  0.85520600  0.88889350  0.84708600  1
  C  65  1  0.88681600  0.87901850  0.87485600  1
  C  66  1  0.93522000  0.89969550  0.88509800  1
  C  83  1  0.50121200  0.56468200  0.66584400  1
  C  84  1  0.55252200  0.55031350  0.65155100  1
  C  85  1  0.55273400  0.51563750  0.63781500  1
  C  86  1  0.50260200  0.49278600  0.63871200  1
  C  87  1  0.45038200  0.50863350  0.65103100  1
  C  88  1  0.44979200  0.54332650  0.66465100  1
  C  89  1  0.50525200  0.45470550  0.62435300  1
  C  90  1  0.50802000  0.46322100  0.58826400  1
  C  91  1  0.45865200  0.47851550  0.57234100  1
  C  92  1  0.45909600  0.48662050  0.53929900  1
  C  93  1  0.50954000  0.48052150  0.52013800  1
  C  94  1  0.56010600  0.46740600  0.53616400  1
  C  95  1  0.55963600  0.45980200  0.56930300  1
  C  96  1  0.55707600  0.43225250  0.63686900  1
  C  97  1  0.45297800  0.43089750  0.63392700  1
  C  98  1  0.41921500  0.41044150  0.61173000  1
  C  99  1  0.36905100  0.39098800  0.62126700  1
  C  100  1  0.35146700  0.38974150  0.65381700  1
  C  101  1  0.38780800  0.40705800  0.67660500  1
  C  102  1  0.43765900  0.42664000  0.66685700  1
  C  103  1  0.58731000  0.44012350  0.66597300  1
  C  104  1  0.63488200  0.41919750  0.67684600  1
  C  105  1  0.65368400  0.38886500  0.65925900  1
  C  106  1  0.62202600  0.37896200  0.63151500  1
  C  107  1  0.57362000  0.39965150  0.62126900  1
  C  124  1  0.50119500  0.40390850  0.34045400  1
  C  125  1  0.55249200  0.41822650  0.35480200  1
  C  126  1  0.55272000  0.45289700  0.36854900  1
  C  127  1  0.50261900  0.47579050  0.36761000  1
  C  128  1  0.45040800  0.45999100  0.35524000  1
  C  129  1  0.44981000  0.42531050  0.34159600  1
  C  130  1  0.50531200  0.51386150  0.38199000  1
  C  131  1  0.50808600  0.50533900  0.41807900  1
  C  132  1  0.45873200  0.49001500  0.43396800  1
  C  133  1  0.45914400  0.48192300  0.46701300  1
  C  134  1  0.50955800  0.48804950  0.48620400  1
  C  135  1  0.56010800  0.50119400  0.47020900  1
  C  136  1  0.55966800  0.50878750  0.43707100  1
  C  137  1  0.55715000  0.53628700  0.36948200  1
  C  138  1  0.45304400  0.53770100  0.37241750  1
  C  139  1  0.41926800  0.55813600  0.39462400  1
  C  140  1  0.36908800  0.57759650  0.38508900  1
  C  141  1  0.35150500  0.57887500  0.35253600  1
  C  142  1  0.38787500  0.56159750  0.32974100  1
  C  143  1  0.43776600  0.54202350  0.33948300  1
  C  144  1  0.58744600  0.52837650  0.34041300  1
  C  145  1  0.63501800  0.54929100  0.32955700  1
  C  146  1  0.65373400  0.57966050  0.34711500  1
  C  147  1  0.62202200  0.58959900  0.37482400  1
  C  148  1  0.57364200  0.56890850  0.38506700  1
  C  165  1  0.00764500  0.86928800  0.18117500  1
  C  166  1  0.96051600  0.85838850  0.20117200  1
  C  167  1  0.96126200  0.82492550  0.21712300  1
  C  168  1  0.00952200  0.80110750  0.21393300  1
  C  169  1  0.05618300  0.81161500  0.19353500  1
  C  170  1  0.05531800  0.84506400  0.17757300  1
  C  171  1  0.01185200  0.76777650  0.22946000  1
  C  172  1  0.99452000  0.76196550  0.25993900  1
  C  173  1  0.99923000  0.72896950  0.27543800  1
  C  174  1  0.05493900  0.71425650  0.28291500  1
  C  175  1  0.06042800  0.68253550  0.30157200  1
  C  176  1  0.00846800  0.66595550  0.31313300  1
  C  177  1  0.95221400  0.67987850  0.30574100  1
  C  178  1  0.94822400  0.71166650  0.28713900  1
  C  179  1  0.90245600  0.66412450  0.31908150  1
  C  180  1  0.85734200  0.65113250  0.30164400  1
  C  181  1  0.80717400  0.63487700  0.31443800  1
  C  182  1  0.75183400  0.64091450  0.29980400  1
  C  183  1  0.80980200  0.61041950  0.34055400  1
  C  184  1  0.75884400  0.59307600  0.35192100  1
  C  185  1  0.70390400  0.59926800  0.33714600  1
  C  186  1  0.70092400  0.62327050  0.31088500  1
  C  187  1  0.11614100  0.67045050  0.31063400  1
  C  188  1  0.13247700  0.63561250  0.31158500  1
  C  189  1  0.18698500  0.62397900  0.32239400  1
  C  190  1  0.23942500  0.63267750  0.30593900  1
  C  191  1  0.19030300  0.60097000  0.34936800  1
  C  192  1  0.24469900  0.58716050  0.35973300  1
  C  193  1  0.29737500  0.59536150  0.34316300  1
  C  194  1  0.29374000  0.61841250  0.31611100  1
  C  216  1  0.00768200  0.09931300  0.82519400  1
  C  217  1  0.96060400  0.11020900  0.80514400  1
  C  218  1  0.96135900  0.14367900  0.78920100  1
  C  219  1  0.00960100  0.16749000  0.79243800  1
  C  220  1  0.05621000  0.15698600  0.81288800  1
  C  221  1  0.05533600  0.12353200  0.82884100  1
  C  222  1  0.01193900  0.20082300  0.77691300  1
  C  223  1  0.99473000  0.20661600  0.74640600  1
  C  224  1  0.99943800  0.23960700  0.73090800  1
  C  225  1  0.05512400  0.25430300  0.72341200  1
  C  226  1  0.06056800  0.28602950  0.70476100  1
  C  227  1  0.00858300  0.30262900  0.69322500  1
  C  228  1  0.95234600  0.28870100  0.70061500  1
  C  229  1  0.94839600  0.25691900  0.71922500  1
  C  230  1  0.90255600  0.30444950  0.68727700  1
  C  231  1  0.85749400  0.31748450  0.70472100  1
  C  232  1  0.80727000  0.33372800  0.69194000  1
  C  233  1  0.75200800  0.32778050  0.70666700  1
  C  234  1  0.80976400  0.35803650  0.66571100  1
  C  235  1  0.75875200  0.37534850  0.65434800  1
  C  236  1  0.70389000  0.36926700  0.66922700  1
  C  237  1  0.70105000  0.34540150  0.69559000  1
  C  238  1  0.11625700  0.29814150  0.69571300  1
  C  239  1  0.13254100  0.33298450  0.69477600  1
  C  240  1  0.18702300  0.34464250  0.68398100  1
  C  241  1  0.23948600  0.33595950  0.70044300  1
  C  242  1  0.19029100  0.36763550  0.65699600  1
  C  243  1  0.24465900  0.38146350  0.64663900  1
  C  244  1  0.29737000  0.37325000  0.66319400  1
  C  245  1  0.29378400  0.35020850  0.69025100  1
  C  267  1  0.50118200  0.59930550  0.68112700  1
  C  268  1  0.54831200  0.61020850  0.70113400  1
  C  269  1  0.54756200  0.64367450  0.71708200  1
  C  270  1  0.49929200  0.66748550  0.71388300  1
  C  271  1  0.45264200  0.65698000  0.69346700  1
  C  272  1  0.45350200  0.62352400  0.67751700  1
  C  273  1  0.49697600  0.70082400  0.72939800  1
  C  274  1  0.51426800  0.70663100  0.75988900  1
  C  275  1  0.50957100  0.73962750  0.77538300  1
  C  276  1  0.45387600  0.75432200  0.78288800  1
  C  277  1  0.44840000  0.78605550  0.80153100  1
  C  278  1  0.50038200  0.80264300  0.81307500  1
  C  279  1  0.55663200  0.78872550  0.80566800  1
  C  280  1  0.56059600  0.75694150  0.78706300  1
  C  281  1  0.60640400  0.80445450  0.81903000  1
  C  282  1  0.65144200  0.81752950  0.80160100  1
  C  283  1  0.70166200  0.83374550  0.81439900  1
  C  284  1  0.75690400  0.82788200  0.79961300  1
  C  285  1  0.69918000  0.85798550  0.84068000  1
  C  286  1  0.75017800  0.87529350  0.85204600  1
  C  287  1  0.80502000  0.86928950  0.83711100  1
  C  288  1  0.80785100  0.84550050  0.81069300  1
  C  289  1  0.39270800  0.79814200  0.81061300  1
  C  290  1  0.37637000  0.83297750  0.81156500  1
  C  291  1  0.32187500  0.84461050  0.82237900  1
  C  292  1  0.26942500  0.83595550  0.80590000  1
  C  293  1  0.31858100  0.86758950  0.84937100  1
  C  294  1  0.26420000  0.88141700  0.85973100  1
  C  295  1  0.21150200  0.87321850  0.84316600  1
  C  296  1  0.21511700  0.85020650  0.81608700  1
  C  318  1  0.50114600  0.36928950  0.32516700  1
  C  319  1  0.54828200  0.35836250  0.30517900  1
  C  320  1  0.54752600  0.32489550  0.28923300  1
  C  321  1  0.49922600  0.30111750  0.29240000  1
  C  322  1  0.45255200  0.31165550  0.31278000  1
  C  323  1  0.45343600  0.34510250  0.32874500  1
  C  324  1  0.49688000  0.26779100  0.27687000  1
  C  325  1  0.51419600  0.26198200  0.24638600  1
  C  326  1  0.50951000  0.22899000  0.23088600  1
  C  327  1  0.45381800  0.21427800  0.22339900  1
  C  328  1  0.44836000  0.18255100  0.20474700  1
  C  329  1  0.50033800  0.16598900  0.19317400  1
  C  330  1  0.55657800  0.17991100  0.20057600  1
  C  331  1  0.56054000  0.21168000  0.21920300  1
  C  332  1  0.60636000  0.16417500  0.18723100  1
  C  333  1  0.65140800  0.15109850  0.20467500  1
  C  334  1  0.70162300  0.13486800  0.19189150  1
  C  335  1  0.75687000  0.14074100  0.20668100  1
  C  336  1  0.69913800  0.11059700  0.16563400  1
  C  337  1  0.75013800  0.09326700  0.15429100  1
  C  338  1  0.80498600  0.09929800  0.16921700  1
  C  339  1  0.80782000  0.12311200  0.19561700  1
  C  340  1  0.39266400  0.17045300  0.19569100  1
  C  341  1  0.37637900  0.13561100  0.19474400  1
  C  342  1  0.32188700  0.12395600  0.18394600  1
  C  343  1  0.26944300  0.13264400  0.20040800  1
  C  344  1  0.31858500  0.10097500  0.15695400  1
  C  345  1  0.26420500  0.08714200  0.14660400  1
  C  346  1  0.21152000  0.09534300  0.16317000  1
  C  347  1  0.21513900  0.11838000  0.19023200  1
  H  26  1  0.16369500  0.09076000  0.10404800  1
  H  27  1  0.07875500  0.05877300  0.08794300  1
  H  28  1  0.13219400  0.06147300  0.20043000  1
  H  29  1  0.04764900  0.02891500  0.18423800  1
  H  30  1  0.93397200  0.00723250  0.18002600  1
  H  31  1  0.85269600  0.04197100  0.19747500  1
  H  32  1  0.87496400  0.11194900  0.11861800  1
  H  33  1  0.95722400  0.07720100  0.10115000  1
  H  34  1  0.91052000  0.01686600  0.07932700  1
  H  35  1  0.91077800  0.00598600  0.02375200  1
  H  36  1  0.08693500  0.97101850  0.02951900  1
  H  37  1  0.08805700  0.98515850  0.08488300  1
  H  38  1  0.09746000  0.97350850  0.15040500  1
  H  39  1  0.91776200  0.96202550  0.12788600  1
  H  40  1  0.91844600  0.90344250  0.15074600  1
  H  41  1  0.09749700  0.91613750  0.17453000  1
  H  67  1  0.16369800  0.87777150  0.90228100  1
  H  68  1  0.07876600  0.90977650  0.91839400  1
  H  69  1  0.13212800  0.90710700  0.80590850  1
  H  70  1  0.04759600  0.93968250  0.82210500  1
  H  71  1  0.93396400  0.96134550  0.82630500  1
  H  72  1  0.85271400  0.92660050  0.80883900  1
  H  73  1  0.87499400  0.85666500  0.88773300  1
  H  74  1  0.95723200  0.89141450  0.90521200  1
  H  75  1  0.91050600  0.95180900  0.92699300  1
  H  76  1  0.91075200  0.96271100  0.98256400  1
  H  77  1  0.08695700  0.99753550  0.97685200  1
  H  78  1  0.08807900  0.98337700  0.92149200  1
  H  79  1  0.09746900  0.99507950  0.85603600  1
  H  80  1  0.91771800  0.00657600  0.87838700  1
  H  81  1  0.91843000  0.06516400  0.85553900  1
  H  82  1  0.09754000  0.05245700  0.83192800  1
  H  108  1  0.34512000  0.37782050  0.60406400  1
  H  109  1  0.43004400  0.40980000  0.58794700  1
  H  110  1  0.37676900  0.40710000  0.70044200  1
  H  111  1  0.46128800  0.43965350  0.68423800  1
  H  112  1  0.57496000  0.46136350  0.68001000  1
  H  113  1  0.65624600  0.42662150  0.69746800  1
  H  114  1  0.63382500  0.35658850  0.61865600  1
  H  115  1  0.55157800  0.39134750  0.60117600  1
  H  116  1  0.59834800  0.45172450  0.57935000  1
  H  117  1  0.59812000  0.46263450  0.52377900  1
  H  118  1  0.42193200  0.49754600  0.52948200  1
  H  119  1  0.42079300  0.48339200  0.58484400  1
  H  120  1  0.41139700  0.49507150  0.65035300  1
  H  121  1  0.59109800  0.50655300  0.62789800  1
  H  122  1  0.59039400  0.56514450  0.65073650  1
  H  123  1  0.41133700  0.55245150  0.67445500  1
  H  149  1  0.34514700  0.59074650  0.40229700  1
  H  150  1  0.43008500  0.55874600  0.41841300  1
  H  151  1  0.37679100  0.56153700  0.30590900  1
  H  152  1  0.46133800  0.52897050  0.32210300  1
  H  153  1  0.57512800  0.50712750  0.32638200  1
  H  154  1  0.65640000  0.54185650  0.30894800  1
  H  155  1  0.63376800  0.61199550  0.38766200  1
  H  156  1  0.55156000  0.57723350  0.40513750  1
  H  157  1  0.59837400  0.51688650  0.42704500  1
  H  158  1  0.59810200  0.50597150  0.48261600  1
  H  159  1  0.42198900  0.47098450  0.47680800  1
  H  160  1  0.42088100  0.48514450  0.42144800  1
  H  161  1  0.41143800  0.47358250  0.35588900  1
  H  162  1  0.59107600  0.46194650  0.37850550  1
  H  163  1  0.59034200  0.40336150  0.35565000  1
  H  164  1  0.41135300  0.41620950  0.33177200  1
  H  195  1  0.92547800  0.87514350  0.20496800  1
  H  196  1  0.92607600  0.81819550  0.23120400  1
  H  197  1  0.08993200  0.85138350  0.16293700  1
  H  198  1  0.09172500  0.79506900  0.19029300  1
  H  199  1  0.90777200  0.72283450  0.28276400  1
  H  200  1  0.09209300  0.72744550  0.27541400  1
  H  201  1  0.01160600  0.64384650  0.32780100  1
  H  202  1  0.23830700  0.64875750  0.28595900  1
  H  203  1  0.74816000  0.65795550  0.28055200  1
  H  204  1  0.66177800  0.62781150  0.29944900  1
  H  205  1  0.76249100  0.57505550  0.37044300  1
  H  206  1  0.84913700  0.60433400  0.35116700  1
  H  207  1  0.33077300  0.62496150  0.30345200  1
  H  208  1  0.24503600  0.56975550  0.37880900  1
  H  209  1  0.15300200  0.59368550  0.36151300  1
  H  210  1  0.85930200  0.65358450  0.27783600  1
  H  211  1  0.90131800  0.66200650  0.34289400  1
  H  212  1  0.02950900  0.74726950  0.21740700  1
  H  213  1  0.97766200  0.78220350  0.27260100  1
  H  214  1  0.10356400  0.61667150  0.30558200  1
  H  215  1  0.14545900  0.68905550  0.31699800  1
  H  246  1  0.92556200  0.09347200  0.80133600  1
  H  247  1  0.92619800  0.15041600  0.77509300  1
  H  248  1  0.08990700  0.11721500  0.84352000  1
  H  249  1  0.09174300  0.17352500  0.81615700  1
  H  250  1  0.90795800  0.24574600  0.72359200  1
  H  251  1  0.09229300  0.24112900  0.73093600  1
  H  252  1  0.01168400  0.32473050  0.67854500  1
  H  253  1  0.23841300  0.31985450  0.72040600  1
  H  254  1  0.74842400  0.31082950  0.72598300  1
  H  255  1  0.66196200  0.34092950  0.70709300  1
  H  256  1  0.76231000  0.39329500  0.63576400  1
  H  257  1  0.84905000  0.36407450  0.65503500  1
  H  258  1  0.33083900  0.34365450  0.70290300  1
  H  259  1  0.24498000  0.39882750  0.62753100  1
  H  260  1  0.15297600  0.37489600  0.64483900  1
  H  261  1  0.85953400  0.31508350  0.72853000  1
  H  262  1  0.90135200  0.30651000  0.66346200  1
  H  263  1  0.02953600  0.22133400  0.78898400  1
  H  264  1  0.97795200  0.18636700  0.73372500  1
  H  265  1  0.10359500  0.35191100  0.70078300  1
  H  266  1  0.14560900  0.27954850  0.68935500  1
  H  297  1  0.58335400  0.59345800  0.70493700  1
  H  298  1  0.58274800  0.65040700  0.73117100  1
  H  299  1  0.41890300  0.61720950  0.66285900  1
  H  300  1  0.41710100  0.67352550  0.69021200  1
  H  301  1  0.60104200  0.74576650  0.78269300  1
  H  302  1  0.41671200  0.74114450  0.77537500  1
  H  303  1  0.49726600  0.82473600  0.82776100  1
  H  304  1  0.27052400  0.81988350  0.78591600  1
  H  305  1  0.76047800  0.81099900  0.78024700  1
  H  306  1  0.84690900  0.84109850  0.79914000  1
  H  307  1  0.74662200  0.89319050  0.87066700  1
  H  308  1  0.65990600  0.86397750  0.85139200  1
  H  309  1  0.17807400  0.84368050  0.80341800  1
  H  310  1  0.26386600  0.89876950  0.87884600  1
  H  311  1  0.35588700  0.87484350  0.86153500  1
  H  312  1  0.64939900  0.81515850  0.77778900  1
  H  313  1  0.60759400  0.80648250  0.84284700  1
  H  314  1  0.47933200  0.72132900  0.71733300  1
  H  315  1  0.53109600  0.68638700  0.77256200  1
  H  316  1  0.40527100  0.85192150  0.80555500  1
  H  317  1  0.36339300  0.77953650  0.81697100  1
  H  348  1  0.58336400  0.37508100  0.30141900  1
  H  349  1  0.58272400  0.31813900  0.27516800  1
  H  350  1  0.41881700  0.35144350  0.34337500  1
  H  351  1  0.41698800  0.29513450  0.31600700  1
  H  352  1  0.60097600  0.22286700  0.22355700  1
  H  353  1  0.41665300  0.22745550  0.23091400  1
  H  354  1  0.49723200  0.14387700  0.17850700  1
  H  355  1  0.27054900  0.14871400  0.22039400  1
  H  356  1  0.76044600  0.15764600  0.22603200  1
  H  357  1  0.84689200  0.12753500  0.20716100  1
  H  358  1  0.74660000  0.07539900  0.13564600  1
  H  359  1  0.65987100  0.10462950  0.15489900  1
  H  360  1  0.17810100  0.12491600  0.20289850  1
  H  361  1  0.26386600  0.06978200  0.12749500  1
  H  362  1  0.35588700  0.09371200  0.14479600  1
  H  363  1  0.64935800  0.15346500  0.22848800  1
  H  364  1  0.60756800  0.16215500  0.16341400  1
  H  365  1  0.47926200  0.24728300  0.28893100  1
  H  366  1  0.53102400  0.28222450  0.23372200  1
  H  367  1  0.40532900  0.11667900  0.20074300  1
  H  368  1  0.36331000  0.18905000  0.18933900  1
