# generated using pymatgen
data_H5C9N2
_symmetry_space_group_name_H-M   'P 1'
_cell_length_a   9.96286667
_cell_length_b   29.32460000
_cell_length_c   29.32460000
_cell_angle_alpha   120.00000000
_cell_angle_beta   90.00000000
_cell_angle_gamma   90.00000000
_symmetry_Int_Tables_number   1
_chemical_formula_structural   H5C9N2
_chemical_formula_sum   'H30 C54 N12'
_cell_volume   7419.57695447
_cell_formula_units_Z   6
loop_
 _symmetry_equiv_pos_site_id
 _symmetry_equiv_pos_as_xyz
  1  'x, y, z'
loop_
 _atom_site_type_symbol
 _atom_site_label
 _atom_site_symmetry_multiplicity
 _atom_site_fract_x
 _atom_site_fract_y
 _atom_site_fract_z
 _atom_site_occupancy
  C  2  1  0.87197100  0.97144500  0.48619100  1
  C  10  1  0.99458700  0.63667400  0.35959600  1
  C  12  1  0.99458700  0.63667500  0.27801200  1
  C  14  1  0.99458700  0.71825800  0.35959500  1
  C  16  1  0.99476500  0.60855200  0.22176700  1
  C  17  1  0.99483400  0.55269700  0.19277000  1
  C  18  1  0.99464400  0.52490300  0.13734600  1
  C  19  1  0.99427600  0.55226500  0.10919500  1
  C  20  1  0.99464400  0.60777800  0.13734500  1
  C  21  1  0.99483800  0.63540700  0.19277000  1
  C  22  1  0.99476500  0.60855100  0.38771800  1
  C  23  1  0.99484100  0.55269800  0.36086200  1
  C  24  1  0.99465100  0.52490200  0.38849200  1
  C  25  1  0.99427500  0.55226500  0.44400600  1
  C  26  1  0.99464400  0.60777700  0.47136700  1
  C  27  1  0.99483400  0.63540800  0.44357200  1
  C  28  1  0.99476500  0.77450300  0.38771800  1
  C  29  1  0.99483400  0.80350000  0.44357300  1
  C  30  1  0.99464700  0.85892500  0.47136800  1
  C  31  1  0.99427700  0.88707600  0.44400600  1
  C  32  1  0.99464700  0.85892500  0.38849200  1
  C  33  1  0.99483800  0.80350000  0.36086300  1
  C  46  1  0.99426600  0.35772900  0.63854000  1
  C  48  1  0.99426600  0.35773000  0.72012200  1
  C  50  1  0.99426200  0.27614700  0.63853900  1
  C  52  1  0.99403500  0.38585200  0.77636600  1
  C  53  1  0.99391900  0.44170600  0.80536300  1
  C  54  1  0.99401900  0.46949900  0.86078600  1
  C  55  1  0.99432200  0.44213600  0.88893800  1
  C  56  1  0.99401400  0.38662300  0.86078700  1
  C  57  1  0.99392000  0.35899300  0.80536100  1
  C  58  1  0.99403600  0.38585100  0.61041800  1
  C  59  1  0.99392400  0.44170400  0.63727400  1
  C  60  1  0.99401900  0.46949800  0.60964400  1
  C  61  1  0.99432600  0.44213700  0.55413300  1
  C  62  1  0.99401900  0.38662500  0.52677100  1
  C  63  1  0.99391900  0.35899500  0.55456500  1
  C  64  1  0.99403500  0.21990300  0.61041700  1
  C  65  1  0.99392000  0.19090600  0.55456300  1
  C  66  1  0.99401900  0.13548500  0.52677200  1
  C  67  1  0.99432200  0.10733200  0.55413400  1
  C  68  1  0.99400500  0.13548200  0.60964600  1
  C  69  1  0.99391600  0.19090800  0.63727600  1
  C  82  1  0.11660000  0.48432100  0.97330700  1
  C  84  1  0.99284000  0.52455000  0.05376300  1
  C  85  1  0.87196700  0.51008000  0.02482600  1
  C  87  1  0.99573500  0.46985300  0.94436800  1
  C  90  1  0.11660500  0.48432100  0.51194800  1
  C  92  1  0.99284000  0.52454900  0.47172000  1
  C  93  1  0.87196700  0.51008100  0.48619000  1
  C  95  1  0.99573500  0.46985200  0.52641700  1
  C  98  1  0.11660500  0.02296200  0.51194800  1
  C  99  1  0.99284100  0.94250800  0.47172100  1
  C  101  1  0.99573500  0.05190300  0.52641800  1
  H  7  1  0.78066400  0.95308800  0.47701200  1
  H  34  1  0.99433700  0.48458600  0.36777000  1
  H  35  1  0.99479500  0.53132000  0.32060700  1
  H  36  1  0.99433700  0.62850000  0.51168400  1
  H  37  1  0.99479500  0.67566300  0.46495000  1
  H  38  1  0.99479500  0.78462300  0.46495100  1
  H  39  1  0.99433700  0.87852100  0.51168400  1
  H  40  1  0.99479200  0.78462500  0.32060700  1
  H  41  1  0.99433700  0.87852100  0.36777000  1
  H  42  1  0.99479500  0.67566400  0.21164600  1
  H  43  1  0.99434100  0.62850000  0.11774900  1
  H  44  1  0.99434100  0.48458600  0.11774900  1
  H  45  1  0.99479500  0.53131900  0.21164700  1
  H  70  1  0.99430100  0.50981600  0.63036600  1
  H  71  1  0.99399500  0.46308300  0.67753000  1
  H  72  1  0.99430100  0.36590300  0.48645300  1
  H  73  1  0.99399600  0.31874000  0.53318700  1
  H  74  1  0.99399500  0.20978200  0.53318400  1
  H  75  1  0.99430600  0.11588800  0.48645300  1
  H  76  1  0.99400000  0.20978500  0.67753100  1
  H  77  1  0.99430700  0.11588800  0.63036600  1
  H  78  1  0.99400100  0.31873800  0.78648400  1
  H  79  1  0.99430600  0.36590300  0.88038100  1
  H  80  1  0.99430600  0.50981700  0.88038300  1
  H  81  1  0.99400000  0.46308500  0.78648800  1
  H  88  1  0.20791000  0.47514300  0.95495000  1
  H  89  1  0.78066300  0.51925800  0.04318200  1
  H  96  1  0.20791100  0.47514300  0.52112600  1
  H  97  1  0.78066300  0.51926000  0.47701100  1
  H  102  1  0.20791100  0.04132100  0.52112800  1
  N  1  1  0.11064300  0.96954300  0.48523800  1
  N  11  1  0.99458700  0.61116300  0.30604800  1
  N  13  1  0.99458700  0.69022000  0.30604900  1
  N  15  1  0.99458700  0.69022100  0.38510600  1
  N  47  1  0.99426100  0.38324100  0.69208700  1
  N  49  1  0.99425700  0.30418300  0.69208700  1
  N  51  1  0.99425700  0.30418200  0.61302800  1
  N  83  1  0.11063900  0.51103300  0.02672800  1
  N  86  1  0.87792900  0.48336900  0.97140200  1
  N  91  1  0.11063900  0.51103100  0.48523800  1
  N  94  1  0.87792900  0.48336900  0.51290100  1
  N  100  1  0.87793300  0.02486700  0.51290000  1
