# generated using pymatgen
data_H36C53(N3O2)4
_symmetry_space_group_name_H-M   'P 1'
_cell_length_a   51.60375000
_cell_length_b   51.60380000
_cell_length_c   51.61980000
_cell_angle_alpha   90.00000000
_cell_angle_beta   90.00000000
_cell_angle_gamma   120.00009616
_symmetry_Int_Tables_number   1
_chemical_formula_structural   H36C53(N3O2)4
_chemical_formula_sum   'H216 C318 N72 O48'
_cell_volume   119044.53813568
_cell_formula_units_Z   6
loop_
 _symmetry_equiv_pos_site_id
 _symmetry_equiv_pos_as_xyz
  1  'x, y, z'
loop_
 _atom_site_type_symbol
 _atom_site_label
 _atom_site_symmetry_multiplicity
 _atom_site_fract_x
 _atom_site_fract_y
 _atom_site_fract_z
 _atom_site_occupancy
  H  26  1  0.76885200  0.16290500  0.80112100  1
  H  27  1  0.78985600  0.21109900  0.78152200  1
  H  28  1  0.68383600  0.14114500  0.77239100  1
  H  29  1  0.70445100  0.18901400  0.75324000  1
  H  30  1  0.71488200  0.23945400  0.77134700  1
  H  31  1  0.71111800  0.26538500  0.80771200  1
  H  32  1  0.80076800  0.29385400  0.82730700  1
  H  33  1  0.80443200  0.26743100  0.79109000  1
  H  34  1  0.80618900  0.29491200  0.74478200  1
  H  35  1  0.85428200  0.31622000  0.72559200  1
  H  36  1  0.84028800  0.22993300  0.71003500  1
  H  37  1  0.79200000  0.20841800  0.72929400  1
  H  38  1  0.74029900  0.19777800  0.71039200  1
  H  39  1  0.75111700  0.28052900  0.73530300  1
  H  40  1  0.72303600  0.28109800  0.69898700  1
  H  45  1  0.71240700  0.19857900  0.67400500  1
  H  71  1  0.39749400  0.23387900  0.46778700  1
  H  72  1  0.42466500  0.21288100  0.44814900  1
  H  73  1  0.46079700  0.31892300  0.43914700  1
  H  74  1  0.48803000  0.29830900  0.41995300  1
  H  75  1  0.52807300  0.28785300  0.43794800  1
  H  76  1  0.55778200  0.29161000  0.47429800  1
  H  77  1  0.49651400  0.20201400  0.49397700  1
  H  78  1  0.46641900  0.19835600  0.45777200  1
  H  79  1  0.49211700  0.19650500  0.41147100  1
  H  80  1  0.46531600  0.14842200  0.39226800  1
  H  81  1  0.39309800  0.16251300  0.37663800  1
  H  82  1  0.41988700  0.21078800  0.39591400  1
  H  83  1  0.46091200  0.26251100  0.37708500  1
  H  84  1  0.53279400  0.25155400  0.40189400  1
  H  85  1  0.56143100  0.27963200  0.36557000  1
  H  90  1  0.48958800  0.29039500  0.34069200  1
  H  116  1  0.83984600  0.60526700  0.13444400  1
  H  117  1  0.79166800  0.57810100  0.11482000  1
  H  118  1  0.86154400  0.54192900  0.10581700  1
  H  119  1  0.81369000  0.51470300  0.08663900  1
  H  120  1  0.76321800  0.47468300  0.10461800  1
  H  121  1  0.73731000  0.44499400  0.14099000  1
  H  122  1  0.70898900  0.50626100  0.16069000  1
  H  123  1  0.73538900  0.53633900  0.12446300  1
  H  124  1  0.70783100  0.51063400  0.07815300  1
  H  125  1  0.68653300  0.53742300  0.05895900  1
  H  126  1  0.77283000  0.60964700  0.04330200  1
  H  127  1  0.79432800  0.58286400  0.06256800  1
  H  128  1  0.80502200  0.54183300  0.04375400  1
  H  129  1  0.72218600  0.46995900  0.06856200  1
  H  130  1  0.72161600  0.44132300  0.03223700  1
  H  135  1  0.80422500  0.51316000  0.00735300  1
  H  161  1  0.23526000  0.83842200  0.30116300  1
  H  162  1  0.21427500  0.79024100  0.28154800  1
  H  163  1  0.32027400  0.86025600  0.27237700  1
  H  164  1  0.29967600  0.81239500  0.25321000  1
  H  165  1  0.28924700  0.76196000  0.27138400  1
  H  166  1  0.29301000  0.73604300  0.30775900  1
  H  167  1  0.20332100  0.70747700  0.32728500  1
  H  168  1  0.19965600  0.73388500  0.29105800  1
  H  169  1  0.19795800  0.70646400  0.24473700  1
  H  170  1  0.14985900  0.68514900  0.22555600  1
  H  171  1  0.16381200  0.77143800  0.21007200  1
  H  172  1  0.21210300  0.79295600  0.22932200  1
  H  173  1  0.26377300  0.80355200  0.21036600  1
  H  174  1  0.25305500  0.72086300  0.23533400  1
  H  175  1  0.28113400  0.72028900  0.19901800  1
  H  180  1  0.29165700  0.80274700  0.17397300  1
  H  206  1  0.60664100  0.76749700  0.96776300  1
  H  207  1  0.57946300  0.78849300  0.94813500  1
  H  208  1  0.54330100  0.68244000  0.93917000  1
  H  209  1  0.51606300  0.70305500  0.91998600  1
  H  210  1  0.47600000  0.71350600  0.93791100  1
  H  211  1  0.44630000  0.70972000  0.97427600  1
  H  212  1  0.50760900  0.79927700  0.99403700  1
  H  213  1  0.53769800  0.80296400  0.95781500  1
  H  214  1  0.51200100  0.80487800  0.91153100  1
  H  215  1  0.53879700  0.85296700  0.89233700  1
  H  216  1  0.61098700  0.83885400  0.87662800  1
  H  217  1  0.58420000  0.79057300  0.89589200  1
  H  218  1  0.54320300  0.73884000  0.87709900  1
  H  219  1  0.47134600  0.74985200  0.90187100  1
  H  220  1  0.44271800  0.72179100  0.86554100  1
  H  225  1  0.51453600  0.71096900  0.84069500  1
  H  251  1  0.16426600  0.39611600  0.63444400  1
  H  252  1  0.21244800  0.42328100  0.61482800  1
  H  253  1  0.14256800  0.45944300  0.60578700  1
  H  254  1  0.19042700  0.48666700  0.58661600  1
  H  255  1  0.24089600  0.52668800  0.60461100  1
  H  256  1  0.26680500  0.55638300  0.64098100  1
  H  257  1  0.29513400  0.49512300  0.66068400  1
  H  258  1  0.26873200  0.46504000  0.62446200  1
  H  259  1  0.29628800  0.49074100  0.57815000  1
  H  260  1  0.31758800  0.46394900  0.55896300  1
  H  261  1  0.23129100  0.39171400  0.54332200  1
  H  262  1  0.20979300  0.41850300  0.56257800  1
  H  263  1  0.19909400  0.45953600  0.54375000  1
  H  264  1  0.28193000  0.53141900  0.56856100  1
  H  265  1  0.28249600  0.56005200  0.53223300  1
  H  270  1  0.19988900  0.48820700  0.50735300  1
  H  277  1  0.79121500  0.35599900  0.85765500  1
  H  284  1  0.76333500  0.45416300  0.94278100  1
  H  285  1  0.78090600  0.37097100  0.95465700  1
  H  286  1  0.71430300  0.34394000  0.91831100  1
  H  288  1  0.74461600  0.40735200  0.88736200  1
  H  289  1  0.74606400  0.43750000  0.90005900  1
  H  291  1  0.82666300  0.39953200  0.88001700  1
  H  292  1  0.81788600  0.41267200  0.90577200  1
  H  301  1  0.80491800  0.46537200  0.99564000  1
  H  302  1  0.72095000  0.30495800  0.83619900  1
  H  309  1  0.56824800  0.21152800  0.52430600  1
  H  316  1  0.69424900  0.23941800  0.60947700  1
  H  317  1  0.59348000  0.22183500  0.62133100  1
  H  318  1  0.63305100  0.28843700  0.58498600  1
  H  320  1  0.66616500  0.25812800  0.55404900  1
  H  321  1  0.69486600  0.25668500  0.56675300  1
  H  323  1  0.57631900  0.17608000  0.54668500  1
  H  324  1  0.59821700  0.18485600  0.57245200  1
  H  333  1  0.66387700  0.19783300  0.66232500  1
  H  334  1  0.58745900  0.28183100  0.50287400  1
  H  341  1  0.64678900  0.43454200  0.19100400  1
  H  348  1  0.54859000  0.30850200  0.27610500  1
  H  349  1  0.63179300  0.40925300  0.28800700  1
  H  350  1  0.65882700  0.36968100  0.25166400  1
  H  352  1  0.59542600  0.33659800  0.22070200  1
  H  353  1  0.56526800  0.30789700  0.23338900  1
  H  355  1  0.60325700  0.42646500  0.21335900  1
  H  356  1  0.59011000  0.40454900  0.23911300  1
  H  365  1  0.53737600  0.33887900  0.32896600  1
  H  366  1  0.69782600  0.41530400  0.16955800  1
  H  373  1  0.21289900  0.64538300  0.35766100  1
  H  380  1  0.24077200  0.54720600  0.44278100  1
  H  381  1  0.22319100  0.63039000  0.45466200  1
  H  382  1  0.28979900  0.65743000  0.41832700  1
  H  384  1  0.25949000  0.59402200  0.38736600  1
  H  385  1  0.25804700  0.56387500  0.40006100  1
  H  387  1  0.17744700  0.60184500  0.38001500  1
  H  388  1  0.18622100  0.58869900  0.40576800  1
  H  397  1  0.19918600  0.53598500  0.49563700  1
  H  398  1  0.28317900  0.69645600  0.33623100  1
  H  405  1  0.43587900  0.78978000  0.02431200  1
  H  412  1  0.30984500  0.76193300  0.10945500  1
  H  413  1  0.41061700  0.77952600  0.12130900  1
  H  414  1  0.37101600  0.71289900  0.08498400  1
  H  416  1  0.33792700  0.74321100  0.05403300  1
  H  417  1  0.30922600  0.74465500  0.06673500  1
  H  419  1  0.42780800  0.82524400  0.04666200  1
  H  420  1  0.40589400  0.81648300  0.07241700  1
  H  429  1  0.34021100  0.80353900  0.16228200  1
  H  430  1  0.41662000  0.71951900  0.00285900  1
  H  437  1  0.35732400  0.56684300  0.69100400  1
  H  444  1  0.45552600  0.69288200  0.77609000  1
  H  445  1  0.37231500  0.59214300  0.78801100  1
  H  446  1  0.34527800  0.63170100  0.75166100  1
  H  448  1  0.40868200  0.66478300  0.72069400  1
  H  449  1  0.43884600  0.69348400  0.73337500  1
  H  451  1  0.40085900  0.57492600  0.71336000  1
  H  452  1  0.41400200  0.59684300  0.73911300  1
  H  461  1  0.46672500  0.66250000  0.82897400  1
  H  462  1  0.30628400  0.58607700  0.66955300  1
  H  469  1  0.70173100  0.06577800  0.78848000  1
  H  476  1  0.63091900  0.93355400  0.88524300  1
  H  477  1  0.61653400  0.97177300  0.80413700  1
  H  478  1  0.63503900  0.02325900  0.86180300  1
  H  480  1  0.68354900  0.01037000  0.87541800  1
  H  481  1  0.67214600  0.98131500  0.89506700  1
  H  483  1  0.70050500  0.01973000  0.78183500  1
  H  484  1  0.68083100  0.99009800  0.80046000  1
  H  493  1  0.56356600  0.88433000  0.85443400  1
  H  494  1  0.67335800  0.11065300  0.81118600  1
  H  501  1  0.36751900  0.30100900  0.45517800  1
  H  508  1  0.30604800  0.37179600  0.55191000  1
  H  509  1  0.35867700  0.38618800  0.47081900  1
  H  510  1  0.39163300  0.36767800  0.52851000  1
  H  512  1  0.33023500  0.31916600  0.54209600  1
  H  513  1  0.31257700  0.33056700  0.56173800  1
  H  515  1  0.32267800  0.30219800  0.44852900  1
  H  516  1  0.31270600  0.32186400  0.46715200  1
  H  525  1  0.32418100  0.43915100  0.52109400  1
  H  526  1  0.44074800  0.32937300  0.47792700  1
  H  533  1  0.93694300  0.63523100  0.12184000  1
  H  540  1  0.06918900  0.69666900  0.21858800  1
  H  541  1  0.03095000  0.64406700  0.13748500  1
  H  542  1  0.97948000  0.61109300  0.19517100  1
  H  544  1  0.99237100  0.67248300  0.20878000  1
  H  545  1  0.02143200  0.69013600  0.22842300  1
  H  547  1  0.98297300  0.68007900  0.11520900  1
  H  548  1  0.01260300  0.69004300  0.13383800  1
  H  557  1  0.11842100  0.67856000  0.18774300  1
  H  558  1  0.89207500  0.56199200  0.14456800  1
  H  565  1  0.30236300  0.93557800  0.28849700  1
  H  572  1  0.37319400  0.06784100  0.38522000  1
  H  573  1  0.38754900  0.02957600  0.30412900  1
  H  574  1  0.36905800  0.97811200  0.36181600  1
  H  576  1  0.32057200  0.99101500  0.37543700  1
  H  577  1  0.33197800  0.02008200  0.39507100  1
  H  579  1  0.30354800  0.98161000  0.28187200  1
  H  580  1  0.32322100  0.01124000  0.30049800  1
  H  589  1  0.44052500  0.11705200  0.35438300  1
  H  590  1  0.33074100  0.89071000  0.31120800  1
  H  597  1  0.63660400  0.70036200  0.95517700  1
  H  604  1  0.69807300  0.62956400  0.05190200  1
  H  605  1  0.64543500  0.61518100  0.97081400  1
  H  606  1  0.61248800  0.63369300  0.02851000  1
  H  608  1  0.67388600  0.68219600  0.04209900  1
  H  609  1  0.69154400  0.67079100  0.06173700  1
  H  611  1  0.68144600  0.69917300  0.94853000  1
  H  612  1  0.69141400  0.67950400  0.96715300  1
  H  621  1  0.67993300  0.56221000  0.02108400  1
  H  622  1  0.56337300  0.67200300  0.97793800  1
  H  629  1  0.06716400  0.36614900  0.62182300  1
  H  636  1  0.93493100  0.30471300  0.71858500  1
  H  637  1  0.97316000  0.35730900  0.63747800  1
  H  638  1  0.02463900  0.39029200  0.69515900  1
  H  640  1  0.01174900  0.32890400  0.70877200  1
  H  641  1  0.98269300  0.31125300  0.72841600  1
  H  643  1  0.02113900  0.32129700  0.61520500  1
  H  644  1  0.99150900  0.31132900  0.63383600  1
  H  653  1  0.88569400  0.32281500  0.68774400  1
  H  654  1  0.11203100  0.43938900  0.64453900  1
  C  1  1  0.71392000  0.23923500  0.68382800  1
  C  2  1  0.72643200  0.26331800  0.70137200  1
  C  3  1  0.74261500  0.26262900  0.72300300  1
  C  4  1  0.74639300  0.23767100  0.72823200  1
  C  5  1  0.73658900  0.21538800  0.70862100  1
  C  6  1  0.72012900  0.21573900  0.68709300  1
  C  7  1  0.76304800  0.23608700  0.75212200  1
  C  8  1  0.79451500  0.24923700  0.74093600  1
  C  9  1  0.80504000  0.23119200  0.72943300  1
  C  10  1  0.83337800  0.24377700  0.71769100  1
  C  11  1  0.85174500  0.27503100  0.71585700  1
  C  12  1  0.84134500  0.29342000  0.72634300  1
  C  13  1  0.81306900  0.28069500  0.73807300  1
  C  14  1  0.76091600  0.25274700  0.77576600  1
  C  15  1  0.74996100  0.20469200  0.76349400  1
  C  16  1  0.76755600  0.19644900  0.77886600  1
  C  17  1  0.75523800  0.16815900  0.79067700  1
  C  18  1  0.72440700  0.14755200  0.78871300  1
  C  19  1  0.70628500  0.15567900  0.77437700  1
  C  20  1  0.71875700  0.18387700  0.76257300  1
  C  21  1  0.73347600  0.25116500  0.78261200  1
  C  22  1  0.73109100  0.26638800  0.80421300  1
  C  23  1  0.75597400  0.28303900  0.82051600  1
  C  24  1  0.78253900  0.28255300  0.81547900  1
  C  25  1  0.78475100  0.26729600  0.79379400  1
  C  46  1  0.52871300  0.28882400  0.35046800  1
  C  47  1  0.54027500  0.27628300  0.36799000  1
  C  48  1  0.52340000  0.26007200  0.38961000  1
  C  49  1  0.49469300  0.25634800  0.39487700  1
  C  50  1  0.48222100  0.26619200  0.37529300  1
  C  51  1  0.49902200  0.28264400  0.35375700  1
  C  52  1  0.47647100  0.23969500  0.41877500  1
  C  53  1  0.45815600  0.20822700  0.40759500  1
  C  54  1  0.42959800  0.19772700  0.39607200  1
  C  55  1  0.41383100  0.16939100  0.38432700  1
  C  56  1  0.42670100  0.15101000  0.38249400  1
  C  57  1  0.45546800  0.16137300  0.39301300  1
  C  58  1  0.47102800  0.18964300  0.40475300  1
  C  59  1  0.49528800  0.24184200  0.44240300  1
  C  60  1  0.45817500  0.25279100  0.43015400  1
  C  61  1  0.43233200  0.23518700  0.44552200  1
  C  62  1  0.41635700  0.24749700  0.45734000  1
  C  63  1  0.42661300  0.27834000  0.45543300  1
  C  64  1  0.45286800  0.29647000  0.44110700  1
  C  65  1  0.46858200  0.28399900  0.42928100  1
  C  66  1  0.52117300  0.26926600  0.44922600  1
  C  67  1  0.53879100  0.27165000  0.47081900  1
  C  68  1  0.53053400  0.24678100  0.48714800  1
  C  69  1  0.50346300  0.22022900  0.48213000  1
  C  70  1  0.48598400  0.21802200  0.46045500  1
  C  91  1  0.76352300  0.47404000  0.01712600  1
  C  92  1  0.73941400  0.46248600  0.03464100  1
  C  93  1  0.74009200  0.47935500  0.05627200  1
  C  94  1  0.76508600  0.50805300  0.06155100  1
  C  95  1  0.78739800  0.52052400  0.04196200  1
  C  96  1  0.78704000  0.50372800  0.02041800  1
  C  97  1  0.76665700  0.52627600  0.08544700  1
  C  98  1  0.75351100  0.54460200  0.07427900  1
  C  99  1  0.77155500  0.57314500  0.06272700  1
  C  100  1  0.75898100  0.58890900  0.05098400  1
  C  101  1  0.72772800  0.57604900  0.04918600  1
  C  102  1  0.70933400  0.54727500  0.05969500  1
  C  103  1  0.72205400  0.53172000  0.07142700  1
  C  104  1  0.74997900  0.50746100  0.10907400  1
  C  105  1  0.79804600  0.54458200  0.09682100  1
  C  106  1  0.80630400  0.57043000  0.11218500  1
  C  107  1  0.83459200  0.58640000  0.12399800  1
  C  108  1  0.85517300  0.57613900  0.12208200  1
  C  109  1  0.84702900  0.54986800  0.10777600  1
  C  110  1  0.81883800  0.53415900  0.09595900  1
  C  111  1  0.75152200  0.48157500  0.11589500  1
  C  112  1  0.73632400  0.46397600  0.13750500  1
  C  113  1  0.71973100  0.47223900  0.15384900  1
  C  114  1  0.72024100  0.49930500  0.14883200  1
  C  115  1  0.73549100  0.51677500  0.12714400  1
  C  136  1  0.29020900  0.76212900  0.18383200  1
  C  137  1  0.27775300  0.73808000  0.20141000  1
  C  138  1  0.26154800  0.73875600  0.22302800  1
  C  139  1  0.25773600  0.76369700  0.22823700  1
  C  140  1  0.26752700  0.78597000  0.20861700  1
  C  141  1  0.28396400  0.78560200  0.18707700  1
  C  142  1  0.24107300  0.76528500  0.25212200  1
  C  143  1  0.20961000  0.75213400  0.24092800  1
  C  144  1  0.19907200  0.77018000  0.22944800  1
  C  145  1  0.17073000  0.75759300  0.21771200  1
  C  146  1  0.15237100  0.72634100  0.21587000  1
  C  147  1  0.16278700  0.70795200  0.22632300  1
  C  148  1  0.19106900  0.72067800  0.23804400  1
  C  149  1  0.24319800  0.74862500  0.27577200  1
  C  150  1  0.25416600  0.79668400  0.26348000  1
  C  151  1  0.23657000  0.80490500  0.27888100  1
  C  152  1  0.24887400  0.83319100  0.29069400  1
  C  153  1  0.27970100  0.85381400  0.28872600  1
  C  154  1  0.29782800  0.84570900  0.27436900  1
  C  155  1  0.28536400  0.81751700  0.26255800  1
  C  156  1  0.27064600  0.75023700  0.28263900  1
  C  157  1  0.27302700  0.73501200  0.30423900  1
  C  158  1  0.24813900  0.71835000  0.32053300  1
  C  159  1  0.22155300  0.71878100  0.31546000  1
  C  160  1  0.21935000  0.73405400  0.29378200  1
  C  181  1  0.47542400  0.71257500  0.85045000  1
  C  182  1  0.46387400  0.72514200  0.86795700  1
  C  183  1  0.48073700  0.74132700  0.88959200  1
  C  184  1  0.50943100  0.74502400  0.89487600  1
  C  185  1  0.52189400  0.73515500  0.87530600  1
  C  186  1  0.50510400  0.71872300  0.85375900  1
  C  187  1  0.52763700  0.76166800  0.91878300  1
  C  188  1  0.54594700  0.79314200  0.90761500  1
  C  189  1  0.57449600  0.80364000  0.89607000  1
  C  190  1  0.59026600  0.83198400  0.88433900  1
  C  191  1  0.57740100  0.85037200  0.88252900  1
  C  192  1  0.54864200  0.84001000  0.89306600  1
  C  193  1  0.53308500  0.81173700  0.90480000  1
  C  194  1  0.50880900  0.75950600  0.94240900  1
  C  195  1  0.54593600  0.74857800  0.93016200  1
  C  196  1  0.57179200  0.76618500  0.94551200  1
  C  197  1  0.58776200  0.75387400  0.95733600  1
  C  198  1  0.57750600  0.72303200  0.95543300  1
  C  199  1  0.55123700  0.70489700  0.94112400  1
  C  200  1  0.53552000  0.71736700  0.92930200  1
  C  201  1  0.48291100  0.73208200  0.94920900  1
  C  202  1  0.46529100  0.72968500  0.97080500  1
  C  203  1  0.47356800  0.75452900  0.98716700  1
  C  204  1  0.50064800  0.78107700  0.98216800  1
  C  205  1  0.51812300  0.78330200  0.96048400  1
  C  226  1  0.24059200  0.52732800  0.51712300  1
  C  227  1  0.26470100  0.53888400  0.53463800  1
  C  228  1  0.26402600  0.52201800  0.55626700  1
  C  229  1  0.23903400  0.49331600  0.56154600  1
  C  230  1  0.21673400  0.48083500  0.54194700  1
  C  231  1  0.21707800  0.49763900  0.52041400  1
  C  232  1  0.23746300  0.47509700  0.58544400  1
  C  233  1  0.25060700  0.45676800  0.57428300  1
  C  234  1  0.23256500  0.42822000  0.56273700  1
  C  235  1  0.24514000  0.41245600  0.55100100  1
  C  236  1  0.27639300  0.42531700  0.54920200  1
  C  237  1  0.29478700  0.45409600  0.55970200  1
  C  238  1  0.28206500  0.46965200  0.57142800  1
  C  239  1  0.25413800  0.49391300  0.60907200  1
  C  240  1  0.20607200  0.45679400  0.59681700  1
  C  241  1  0.19781300  0.43095200  0.61218900  1
  C  242  1  0.16953000  0.41499300  0.62401000  1
  C  243  1  0.14894000  0.42524000  0.62207100  1
  C  244  1  0.15708500  0.45150600  0.60775700  1
  C  245  1  0.18527900  0.46721600  0.59594300  1
  C  246  1  0.25259000  0.51979600  0.61589100  1
  C  247  1  0.26779400  0.53740400  0.63749900  1
  C  248  1  0.28439500  0.52914700  0.65383800  1
  C  249  1  0.28387900  0.50207600  0.64882600  1
  C  250  1  0.26862600  0.48460200  0.62714300  1
  C  271  1  0.74563400  0.32876900  0.86774900  1
  C  272  1  0.72309900  0.32534100  0.88542400  1
  C  273  1  0.73069600  0.34633000  0.90570100  1
  C  274  1  0.76007300  0.37068600  0.90851200  1
  C  275  1  0.78282200  0.37433300  0.89089600  1
  C  276  1  0.77507200  0.35315000  0.87076800  1
  C  278  1  0.76549500  0.39176500  0.92837700  1
  C  279  1  0.76029100  0.41609100  0.92465000  1
  C  280  1  0.76692700  0.43648600  0.94526600  1
  C  281  1  0.77852800  0.43327600  0.96908600  1
  C  282  1  0.78381200  0.40897900  0.97259700  1
  C  283  1  0.77711000  0.38851100  0.95215100  1
  C  299  1  0.73890100  0.30974900  0.84675700  1
  C  300  1  0.78431800  0.45384300  0.98845400  1
  C  303  1  0.58658600  0.25710700  0.53440100  1
  C  304  1  0.60567800  0.27964100  0.55208400  1
  C  305  1  0.61905700  0.27204400  0.57237300  1
  C  306  1  0.61403800  0.24266900  0.57518800  1
  C  307  1  0.59494700  0.21991900  0.55756500  1
  C  308  1  0.58152900  0.22766900  0.53742500  1
  C  310  1  0.62969000  0.23724900  0.59505800  1
  C  311  1  0.65922300  0.24245700  0.59133700  1
  C  312  1  0.67297800  0.23582400  0.61195900  1
  C  313  1  0.65816200  0.22422400  0.63577500  1
  C  314  1  0.62858000  0.21893600  0.63928000  1
  C  315  1  0.61481700  0.22563400  0.61883000  1
  C  331  1  0.57431800  0.26383900  0.51339400  1
  C  332  1  0.67293800  0.21843600  0.65514800  1
  C  335  1  0.67401500  0.41618700  0.20110200  1
  C  336  1  0.67743600  0.39707800  0.21878000  1
  C  337  1  0.65644400  0.38368900  0.23905500  1
  C  338  1  0.63209000  0.38871300  0.24186200  1
  C  339  1  0.62845000  0.40782100  0.22424500  1
  C  340  1  0.64963600  0.42124900  0.20411700  1
  C  342  1  0.61100300  0.37305400  0.26172100  1
  C  343  1  0.58667400  0.34352700  0.25798600  1
  C  344  1  0.56626900  0.32976800  0.27859600  1
  C  345  1  0.56947200  0.34457500  0.30241600  1
  C  346  1  0.59377200  0.37415200  0.30593600  1
  C  347  1  0.61425100  0.38791800  0.28549600  1
  C  363  1  0.69303300  0.42846600  0.18010900  1
  C  364  1  0.54889300  0.32979600  0.32177500  1
  C  367  1  0.25847800  0.67261400  0.36776300  1
  C  368  1  0.28100900  0.67603800  0.38544100  1
  C  369  1  0.27340900  0.65504300  0.40571400  1
  C  370  1  0.24403100  0.63068400  0.40851900  1
  C  371  1  0.22128600  0.62704400  0.39090000  1
  C  372  1  0.22903900  0.64823000  0.37077600  1
  C  374  1  0.23860700  0.60960400  0.42838200  1
  C  375  1  0.24381200  0.58527900  0.42465200  1
  C  376  1  0.23717600  0.56488100  0.44526700  1
  C  377  1  0.22557500  0.56808900  0.46908700  1
  C  378  1  0.22028700  0.59238200  0.47259900  1
  C  379  1  0.22698900  0.61285200  0.45215600  1
  C  395  1  0.26521500  0.69164200  0.34677700  1
  C  396  1  0.21978700  0.54752100  0.48845400  1
  C  399  1  0.41751700  0.74420200  0.03441600  1
  C  400  1  0.39840600  0.72167600  0.05209600  1
  C  401  1  0.38502200  0.72928600  0.07237100  1
  C  402  1  0.39005300  0.75866700  0.07517400  1
  C  403  1  0.40916100  0.78140800  0.05755500  1
  C  404  1  0.42258600  0.77364500  0.03742900  1
  C  406  1  0.37440400  0.76410300  0.09503800  1
  C  407  1  0.34487000  0.75889200  0.09131700  1
  C  408  1  0.33111600  0.76552900  0.11193500  1
  C  409  1  0.34593500  0.77714000  0.13575200  1
  C  410  1  0.37551700  0.78243000  0.13925600  1
  C  411  1  0.38928000  0.77572500  0.11880800  1
  C  427  1  0.42979300  0.73745100  0.01342600  1
  C  428  1  0.33116100  0.78292900  0.15512200  1
  C  431  1  0.33009600  0.58519500  0.70109900  1
  C  432  1  0.32667200  0.60430400  0.71877600  1
  C  433  1  0.34766200  0.61769500  0.73905300  1
  C  434  1  0.37201700  0.61267200  0.74186000  1
  C  435  1  0.37565900  0.59356500  0.72424500  1
  C  436  1  0.35447500  0.58013500  0.70411700  1
  C  438  1  0.39310600  0.62833700  0.76171900  1
  C  439  1  0.41743600  0.65785800  0.75797800  1
  C  440  1  0.43784600  0.67162000  0.77858700  1
  C  441  1  0.43464400  0.65681700  0.80240900  1
  C  442  1  0.41034100  0.62724400  0.80593300  1
  C  443  1  0.38985800  0.61347600  0.78549700  1
  C  459  1  0.31107900  0.57291500  0.68010300  1
  C  460  1  0.45523000  0.67159600  0.82176400  1
  C  463  1  0.67978100  0.07511400  0.81859400  1
  C  464  1  0.66045600  0.06263000  0.84021000  1
  C  465  1  0.64976400  0.03236100  0.84667700  1
  C  466  1  0.65786200  0.01425400  0.83220400  1
  C  467  1  0.67767700  0.02672000  0.81081900  1
  C  468  1  0.68822800  0.05701400  0.80440400  1
  C  470  1  0.64292000  0.98321400  0.83816500  1
  C  471  1  0.64744400  0.97201400  0.86186800  1
  C  472  1  0.62835500  0.94144000  0.86776900  1
  C  473  1  0.60517500  0.92184200  0.85086200  1
  C  474  1  0.60127400  0.93306100  0.82698000  1
  C  475  1  0.62020700  0.96361400  0.82100000  1
  C  491  1  0.68813900  0.10367800  0.80990400  1
  C  492  1  0.58511500  0.89287200  0.85874600  1
  C  495  1  0.39877900  0.32294700  0.48531100  1
  C  496  1  0.40560300  0.34226600  0.50692900  1
  C  497  1  0.38602000  0.35295800  0.51338200  1
  C  498  1  0.35982700  0.34486300  0.49889300  1
  C  499  1  0.35249500  0.32505400  0.47750400  1
  C  500  1  0.37224600  0.31450700  0.47110400  1
  C  502  1  0.34372300  0.35979900  0.50484500  1
  C  503  1  0.32799100  0.35527300  0.52854300  1
  C  504  1  0.31650300  0.37436100  0.53444000  1
  C  505  1  0.32009100  0.39754400  0.51753200  1
  C  506  1  0.33521600  0.40144400  0.49365300  1
  C  507  1  0.34684000  0.38251500  0.48767700  1
  C  523  1  0.41899200  0.31459000  0.47664000  1
  C  524  1  0.31118300  0.41760600  0.52541600  1
  C  527  1  0.92761400  0.60396000  0.15196400  1
  C  528  1  0.94010300  0.59712900  0.17358400  1
  C  529  1  0.97037400  0.61671100  0.18004500  1
  C  530  1  0.98847600  0.64291100  0.16556400  1
  C  531  1  0.97600600  0.65025100  0.14417700  1
  C  532  1  0.94570900  0.63050000  0.13776600  1
  C  534  1  0.01951600  0.65900800  0.17151900  1
  C  535  1  0.03072300  0.67473300  0.19521900  1
  C  536  1  0.06129900  0.68622000  0.20111400  1
  C  537  1  0.08089400  0.68263900  0.18420200  1
  C  538  1  0.06966900  0.66752100  0.16032000  1
  C  539  1  0.03911500  0.65590000  0.15434500  1
  C  555  1  0.89904900  0.58374800  0.14328000  1
  C  556  1  0.10986700  0.69155200  0.19207900  1
  C  559  1  0.32431200  0.92624800  0.31861600  1
  C  560  1  0.34363700  0.93873400  0.34023100  1
  C  561  1  0.35433100  0.96900800  0.34669200  1
  C  562  1  0.34623300  0.98711200  0.33221500  1
  C  563  1  0.32641400  0.97463900  0.31083200  1
  C  564  1  0.31586600  0.94434400  0.30441900  1
  C  566  1  0.36117900  0.01815100  0.33816600  1
  C  567  1  0.35666500  0.02936600  0.36186500  1
  C  568  1  0.37575200  0.05994500  0.36775000  1
  C  569  1  0.39891900  0.07953600  0.35083000  1
  C  570  1  0.40281200  0.06830300  0.32695200  1
  C  571  1  0.38388400  0.03774600  0.32098700  1
  C  587  1  0.31595800  0.89768300  0.30992700  1
  C  588  1  0.41897700  0.10851600  0.35869300  1
  C  591  1  0.60534300  0.67842500  0.98531100  1
  C  592  1  0.59852000  0.65910700  0.00693100  1
  C  593  1  0.61810000  0.64841400  0.01338400  1
  C  594  1  0.64429400  0.65650700  0.99889300  1
  C  595  1  0.65162700  0.67631700  0.97750500  1
  C  596  1  0.63187700  0.68686500  0.97110300  1
  C  598  1  0.66039300  0.64156600  0.00484200  1
  C  599  1  0.67612800  0.64608900  0.02853900  1
  C  600  1  0.68761600  0.62700000  0.03443200  1
  C  601  1  0.68402700  0.60382000  0.01752000  1
  C  602  1  0.66889800  0.59992200  0.99364200  1
  C  603  1  0.65727600  0.61885200  0.98767200  1
  C  619  1  0.58512900  0.68677900  0.97663500  1
  C  620  1  0.69294000  0.58376000  0.02539600  1
  C  623  1  0.07649700  0.39742200  0.65194700  1
  C  624  1  0.06401200  0.40425700  0.67356700  1
  C  625  1  0.03374200  0.38467400  0.68003100  1
  C  626  1  0.01563700  0.35847100  0.66555400  1
  C  627  1  0.02810600  0.35113000  0.64416500  1
  C  628  1  0.05840100  0.37088100  0.63774900  1
  C  630  1  0.98460000  0.34237400  0.67151100  1
  C  631  1  0.97339600  0.32665000  0.69521400  1
  C  632  1  0.94282000  0.31516100  0.70111100  1
  C  633  1  0.92322200  0.31873900  0.68419800  1
  C  634  1  0.93444500  0.33385500  0.66031600  1
  C  635  1  0.96499800  0.34548000  0.65434000  1
  C  651  1  0.10506000  0.41763400  0.64325900  1
  C  652  1  0.89425000  0.30982500  0.69207700  1
  N  41  1  0.71375200  0.12071900  0.79936800  1
  N  42  1  0.75642700  0.29992900  0.84009200  1
  N  43  1  0.69708700  0.23996900  0.66478900  1
  N  44  1  0.87875400  0.28595500  0.70551600  1
  N  86  1  0.41042800  0.28898600  0.46608800  1
  N  87  1  0.54697700  0.24631400  0.50671400  1
  N  88  1  0.54627400  0.30564900  0.33142100  1
  N  89  1  0.41060600  0.12400700  0.37214200  1
  N  131  1  0.88200600  0.59231400  0.13273900  1
  N  132  1  0.70284700  0.45580700  0.17343100  1
  N  133  1  0.76279000  0.45647300  0.99808700  1
  N  134  1  0.71681200  0.59213400  0.03883100  1
  N  176  1  0.29035000  0.88064300  0.29938500  1
  N  177  1  0.24768000  0.70144900  0.34010300  1
  N  178  1  0.30703100  0.76139100  0.16478700  1
  N  179  1  0.12536100  0.71541500  0.20552500  1
  N  221  1  0.59369100  0.71238200  0.96608100  1
  N  222  1  0.45713800  0.75497500  0.00675400  1
  N  223  1  0.45786500  0.69575400  0.83140100  1
  N  224  1  0.59349300  0.87737400  0.87217900  1
  N  266  1  0.12210700  0.40906700  0.63272600  1
  N  267  1  0.30127300  0.54557700  0.67342400  1
  N  268  1  0.24131800  0.54489700  0.49808800  1
  N  269  1  0.28731100  0.40923100  0.53885100  1
  N  287  1  0.74938300  0.42063100  0.90213700  1
  N  290  1  0.81149100  0.39748400  0.89236800  1
  N  293  1  0.69345300  0.30113000  0.88258700  1
  N  294  1  0.79508500  0.40308500  0.99551400  1
  N  319  1  0.67467500  0.25336400  0.56882600  1
  N  322  1  0.58943200  0.19125100  0.55904100  1
  N  325  1  0.61111200  0.30928600  0.54924400  1
  N  326  1  0.61140700  0.20766100  0.66219500  1
  N  351  1  0.58214000  0.32808500  0.23547100  1
  N  354  1  0.60530100  0.41334000  0.22571100  1
  N  357  1  0.70164400  0.39163700  0.21594600  1
  N  358  1  0.59966200  0.39131500  0.32885400  1
  N  383  1  0.25472300  0.58074300  0.40214000  1
  N  386  1  0.19261700  0.60389100  0.39236600  1
  N  389  1  0.31065500  0.70025300  0.38261200  1
  N  390  1  0.20901200  0.59827400  0.49551700  1
  N  415  1  0.32941800  0.74797800  0.06880800  1
  N  418  1  0.41468700  0.81008100  0.05901900  1
  N  421  1  0.39296100  0.69202700  0.04926700  1
  N  422  1  0.39269300  0.79371400  0.16217000  1
  N  447  1  0.42197000  0.67329600  0.73546200  1
  N  450  1  0.39880900  0.58804500  0.72571400  1
  N  453  1  0.30246400  0.60974200  0.71594000  1
  N  454  1  0.40445200  0.61008300  0.82885400  1
  N  479  1  0.66920800  0.98954000  0.87908600  1
  N  482  1  0.68673400  0.01067600  0.79629100  1
  N  485  1  0.65168500  0.08026900  0.85481400  1
  N  486  1  0.57833900  0.91386700  0.80961300  1
  N  511  1  0.32374500  0.33350700  0.54576100  1
  N  514  1  0.32741000  0.31600600  0.46295800  1
  N  517  1  0.43200000  0.35103200  0.52155100  1
  N  518  1  0.33896200  0.42438200  0.47628600  1
  N  543  1  0.01320200  0.67897300  0.21244300  1
  N  546  1  0.99204600  0.67534200  0.12963800  1
  N  549  1  0.92247000  0.57072700  0.18819500  1
  N  550  1  0.08886000  0.66378300  0.14294600  1
  N  575  1  0.33491000  0.01184900  0.37909400  1
  N  578  1  0.31736000  0.99068000  0.29629700  1
  N  581  1  0.35240900  0.92110000  0.35483800  1
  N  582  1  0.42573500  0.08748900  0.30957300  1
  N  607  1  0.68037600  0.66785300  0.04576100  1
  N  610  1  0.67671200  0.68536400  0.96295800  1
  N  613  1  0.57212200  0.65034100  0.02155100  1
  N  614  1  0.66515100  0.57698700  0.97627100  1
  N  639  1  0.99091900  0.32241500  0.71243800  1
  N  642  1  0.01206300  0.32603600  0.62962800  1
  N  645  1  0.08164700  0.43066100  0.68817600  1
  N  646  1  0.91525100  0.33759000  0.64294300  1
  O  295  1  0.82119200  0.42359300  0.00055500  1
  O  296  1  0.67519900  0.31015100  0.87887900  1
  O  297  1  0.77852200  0.39908400  0.01470900  1
  O  298  1  0.68525200  0.28435300  0.90211900  1
  O  327  1  0.60581400  0.18155600  0.66724000  1
  O  328  1  0.63839000  0.32754200  0.54555000  1
  O  329  1  0.62396500  0.22422700  0.68138900  1
  O  330  1  0.60252100  0.31748400  0.56876800  1
  O  359  1  0.57915600  0.39692200  0.33388900  1
  O  360  1  0.69261600  0.36436100  0.21223800  1
  O  361  1  0.60364700  0.37874400  0.34805000  1
  O  362  1  0.71841700  0.40020900  0.23547900  1
  O  391  1  0.18290500  0.57776100  0.50055800  1
  O  392  1  0.32891100  0.69123200  0.37890500  1
  O  393  1  0.22557500  0.60227500  0.51471100  1
  O  394  1  0.31885100  0.71702400  0.40214900  1
  O  423  1  0.39828100  0.81981700  0.16720800  1
  O  424  1  0.36568300  0.67377800  0.04556100  1
  O  425  1  0.38013700  0.77715100  0.18136600  1
  O  426  1  0.40153200  0.68382500  0.06880000  1
  O  455  1  0.42495300  0.60446900  0.83388500  1
  O  456  1  0.31148700  0.63701700  0.71223200  1
  O  457  1  0.40047500  0.62266000  0.84805000  1
  O  458  1  0.28568900  0.60117000  0.73547300  1
  O  487  1  0.55975600  0.92245100  0.80579500  1
  O  488  1  0.62384100  0.06970600  0.85417500  1
  O  489  1  0.58887800  0.91213700  0.78815500  1
  O  490  1  0.65979000  0.08249600  0.87805400  1
  O  519  1  0.36613200  0.44296500  0.47247300  1
  O  520  1  0.44928400  0.37887800  0.52091800  1
  O  521  1  0.32670000  0.41384400  0.45482300  1
  O  522  1  0.42610400  0.34292300  0.54478900  1
  O  551  1  0.08027400  0.63661600  0.13912600  1
  O  552  1  0.93303200  0.55344400  0.18756100  1
  O  553  1  0.09058100  0.67605200  0.12148800  1
  O  554  1  0.92024400  0.57661000  0.21143400  1
  O  583  1  0.44432300  0.07890800  0.30575600  1
  O  584  1  0.38025400  0.93166200  0.35419900  1
  O  585  1  0.41518300  0.08919900  0.28811400  1
  O  586  1  0.34430600  0.91887800  0.37807700  1
  O  615  1  0.63798000  0.55840400  0.97246100  1
  O  616  1  0.55483800  0.62249700  0.02092000  1
  O  617  1  0.67741100  0.58752600  0.95481000  1
  O  618  1  0.57801800  0.65845200  0.04478800  1
  O  647  1  0.92383400  0.36475900  0.63912100  1
  O  648  1  0.07108200  0.44794100  0.68754400  1
  O  649  1  0.91352800  0.32532100  0.62148600  1
  O  650  1  0.08387500  0.42477800  0.71141500  1
