# generated using pymatgen
data_H32C43N12
_symmetry_space_group_name_H-M   'P 1'
_cell_length_a   25.59060000
_cell_length_b   34.77800000
_cell_length_c   34.77800000
_cell_angle_alpha   90.00000000
_cell_angle_beta   90.00000000
_cell_angle_gamma   90.00000000
_symmetry_Int_Tables_number   1
_chemical_formula_structural   H32C43N12
_chemical_formula_sum   'H128 C172 N48'
_cell_volume   30952.06828313
_cell_formula_units_Z   4
loop_
 _symmetry_equiv_pos_site_id
 _symmetry_equiv_pos_as_xyz
  1  'x, y, z'
loop_
 _atom_site_type_symbol
 _atom_site_label
 _atom_site_symmetry_multiplicity
 _atom_site_fract_x
 _atom_site_fract_y
 _atom_site_fract_z
 _atom_site_occupancy
  H  25  1  0.02472700  0.14795900  0.26990600  1
  H  26  1  0.09087900  0.12700900  0.31367500  1
  H  27  1  0.14957100  0.09638300  0.35750400  1
  H  28  1  0.19565700  0.06050300  0.40506600  1
  H  29  1  0.07395000  0.97806300  0.40803900  1
  H  30  1  0.93615400  0.04781600  0.29306700  1
  H  31  1  0.95573200  0.05621900  0.40953700  1
  H  32  1  0.83967400  0.96994000  0.41949500  1
  H  33  1  0.88120100  0.93340800  0.36988000  1
  H  34  1  0.08086500  0.98597600  0.28704200  1
  H  35  1  0.92965200  0.90637400  0.31756800  1
  H  36  1  0.98804400  0.88716300  0.26756900  1
  H  66  1  0.52464100  0.88607300  0.76423800  1
  H  67  1  0.59081700  0.90703800  0.72047500  1
  H  68  1  0.64951500  0.93767200  0.67664200  1
  H  69  1  0.69562500  0.97358300  0.62911200  1
  H  70  1  0.57396000  0.05605500  0.62620800  1
  H  71  1  0.43618700  0.98630900  0.74119500  1
  H  72  1  0.45579500  0.97787300  0.62467000  1
  H  73  1  0.33970900  0.06412500  0.61466400  1
  H  74  1  0.38119000  0.10066900  0.66429300  1
  H  75  1  0.58082200  0.04814500  0.74720400  1
  H  76  1  0.42958300  0.12770200  0.71663300  1
  H  77  1  0.48794000  0.14693300  0.76664500  1
  H  107  1  0.27490100  0.76427800  0.14800800  1
  H  108  1  0.34109000  0.72057500  0.12697300  1
  H  109  1  0.39971600  0.67669700  0.09634200  1
  H  110  1  0.44572500  0.62909200  0.06045700  1
  H  111  1  0.32393700  0.62614800  0.97808300  1
  H  112  1  0.18621800  0.74111700  0.04790900  1
  H  113  1  0.20584200  0.62470700  0.05625200  1
  H  114  1  0.08974300  0.61473000  0.97000600  1
  H  115  1  0.13125400  0.66434200  0.93345400  1
  H  116  1  0.33092400  0.74720100  0.98597800  1
  H  117  1  0.17967300  0.71668200  0.90641700  1
  H  118  1  0.23806900  0.76667600  0.88718900  1
  H  148  1  0.77501700  0.26982600  0.88623400  1
  H  149  1  0.84117800  0.31355100  0.90725600  1
  H  150  1  0.89975000  0.35747600  0.93784500  1
  H  151  1  0.94577500  0.40507500  0.97372400  1
  H  152  1  0.82394200  0.40810200  0.05605800  1
  H  153  1  0.68618000  0.29314200  0.98622600  1
  H  154  1  0.70583200  0.40954600  0.97788100  1
  H  155  1  0.58968400  0.41950000  0.06409700  1
  H  156  1  0.63117600  0.36988300  0.10065000  1
  H  157  1  0.83087000  0.28703300  0.04816600  1
  H  158  1  0.67957600  0.31754500  0.12768800  1
  H  159  1  0.73794100  0.26753400  0.14691400  1
  H  171  1  0.87752000  0.23887600  0.21969600  1
  H  175  1  0.89073200  0.07259400  0.17103600  1
  H  177  1  0.99271400  0.05381300  0.12689300  1
  H  178  1  0.96871300  0.01622200  0.09796600  1
  H  179  1  0.95633000  0.01582500  0.14815600  1
  H  181  1  0.87316700  0.01377800  0.08160000  1
  H  182  1  0.83077200  0.04926100  0.09977800  1
  H  183  1  0.85494100  0.01274200  0.13080200  1
  H  185  1  0.97894000  0.11861200  0.20506000  1
  H  187  1  0.83523500  0.26752300  0.16491800  1
  H  194  1  0.37784500  0.79533800  0.81448800  1
  H  198  1  0.39062900  0.96164100  0.86316800  1
  H  200  1  0.49258600  0.98046600  0.90733400  1
  H  201  1  0.46855000  0.01806500  0.93623200  1
  H  202  1  0.45620200  0.01843400  0.88603900  1
  H  204  1  0.37299600  0.02049500  0.95256900  1
  H  205  1  0.33062700  0.98499200  0.93439100  1
  H  206  1  0.35480100  0.02150300  0.90336000  1
  H  208  1  0.47919500  0.91554900  0.82910100  1
  H  210  1  0.33534600  0.76671700  0.86918600  1
  H  217  1  0.12765100  0.81445900  0.23895600  1
  H  221  1  0.14082500  0.86307000  0.07263700  1
  H  223  1  0.24280200  0.90724500  0.05388200  1
  H  224  1  0.21880900  0.93614500  0.01627100  1
  H  225  1  0.20646800  0.88595300  0.01588800  1
  H  227  1  0.12325600  0.95247500  0.01377500  1
  H  228  1  0.08084400  0.93429100  0.04924600  1
  H  229  1  0.10506800  0.90326200  0.01275100  1
  H  231  1  0.22904300  0.82907800  0.11866900  1
  H  233  1  0.08539000  0.86924700  0.26761200  1
  H  240  1  0.62685400  0.21985100  0.79540100  1
  H  244  1  0.64073800  0.17081400  0.96145400  1
  H  246  1  0.74333400  0.12750900  0.98030000  1
  H  247  1  0.71969600  0.09830500  0.01780200  1
  H  248  1  0.70652000  0.14838400  0.01827700  1
  H  250  1  0.62441200  0.08111700  0.02008500  1
  H  251  1  0.58182600  0.09899200  0.98457200  1
  H  252  1  0.60540100  0.13015600  0.02118000  1
  H  254  1  0.72889100  0.20506000  0.91581900  1
  H  256  1  0.58524900  0.16490400  0.76661600  1
  H  263  1  0.82829100  0.08542500  0.54288300  1
  H  267  1  0.62339600  0.01269100  0.49438400  1
  H  269  1  0.61846000  0.92642400  0.51409700  1
  H  270  1  0.57727700  0.91114400  0.47654500  1
  H  271  1  0.55947800  0.95168100  0.50460900  1
  H  273  1  0.57416300  0.94868200  0.41498900  1
  H  274  1  0.61272800  0.99030000  0.40992200  1
  H  275  1  0.55577300  0.99151900  0.43915600  1
  H  277  1  0.67695800  0.99021400  0.56045400  1
  H  279  1  0.87739900  0.07973200  0.47744800  1
  H  286  1  0.32825800  0.94864500  0.49131300  1
  H  290  1  0.12349100  0.02145800  0.53983200  1
  H  292  1  0.11853100  0.10772700  0.52014100  1
  H  293  1  0.07735000  0.12299200  0.55770000  1
  H  294  1  0.05955900  0.08246100  0.52963000  1
  H  296  1  0.07425500  0.08544000  0.61925000  1
  H  297  1  0.11282800  0.04382800  0.62430200  1
  H  298  1  0.05587300  0.04260700  0.59507100  1
  H  300  1  0.17697000  0.04391500  0.47375000  1
  H  302  1  0.37740700  0.95432900  0.55671900  1
  H  309  1  0.07821900  0.49137000  0.08549400  1
  H  313  1  0.87352200  0.53990400  0.01268500  1
  H  315  1  0.86844200  0.52025900  0.92640100  1
  H  316  1  0.82725900  0.55783800  0.91119000  1
  H  317  1  0.80950700  0.52974800  0.95171500  1
  H  319  1  0.82423900  0.61936500  0.94878300  1
  H  320  1  0.86286600  0.62438200  0.99036900  1
  H  321  1  0.80590000  0.59516600  0.99161100  1
  H  323  1  0.92696700  0.47379000  0.99021400  1
  H  325  1  0.12740900  0.55675400  0.07978900  1
  H  332  1  0.57834000  0.54301500  0.94888300  1
  H  336  1  0.37334300  0.49446700  0.02140200  1
  H  338  1  0.36863700  0.51363200  0.10779100  1
  H  339  1  0.32729700  0.47608800  0.12286600  1
  H  340  1  0.30957000  0.50445600  0.08252700  1
  H  342  1  0.32382500  0.41478200  0.08493500  1
  H  343  1  0.36229600  0.40988200  0.04325300  1
  H  344  1  0.30548500  0.43927400  0.04227100  1
  H  346  1  0.42701500  0.56040800  0.04392900  1
  H  348  1  0.62744800  0.47754000  0.95437200  1
  C  1  1  0.01428800  0.98079100  0.32309200  1
  C  2  1  0.97166700  0.95712400  0.33175200  1
  C  3  1  0.94274300  0.97348500  0.36100900  1
  C  4  1  0.96523100  0.00861100  0.37188700  1
  C  5  1  0.94044500  0.03035800  0.40134200  1
  C  6  1  0.89406500  0.01620200  0.41903700  1
  C  7  1  0.87303400  0.98060400  0.40715900  1
  C  8  1  0.89711700  0.95903000  0.37818100  1
  C  9  1  0.96156200  0.92296700  0.31159000  1
  C  10  1  0.99596900  0.91194900  0.28233300  1
  C  11  1  0.04120400  0.93388200  0.27373000  1
  C  12  1  0.04939800  0.96912900  0.29362200  1
  C  13  1  0.00810300  0.05179800  0.32320100  1
  C  14  1  0.05224100  0.07496600  0.32844600  1
  C  15  1  0.08473200  0.05828100  0.35535100  1
  C  16  1  0.06252100  0.02397400  0.36875000  1
  C  17  1  0.13336200  0.07175500  0.36817500  1
  C  18  1  0.16004200  0.05054900  0.39610900  1
  C  19  1  0.13809100  0.01684000  0.41245000  1
  C  20  1  0.08972500  0.00293500  0.39756700  1
  C  21  1  0.96893600  0.06412500  0.29699800  1
  C  22  1  0.97541100  0.09907800  0.27631300  1
  C  23  1  0.02023500  0.12193100  0.28326500  1
  C  24  1  0.05901100  0.10996900  0.30896800  1
  C  37  1  0.01250700  0.01633100  0.34745800  1
  C  42  1  0.51425400  0.05330300  0.71114400  1
  C  43  1  0.47162900  0.07696100  0.70246600  1
  C  44  1  0.44273200  0.06060100  0.67319200  1
  C  45  1  0.46524400  0.02548000  0.66232600  1
  C  46  1  0.44050100  0.00373700  0.63284800  1
  C  47  1  0.39412100  0.01787800  0.61514400  1
  C  48  1  0.37306700  0.05347100  0.62701100  1
  C  49  1  0.39711800  0.07504600  0.65600300  1
  C  50  1  0.46148900  0.11111200  0.72262800  1
  C  51  1  0.49588000  0.12214800  0.75188800  1
  C  52  1  0.54113900  0.10023600  0.76049100  1
  C  53  1  0.54934500  0.06498100  0.74062000  1
  C  54  1  0.50808400  0.98228400  0.71100000  1
  C  55  1  0.55219800  0.95909400  0.70572400  1
  C  56  1  0.58471400  0.97580200  0.67884800  1
  C  57  1  0.56254500  0.01014300  0.66549700  1
  C  58  1  0.63333300  0.96232300  0.66600600  1
  C  59  1  0.66002200  0.98354300  0.63808700  1
  C  60  1  0.63808500  0.01726800  0.62176900  1
  C  61  1  0.58973100  0.03117900  0.63666600  1
  C  62  1  0.46892100  0.96996300  0.73720900  1
  C  63  1  0.47532600  0.93494600  0.75780000  1
  C  64  1  0.52015100  0.91209600  0.75086500  1
  C  65  1  0.55892700  0.92406000  0.72515900  1
  C  78  1  0.51250400  0.01776900  0.68677000  1
  C  83  1  0.26435100  0.71114700  0.98080600  1
  C  84  1  0.22174400  0.70246000  0.95713300  1
  C  85  1  0.19280300  0.67322600  0.97351900  1
  C  86  1  0.21531600  0.66234900  0.00863600  1
  C  87  1  0.19054000  0.63289400  0.03039300  1
  C  88  1  0.14415400  0.61520100  0.01625300  1
  C  89  1  0.12310300  0.62707400  0.98065900  1
  C  90  1  0.14717100  0.65605200  0.95908200  1
  C  91  1  0.21159100  0.72266000  0.92300200  1
  C  92  1  0.24600600  0.75190800  0.91196600  1
  C  93  1  0.29127000  0.76049400  0.93387900  1
  C  94  1  0.29945600  0.74061700  0.96913400  1
  C  95  1  0.25821600  0.71103200  0.05181900  1
  C  96  1  0.30237400  0.70578200  0.07496700  1
  C  97  1  0.33486400  0.67888800  0.05825500  1
  C  98  1  0.31262700  0.66550300  0.02395300  1
  C  99  1  0.38348900  0.66603800  0.07171500  1
  C  100  1  0.41011900  0.63807500  0.05051100  1
  C  101  1  0.38811100  0.62172300  0.01683100  1
  C  102  1  0.33975700  0.63663200  0.00293200  1
  C  103  1  0.21901800  0.73718900  0.06419700  1
  C  104  1  0.22547300  0.75779400  0.09920000  1
  C  105  1  0.27037800  0.75091100  0.12198500  1
  C  106  1  0.30915800  0.72523100  0.10998400  1
  C  119  1  0.26258900  0.68678100  0.01634500  1
  C  124  1  0.76431400  0.32310300  0.05333600  1
  C  125  1  0.72169300  0.33178700  0.07699800  1
  C  126  1  0.69276900  0.36102700  0.06061100  1
  C  127  1  0.71532400  0.37193000  0.02551700  1
  C  128  1  0.69052200  0.40136000  0.00374000  1
  C  129  1  0.64413000  0.41904600  0.01786900  1
  C  130  1  0.62305600  0.40716500  0.05345200  1
  C  131  1  0.64711500  0.37818400  0.07503400  1
  C  132  1  0.71151400  0.31158200  0.11111900  1
  C  133  1  0.74590500  0.28231500  0.12214700  1
  C  134  1  0.79118000  0.27372900  0.10024700  1
  C  135  1  0.79939700  0.29361900  0.06500400  1
  C  136  1  0.75818700  0.32322400  0.98232700  1
  C  137  1  0.80237100  0.32844600  0.95919700  1
  C  138  1  0.83487900  0.35532200  0.97591500  1
  C  139  1  0.81262900  0.36873300  0.01020300  1
  C  140  1  0.88352200  0.36814300  0.96246600  1
  C  141  1  0.91016100  0.39610300  0.98366700  1
  C  142  1  0.88814500  0.41247900  0.01733400  1
  C  143  1  0.83978700  0.39758100  0.03123300  1
  C  144  1  0.71900900  0.29704400  0.96996000  1
  C  145  1  0.72553500  0.27636600  0.93500900  1
  C  146  1  0.77045300  0.28322800  0.91223400  1
  C  147  1  0.80921700  0.30892800  0.92422400  1
  C  160  1  0.76257100  0.34747500  0.01780100  1
  C  165  1  0.91191500  0.14960700  0.20040200  1
  C  167  1  0.88214300  0.21477700  0.20320100  1
  C  168  1  0.86761000  0.21389600  0.16400300  1
  C  170  1  0.89689800  0.14807100  0.16106100  1
  C  173  1  0.90041900  0.08215600  0.14497600  1
  C  176  1  0.95973300  0.03425600  0.12279300  1
  C  180  1  0.86482400  0.03159700  0.10669400  1
  C  184  1  0.94490800  0.12362100  0.21805900  1
  C  186  1  0.84270600  0.24531800  0.14757700  1
  C  188  1  0.41213900  0.88459500  0.83385100  1
  C  190  1  0.38238600  0.81945100  0.83097800  1
  C  191  1  0.36774400  0.82032500  0.87015800  1
  C  193  1  0.39694600  0.88617700  0.87314900  1
  C  196  1  0.40031800  0.95209200  0.88923300  1
  C  199  1  0.45959400  0.00001600  0.91141400  1
  C  203  1  0.36467700  0.00266100  0.92747900  1
  C  207  1  0.44502600  0.91073000  0.81625600  1
  C  209  1  0.34286600  0.78887700  0.88656800  1
  C  211  1  0.16206300  0.83376500  0.14971900  1
  C  213  1  0.13224000  0.83093800  0.21484200  1
  C  214  1  0.11768900  0.87013500  0.21395300  1
  C  216  1  0.14692300  0.87307100  0.14810400  1
  C  219  1  0.15049600  0.88913600  0.08219200  1
  C  222  1  0.20983400  0.91132500  0.03430900  1
  C  226  1  0.11491700  0.92738400  0.03160100  1
  C  230  1  0.19500700  0.81609500  0.12369300  1
  C  232  1  0.09284800  0.88657400  0.24539900  1
  C  234  1  0.66208900  0.20042100  0.88444300  1
  C  236  1  0.63172700  0.20332000  0.81945100  1
  C  237  1  0.61748700  0.16406100  0.82027600  1
  C  239  1  0.64715400  0.16106100  0.88601000  1
  C  242  1  0.65083100  0.14484800  0.95185900  1
  C  245  1  0.71037300  0.12308700  0.99980300  1
  C  249  1  0.61571700  0.10616900  0.00229600  1
  C  253  1  0.69496500  0.21808800  0.91050800  1
  C  255  1  0.59272800  0.14756800  0.78882000  1
  C  257  1  0.71956400  0.03404400  0.53795100  1
  C  259  1  0.80075300  0.06811400  0.53051900  1
  C  260  1  0.80851800  0.05203400  0.49366800  1
  C  262  1  0.72598000  0.01901400  0.50016000  1
  C  265  1  0.64497800  0.99229900  0.48197900  1
  C  268  1  0.59231800  0.93650500  0.49137300  1
  C  272  1  0.58900400  0.97385900  0.43023100  1
  C  276  1  0.68418000  0.01819200  0.56377500  1
  C  278  1  0.85377300  0.05775300  0.47213400  1
  C  280  1  0.21959400  0.00009700  0.49625000  1
  C  282  1  0.30075600  0.96598600  0.50367400  1
  C  283  1  0.30856200  0.98208200  0.54051300  1
  C  285  1  0.22608600  0.01517200  0.53401500  1
  C  288  1  0.14507000  0.04184900  0.55224200  1
  C  291  1  0.09239700  0.09763600  0.54286600  1
  C  295  1  0.08909900  0.06026900  0.60399900  1
  C  299  1  0.18419300  0.01593700  0.47043500  1
  C  301  1  0.35381500  0.97632900  0.56203600  1
  C  303  1  0.96959200  0.49631000  0.03400000  1
  C  305  1  0.05074200  0.50372600  0.06812600  1
  C  306  1  0.05858100  0.54055400  0.05201100  1
  C  308  1  0.97614600  0.53405000  0.01887200  1
  C  311  1  0.89508100  0.55231400  0.99228100  1
  C  314  1  0.84233100  0.54298300  0.93652500  1
  C  318  1  0.83910700  0.60409700  0.97393300  1
  C  322  1  0.93412200  0.47051000  0.01820400  1
  C  324  1  0.10383000  0.56207600  0.05778400  1
  C  326  1  0.46946400  0.53785100  0.00008800  1
  C  328  1  0.55075200  0.53054500  0.96607200  1
  C  329  1  0.55854800  0.49367400  0.98209100  1
  C  331  1  0.47601000  0.50007100  0.01511200  1
  C  334  1  0.39489400  0.48186200  0.04168800  1
  C  337  1  0.34237000  0.49104000  0.09758700  1
  C  341  1  0.33869800  0.43014800  0.05984400  1
  C  345  1  0.43411600  0.56369800  0.01593100  1
  C  347  1  0.60383000  0.47218300  0.97634300  1
  N  38  1  0.16547300  0.99905900  0.44026900  1
  N  39  1  0.07289900  0.92071900  0.24596000  1
  N  40  1  0.86662100  0.03302800  0.44649400  1
  N  41  1  0.93895200  0.11456200  0.25376400  1
  N  79  1  0.66546200  0.03506000  0.59394900  1
  N  80  1  0.57281100  0.11341500  0.78827000  1
  N  81  1  0.36670700  0.00103400  0.58768400  1
  N  82  1  0.43894500  0.91959700  0.78051300  1
  N  120  1  0.41542500  0.59386900  0.99904400  1
  N  121  1  0.32296700  0.78826700  0.92072700  1
  N  122  1  0.11674200  0.58773300  0.03309300  1
  N  123  1  0.18904000  0.78038000  0.11466600  1
  N  161  1  0.91548700  0.44032700  0.03510300  1
  N  162  1  0.82285100  0.24594300  0.11340500  1
  N  163  1  0.61671700  0.44651200  0.00102500  1
  N  164  1  0.68910700  0.25383500  0.91945100  1
  N  166  1  0.90447900  0.18338900  0.21924400  1
  N  169  1  0.87545600  0.18016100  0.14491800  1
  N  172  1  0.90381400  0.11828100  0.13781600  1
  N  174  1  0.91074700  0.05628800  0.11573900  1
  N  189  1  0.40476900  0.85083600  0.81495700  1
  N  192  1  0.37549800  0.85407000  0.88925400  1
  N  195  1  0.40378400  0.91597200  0.89639900  1
  N  197  1  0.41061500  0.97797600  0.91846200  1
  N  212  1  0.15462200  0.81488800  0.18347500  1
  N  215  1  0.12550200  0.88921300  0.18020500  1
  N  218  1  0.15386000  0.89631300  0.11831600  1
  N  220  1  0.16082600  0.91836700  0.05631600  1
  N  235  1  0.65420800  0.21936500  0.85078100  1
  N  238  1  0.62566600  0.14491600  0.85393800  1
  N  241  1  0.65439500  0.13777700  0.91572400  1
  N  243  1  0.66155800  0.11565400  0.97768900  1
  N  258  1  0.75799200  0.05764300  0.55133300  1
  N  261  1  0.77027700  0.02810800  0.48061600  1
  N  264  1  0.69509400  0.99339100  0.48329300  1
  N  266  1  0.62102000  0.96159200  0.46380100  1
  N  281  1  0.25798600  0.97646400  0.48287100  1
  N  284  1  0.27036600  0.00604600  0.55356800  1
  N  287  1  0.19518500  0.04077100  0.55090500  1
  N  289  1  0.12110700  0.07254900  0.57042900  1
  N  304  1  0.00795800  0.48293400  0.05765800  1
  N  307  1  0.02041000  0.55360200  0.02802400  1
  N  310  1  0.94519700  0.55096000  0.99331400  1
  N  312  1  0.87108400  0.57052400  0.96161000  1
  N  327  1  0.50795900  0.55130800  0.97657600  1
  N  330  1  0.52030700  0.48054700  0.00597400  1
  N  333  1  0.44501400  0.48310100  0.04059500  1
  N  335  1  0.37089600  0.46355400  0.07230000  1
