# generated using pymatgen
data_Cr3H12C27O20
_symmetry_space_group_name_H-M   'P 1'
_cell_length_a   10.93799000
_cell_length_b   10.94581841
_cell_length_c   18.89502000
_cell_angle_alpha   90.12213023
_cell_angle_beta   90.19947000
_cell_angle_gamma   119.84230399
_symmetry_Int_Tables_number   1
_chemical_formula_structural   Cr3H12C27O20
_chemical_formula_sum   'Cr6 H24 C54 O40'
_cell_volume   1962.20659973
_cell_formula_units_Z   2
loop_
 _symmetry_equiv_pos_site_id
 _symmetry_equiv_pos_as_xyz
  1  'x, y, z'
loop_
 _atom_site_type_symbol
 _atom_site_label
 _atom_site_symmetry_multiplicity
 _atom_site_fract_x
 _atom_site_fract_y
 _atom_site_fract_z
 _atom_site_occupancy
  C  C0  1  0.77573000  0.45650000  0.85183000  1
  C  C1  1  0.85272000  0.50332000  0.91827000  1
  C  C2  1  0.93192000  0.30400000  0.05213000  1
  C  C3  1  0.10540000  0.02698000  0.55735000  1
  C  C4  1  0.21508000  0.13462000  0.41242000  1
  C  C5  1  0.51789000  0.90856000  0.43866000  1
  C  C6  1  0.47851000  0.89504000  0.58918000  1
  C  C7  1  0.33185000  0.52514000  0.07055000  1
  C  C8  1  0.40087000  0.64358000  0.02697000  1
  C  C9  1  0.89278000  0.41506000  0.95058000  1
  C  C10  1  0.39581000  0.63066000  0.95391000  1
  C  C11  1  0.91811000  0.42278000  0.02255000  1
  C  C12  1  0.31602000  0.54884000  0.14501000  1
  C  C13  1  0.32699500  0.49480000  0.92316000  1
  C  C14  1  0.91956000  0.53474000  0.06298000  1
  C  C15  1  0.23472000  0.03166000  0.52887000  1
  C  C16  1  0.26694000  0.05774000  0.45736000  1
  C  C17  1  0.34462500  0.00214000  0.42619000  1
  C  C18  1  0.32135000  0.99928000  0.57266000  1
  C  C19  1  0.42318000  0.95670000  0.46899000  1
  C  C20  1  0.40788000  0.95238000  0.54291000  1
  C  C21  1  0.47986000  0.55822000  0.52553000  1
  C  C22  1  0.77893000  0.37038000  0.45397000  1
  C  C23  1  0.46434000  0.54984000  0.45214000  1
  C  C24  1  0.76254500  0.35241000  0.52700000  1
  C  C25  1  0.35390000  0.06252000  0.85168000  1
  C  C26  1  0.29249000  0.94126000  0.14957000  1
  C  C27  1  0.33019000  0.50136000  0.42322000  1
  C  C28  1  0.25674000  0.39170000  0.04063000  1
  C  C29  1  0.80524000  0.47194000  0.57127000  1
  C  C30  1  0.21058500  0.44308000  0.46693000  1
  C  C31  1  0.86669000  0.60608000  0.54262000  1
  C  C32  1  0.22328000  0.43970000  0.53992000  1
  C  C33  1  0.88107500  0.62428000  0.46998000  1
  C  C34  1  0.85925500  0.61641000  0.95541000  1
  C  C35  1  0.35905000  0.49554000  0.56976000  1
  C  C36  1  0.84230000  0.50556000  0.42527000  1
  C  C37  1  0.37229000  0.47614000  0.85257000  1
  C  C38  1  0.95604000  0.54836000  0.13920000  1
  C  C39  1  0.76656000  0.45102000  0.64566000  1
  C  C40  1  0.31589000  0.54332000  0.35232000  1
  C  C41  1  0.35081000  0.05784000  0.64460000  1
  C  C42  1  0.29690000  0.94152000  0.35540000  1
  C  C43  1  0.38064000  0.47756000  0.64461000  1
  C  C44  1  0.89927000  0.52296000  0.35398000  1
  C  C45  1  0.33566000  0.00502000  0.92325000  1
  C  C46  1  0.33312500  0.01092000  0.08076000  1
  C  C47  1  0.43467000  0.01026000  0.04166000  1
  C  C48  1  0.44856000  0.04464000  0.96581000  1
  C  C49  1  0.24682000  0.37512000  0.96710000  1
  C  C50  1  0.89181000  0.63388000  0.02752000  1
  C  C51  1  0.14646000  0.23334000  0.93849000  1
  C  C52  1  0.87963000  0.74782000  0.06361000  1
  C  C53  1  0.46220000  0.76230000  0.91190000  1
  Cr  Cr54  1  0.60554000  0.53854000  0.75071000  1
  Cr  Cr55  1  0.06334000  0.77168000  0.25229000  1
  Cr  Cr56  1  0.29166000  0.22832000  0.74771000  1
  Cr  Cr57  1  0.06700000  0.46146000  0.24929000  1
  Cr  Cr58  1  0.60283000  0.22524000  0.74878000  1
  Cr  Cr59  1  0.37759000  0.77476000  0.25122000  1
  H  H60  1  0.50852000  0.98292000  0.06512000  1
  H  H61  1  0.22948000  0.94510000  0.94410000  1
  H  H62  1  0.26533000  0.04670000  0.05773000  1
  H  H63  1  0.20011500  0.30130000  0.07478000  1
  H  H64  1  0.82757000  0.68476000  0.92956000  1
  H  H65  1  0.45373000  0.74822000  0.04986000  1
  H  H66  1  0.89272000  0.33060000  0.92036000  1
  H  H67  1  0.55471000  0.10258000  0.94472000  1
  H  H68  1  0.55362000  0.55094000  0.36303000  1
  H  H69  1  0.70180000  0.15104000  0.52228000  1
  H  H70  1  0.12678000  0.41956000  0.62937000  1
  H  H71  1  0.87437500  0.75582000  0.40547500  1
  H  H72  1  0.09391000  0.22186000  0.88814000  1
  H  H73  1  0.82389000  0.72918000  0.11321000  1
  H  H74  1  0.54842000  0.85774000  0.93446000  1
  H  H75  1  0.00113000  0.31842000  0.09578000  1
  H  H76  1  0.03781000  0.94242000  0.59273000  1
  H  H77  1  0.28812000  0.21558000  0.37683000  1
  H  H78  1  0.52052000  0.81934000  0.46130000  1
  H  H79  1  0.57844000  0.90432000  0.57430000  1
  H  H80  1  0.67835000  0.69990000  0.52186000  1
  H  H81  1  0.79754000  0.21822000  0.41831000  1
  H  H82  1  0.10668500  0.40821000  0.44487000  1
  H  H83  1  0.89708000  0.69646000  0.57666000  1
  O  O84  1  0.49389000  0.56864000  0.83051000  1
  O  O85  1  0.17390000  0.91216000  0.33321000  1
  O  O86  1  0.26174000  0.08784000  0.66679000  1
  O  O87  1  0.30488000  0.35808000  0.67443000  1
  O  O88  1  0.94680000  0.64192000  0.32557000  1
  O  O89  1  0.50001000  0.33070000  0.74907000  1
  O  O90  1  0.16931000  0.66930000  0.25093000  1
  O  O91  1  0.92525000  0.43136000  0.16949000  1
  O  O92  1  0.72168000  0.52528000  0.82520000  1
  O  O93  1  0.19640000  0.47472000  0.17480000  1
  O  O94  1  0.74343000  0.33480000  0.82995000  1
  O  O95  1  0.40863000  0.66520000  0.17005000  1
  O  O96  1  0.47262000  0.10792000  0.82178000  1
  O  O97  1  0.36470000  0.89208000  0.17822000  1
  O  O98  1  0.25994000  0.08636000  0.82674000  1
  O  O99  1  0.17358000  0.91364000  0.17326000  1
  O  O100  1  0.30322000  0.35672000  0.82271000  1
  O  O101  1  0.94650000  0.64328000  0.17729000  1
  O  O102  1  0.49567000  0.57010000  0.67056000  1
  O  O103  1  0.92557000  0.42990000  0.32944000  1
  O  O104  1  0.72333000  0.52664000  0.67693000  1
  O  O105  1  0.19669000  0.47336000  0.32307000  1
  O  O106  1  0.74521000  0.33626000  0.67000000  1
  O  O107  1  0.47427000  0.10928000  0.67350000  1
  O  O108  1  0.40895000  0.66374000  0.33000000  1
  O  O109  1  0.58275000  0.59488000  0.41053000  1
  O  O110  1  0.70010000  0.21900000  0.55607000  1
  O  O111  1  0.10181500  0.38860000  0.57959000  1
  O  O112  1  0.93566000  0.75948000  0.44510000  1
  O  O113  1  0.36499000  0.89072000  0.32650000  1
  O  O114  1  0.11743000  0.12732000  0.97209000  1
  O  O115  1  0.92638000  0.86320000  0.03606000  1
  O  O116  1  0.41806000  0.76688000  0.85307000  1
  O  O117  1  0.86454000  0.18560000  0.02694000  1
  O  O118  1  0.07829000  0.12052000  0.54603000  1
  O  O119  1  0.09068500  0.10102000  0.41011000  1
  O  O120  1  0.59779500  0.97102000  0.39007000  1
  O  O121  1  0.42359000  0.83392000  0.64408000  1
  O  O122  1  0.61315000  0.62644000  0.55502000  1
  O  O123  1  0.73276000  0.25574000  0.40985000  1
