# generated using pymatgen
data_Zn2H9C16N2ClO8
_symmetry_space_group_name_H-M   'P 1'
_cell_length_a   7.78536000
_cell_length_b   8.56888000
_cell_length_c   10.62022000
_cell_angle_alpha   88.91546000
_cell_angle_beta   85.73957000
_cell_angle_gamma   86.34226000
_symmetry_Int_Tables_number   1
_chemical_formula_structural   Zn2H9C16N2ClO8
_chemical_formula_sum   'Zn2 H9 C16 N2 Cl1 O8'
_cell_volume   705.02544754
_cell_formula_units_Z   1
loop_
 _symmetry_equiv_pos_site_id
 _symmetry_equiv_pos_as_xyz
  1  'x, y, z'
loop_
 _atom_site_type_symbol
 _atom_site_label
 _atom_site_symmetry_multiplicity
 _atom_site_fract_x
 _atom_site_fract_y
 _atom_site_fract_z
 _atom_site_occupancy
  Zn  Zn0  1  0.69307000  0.51799000  0.48556000  1
  Zn  Zn1  1  0.30693000  0.48201000  0.51444000  1
  H  H2  1  0.01336000  0.61794000  0.40536000  1
  H  H3  1  0.59283000  0.78711000  0.22420000  1
  H  H4  1  0.69212000  0.01008000  0.10030000  1
  H  H5  1  0.69801000  0.00984000  0.86732000  1
  H  H6  1  0.60953000  0.78431000  0.75801000  1
  H  H7  1  0.39946000  0.28337000  0.89153000  1
  H  H8  1  0.29846000  0.00926000  0.51409000  1
  H  H9  1  0.70153000  0.99072000  0.48480000  1
  H  H10  1  0.98663000  0.38206000  0.59463000  1
  C  C11  1  0.45426000  0.79467000  0.50301000  1
  C  C12  1  0.54572000  0.20533000  0.49660000  1
  C  C13  1  0.50122000  0.50323000  0.73920000  1
  C  C14  1  0.59879000  0.77952000  0.12248000  1
  C  C15  1  0.65404000  0.90871000  0.05252000  1
  C  C16  1  0.65771000  0.90846000  0.92141000  1
  C  C17  1  0.60783000  0.77829000  0.85981000  1
  C  C18  1  0.55515000  0.64475000  0.92933000  1
  C  C19  1  0.54995000  0.64531000  0.06141000  1
  C  C20  1  0.49222000  0.51209000  0.12848000  1
  C  C21  1  0.43496000  0.38333000  0.06825000  1
  C  C22  1  0.44105000  0.38373000  0.93931000  1
  C  C23  1  0.50257000  0.51121000  0.87122000  1
  C  C24  1  0.43023000  0.95820000  0.50452000  1
  C  C25  1  0.56976000  0.04179000  0.49445000  1
  C  C26  1  0.49757000  0.50317000  0.26073000  1
  N  N27  1  0.04967000  0.45795000  0.53375000  1
  N  N28  1  0.95033000  0.54205000  0.46625000  1
  Cl  Cl29  1  0.36081000  0.21673000  0.15081000  1
  O  O30  1  0.61075000  0.73857000  0.49172000  1
  O  O31  1  0.32161000  0.71163000  0.51335000  1
  O  O32  1  0.64460000  0.51347000  0.30595000  1
  O  O33  1  0.35546000  0.48653000  0.32758000  1
  O  O34  1  0.67839000  0.28837000  0.48665000  1
  O  O35  1  0.38925000  0.26143000  0.50828000  1
  O  O36  1  0.64454000  0.51347000  0.67242000  1
  O  O37  1  0.35540000  0.48653000  0.69405000  1
