# generated using pymatgen
data_BaZnH6C16O9
_symmetry_space_group_name_H-M   'P 1'
_cell_length_a   11.06071000
_cell_length_b   12.95714000
_cell_length_c   19.39253000
_cell_angle_alpha   77.22260000
_cell_angle_beta   89.98469000
_cell_angle_gamma   89.86567000
_symmetry_Int_Tables_number   1
_chemical_formula_structural   BaZnH6C16O9
_chemical_formula_sum   'Ba4 Zn4 H24 C64 O36'
_cell_volume   2710.41281809
_cell_formula_units_Z   4
loop_
 _symmetry_equiv_pos_site_id
 _symmetry_equiv_pos_as_xyz
  1  'x, y, z'
loop_
 _atom_site_type_symbol
 _atom_site_label
 _atom_site_symmetry_multiplicity
 _atom_site_fract_x
 _atom_site_fract_y
 _atom_site_fract_z
 _atom_site_occupancy
  Ba  Ba1  1  0.95671000  0.12144000  0.89770000  1.0
  Ba  Ba2  1  0.45866000  0.37829000  0.60217000  1.0
  Ba  Ba3  1  0.04330000  0.87856000  0.10229000  1.0
  Ba  Ba4  1  0.54135000  0.62171000  0.39783000  1.0
  Zn  Zn1  1  0.81492000  0.83558000  0.97048000  1.0
  Zn  Zn2  1  0.31226000  0.66461000  0.52909000  1.0
  Zn  Zn3  1  0.18509000  0.16442000  0.02952000  1.0
  Zn  Zn4  1  0.68775000  0.33540000  0.47091000  1.0
  H  H1  1  0.52171000  0.05380000  0.04416000  1.0
  H  H2  1  0.45402000  0.20435000  0.09454000  1.0
  H  H3  1  0.60559000  0.31916000  0.13634000  1.0
  H  H4  1  0.79661000  0.28853000  0.26502000  1.0
  H  H5  1  0.77988000  0.62759000  0.23394000  1.0
  H  H6  1  0.83244000  0.48465000  0.05531000  1.0
  H  H7  1  0.02122000  0.44463000  0.45524000  1.0
  H  H8  1  0.95593000  0.29373000  0.40474000  1.0
  H  H9  1  0.10947000  0.17992000  0.36313000  1.0
  H  H10  1  0.29921000  0.21161000  0.23475000  1.0
  H  H11  1  0.28003000  0.87269000  0.26612000  1.0
  H  H12  1  0.33428000  0.01527000  0.44457000  1.0
  H  H13  1  0.47830000  0.94621000  0.95584000  1.0
  H  H14  1  0.54599000  0.79565000  0.90546000  1.0
  H  H15  1  0.39442000  0.68084000  0.86366000  1.0
  H  H16  1  0.20340000  0.71147000  0.73497000  1.0
  H  H17  1  0.22013000  0.37241000  0.76605000  1.0
  H  H18  1  0.16757000  0.51535000  0.94469000  1.0
  H  H19  1  0.97879000  0.55537000  0.54476000  1.0
  H  H20  1  0.04408000  0.70627000  0.59526000  1.0
  H  H21  1  0.89054000  0.82008000  0.63687000  1.0
  H  H22  1  0.70080000  0.78839000  0.76525000  1.0
  H  H23  1  0.71998000  0.12731000  0.73388000  1.0
  H  H24  1  0.66573000  0.98473000  0.55543000  1.0
  C  C1  1  0.75065000  0.99136000  0.02778000  1.0
  C  C2  1  0.71189000  0.08282000  0.05723000  1.0
  C  C3  1  0.58778000  0.10365000  0.06251000  1.0
  C  C4  1  0.55010000  0.18881000  0.09022000  1.0
  C  C5  1  0.63458000  0.25370000  0.11357000  1.0
  C  C6  1  0.75786000  0.23324000  0.10817000  1.0
  C  C7  1  0.79822000  0.14894000  0.07934000  1.0
  C  C8  1  0.81866000  0.37879000  0.15796000  1.0
  C  C9  1  0.79859000  0.36683000  0.23027000  1.0
  C  C10  1  0.78135000  0.45753000  0.25744000  1.0
  C  C11  1  0.78834000  0.55761000  0.21214000  1.0
  C  C12  1  0.80570000  0.56847000  0.13944000  1.0
  C  C13  1  0.81881000  0.47795000  0.11167000  1.0
  C  C14  1  0.75259000  0.44995000  0.33400000  1.0
  C  C15  1  0.81581000  0.67741000  0.09331000  1.0
  C  C16  1  0.93253000  0.12860000  0.07904000  1.0
  C  C17  1  0.24908000  0.50851000  0.47210000  1.0
  C  C18  1  0.21193000  0.41688000  0.44240000  1.0
  C  C19  1  0.08814000  0.39532000  0.43686000  1.0
  C  C20  1  0.05179000  0.31001000  0.40903000  1.0
  C  C21  1  0.13737000  0.24566000  0.38585000  1.0
  C  C22  1  0.26037000  0.26676000  0.39150000  1.0
  C  C23  1  0.29952000  0.35131000  0.42037000  1.0
  C  C24  1  0.32151000  0.12133000  0.34187000  1.0
  C  C25  1  0.30120000  0.13337000  0.26957000  1.0
  C  C26  1  0.28342000  0.04283000  0.24239000  1.0
  C  C27  1  0.28927000  0.94272000  0.28776000  1.0
  C  C28  1  0.30622000  0.93190000  0.36048000  1.0
  C  C29  1  0.32058000  0.02224000  0.38819000  1.0
  C  C30  1  0.25469000  0.05055000  0.16582000  1.0
  C  C31  1  0.31481000  0.82313000  0.40682000  1.0
  C  C32  1  0.43390000  0.37172000  0.42128000  1.0
  C  C33  1  0.24936000  0.00865000  0.97221000  1.0
  C  C34  1  0.28812000  0.91718000  0.94277000  1.0
  C  C35  1  0.41223000  0.89635000  0.93749000  1.0
  C  C36  1  0.44991000  0.81119000  0.90978000  1.0
  C  C37  1  0.36543000  0.74630000  0.88643000  1.0
  C  C38  1  0.24215000  0.76676000  0.89183000  1.0
  C  C39  1  0.20179000  0.85106000  0.92066000  1.0
  C  C40  1  0.18135000  0.62121000  0.84204000  1.0
  C  C41  1  0.20142000  0.63317000  0.76973000  1.0
  C  C42  1  0.21866000  0.54248000  0.74256000  1.0
  C  C43  1  0.21167000  0.44239000  0.78786000  1.0
  C  C44  1  0.19431000  0.43153000  0.86056000  1.0
  C  C45  1  0.18120000  0.52205000  0.88833000  1.0
  C  C46  1  0.24742000  0.55006000  0.66600000  1.0
  C  C47  1  0.18420000  0.32259000  0.90668000  1.0
  C  C48  1  0.06748000  0.87140000  0.92096000  1.0
  C  C49  1  0.75093000  0.49149000  0.52790000  1.0
  C  C50  1  0.78808000  0.58312000  0.55760000  1.0
  C  C51  1  0.91187000  0.60468000  0.56314000  1.0
  C  C52  1  0.94822000  0.68999000  0.59097000  1.0
  C  C53  1  0.86264000  0.75435000  0.61415000  1.0
  C  C54  1  0.73964000  0.73324000  0.60850000  1.0
  C  C55  1  0.70049000  0.64869000  0.57963000  1.0
  C  C56  1  0.67850000  0.87867000  0.65812000  1.0
  C  C57  1  0.69881000  0.86664000  0.73043000  1.0
  C  C58  1  0.71659000  0.95718000  0.75761000  1.0
  C  C59  1  0.71074000  0.05728000  0.71224000  1.0
  C  C60  1  0.69379000  0.06810000  0.63952000  1.0
  C  C61  1  0.67942000  0.97776000  0.61181000  1.0
  C  C62  1  0.74532000  0.94945000  0.83418000  1.0
  C  C63  1  0.68520000  0.17687000  0.59318000  1.0
  C  C64  1  0.56611000  0.62828000  0.57872000  1.0
  O  O1  1  0.86494000  0.98422000  0.01126000  1.0
  O  O2  1  0.67766000  0.92202000  0.01743000  1.0
  O  O3  1  0.84863000  0.29023000  0.13153000  1.0
  O  O4  1  0.74663000  0.35571000  0.37342000  1.0
  O  O5  1  0.73394000  0.53479000  0.35442000  1.0
  O  O6  1  0.85699000  0.75005000  0.12128000  1.0
  O  O7  1  0.78375000  0.69022000  0.02833000  1.0
  O  O8  1  0.97622000  0.06050000  0.12922000  1.0
  O  O9  1  0.99441000  0.18376000  0.02721000  1.0
  O  O10  1  0.36311000  0.51591000  0.48888000  1.0
  O  O11  1  0.17528000  0.57771000  0.48235000  1.0
  O  O12  1  0.35170000  0.20970000  0.36837000  1.0
  O  O13  1  0.24865000  0.14471000  0.12626000  1.0
  O  O14  1  0.23614000  0.96574000  0.14544000  1.0
  O  O15  1  0.35256000  0.74923000  0.37880000  1.0
  O  O16  1  0.28520000  0.81175000  0.47211000  1.0
  O  O17  1  0.47823000  0.43912000  0.37102000  1.0
  O  O18  1  0.49556000  0.31706000  0.47358000  1.0
  O  O19  1  0.13507000  0.01578000  0.98874000  1.0
  O  O20  1  0.32235000  0.07798000  0.98257000  1.0
  O  O21  1  0.15138000  0.70977000  0.86847000  1.0
  O  O22  1  0.25338000  0.64429000  0.62658000  1.0
  O  O23  1  0.26607000  0.46522000  0.64558000  1.0
  O  O24  1  0.14302000  0.24995000  0.87872000  1.0
  O  O25  1  0.21626000  0.30979000  0.97167000  1.0
  O  O26  1  0.02379000  0.93950000  0.87077000  1.0
  O  O27  1  0.00560000  0.81624000  0.97279000  1.0
  O  O28  1  0.63690000  0.48409000  0.51111000  1.0
  O  O29  1  0.82473000  0.42229000  0.51765000  1.0
  O  O30  1  0.64831000  0.79030000  0.63163000  1.0
  O  O31  1  0.75136000  0.85529000  0.87374000  1.0
  O  O32  1  0.76387000  0.03426000  0.85456000  1.0
  O  O33  1  0.64745000  0.25077000  0.62120000  1.0
  O  O34  1  0.71481000  0.18825000  0.52789000  1.0
  O  O35  1  0.52178000  0.56088000  0.62898000  1.0
  O  O36  1  0.50445000  0.68294000  0.52642000  1.0
