# generated using pymatgen
data_H36C54N8O3
_symmetry_space_group_name_H-M   'P 1'
_cell_length_a   9.92626667
_cell_length_b   52.38595000
_cell_length_c   52.38600000
_cell_angle_alpha   120.00009472
_cell_angle_beta   90.00000000
_cell_angle_gamma   90.00000000
_symmetry_Int_Tables_number   1
_chemical_formula_structural   H36C54N8O3
_chemical_formula_sum   'H108 C162 N24 O9'
_cell_volume   23590.99280256
_cell_formula_units_Z   3
loop_
 _symmetry_equiv_pos_site_id
 _symmetry_equiv_pos_as_xyz
  1  'x, y, z'
loop_
 _atom_site_type_symbol
 _atom_site_label
 _atom_site_symmetry_multiplicity
 _atom_site_fract_x
 _atom_site_fract_y
 _atom_site_fract_z
 _atom_site_occupancy
  C  2  1  0.98048100  0.82038500  0.43251100  1
  C  3  1  0.97955300  0.86825900  0.43330100  1
  C  4  1  0.96940400  0.81980800  0.38645700  1
  C  5  1  0.84766100  0.80621800  0.37223900  1
  C  6  1  0.84721700  0.78285300  0.34285600  1
  C  7  1  0.96825100  0.77254100  0.32645800  1
  C  8  1  0.08938000  0.78706200  0.34059400  1
  C  9  1  0.09013500  0.81010300  0.37011300  1
  C  10  1  0.86097900  0.80966700  0.43838900  1
  C  11  1  0.86476700  0.78666800  0.44491500  1
  C  12  1  0.98801100  0.77311000  0.44521300  1
  C  13  1  0.10804100  0.78523800  0.44096800  1
  C  14  1  0.10437000  0.80834600  0.43457300  1
  C  15  1  0.87313500  0.88512900  0.45202500  1
  C  16  1  0.87851300  0.91619800  0.46760700  1
  C  17  1  0.99051600  0.93163600  0.46512900  1
  C  18  1  0.09529800  0.91445900  0.44571700  1
  C  19  1  0.09063900  0.88340300  0.43034900  1
  C  33  1  0.98304900  0.60281000  0.17213500  1
  C  34  1  0.98033400  0.55570900  0.12430400  1
  C  35  1  0.96887100  0.55740400  0.17278600  1
  C  36  1  0.84692100  0.55740100  0.18663700  1
  C  37  1  0.84542500  0.55138300  0.20999600  1
  C  38  1  0.96567200  0.54481500  0.22015000  1
  C  39  1  0.08697200  0.54387000  0.20541500  1
  C  40  1  0.08872400  0.55022600  0.18229200  1
  C  41  1  0.86425700  0.61973100  0.18254900  1
  C  42  1  0.86890200  0.64924800  0.20555000  1
  C  43  1  0.99225200  0.66278300  0.21934600  1
  C  44  1  0.11172500  0.64607900  0.20753900  1
  C  45  1  0.10720700  0.61657600  0.18445500  1
  C  46  1  0.87419700  0.55767500  0.10744000  1
  C  47  1  0.87951500  0.54216100  0.07637300  1
  C  48  1  0.99121100  0.52412500  0.06094200  1
  C  49  1  0.09568600  0.52177500  0.07811300  1
  C  50  1  0.09107100  0.53748000  0.10916600  1
  C  64  1  0.98207100  0.55972800  0.38969500  1
  C  65  1  0.97924100  0.55909400  0.43684600  1
  C  66  1  0.96739900  0.60584300  0.43504500  1
  C  67  1  0.84537900  0.61951300  0.43474000  1
  C  68  1  0.84366700  0.64883400  0.44059700  1
  C  69  1  0.96346400  0.66574700  0.44749400  1
  C  70  1  0.08471900  0.65212300  0.44877800  1
  C  71  1  0.08690600  0.62265200  0.44246400  1
  C  72  1  0.86315600  0.55309800  0.37280400  1
  C  73  1  0.86751900  0.54667700  0.34331600  1
  C  74  1  0.99062000  0.54709800  0.32977300  1
  C  75  1  0.11024300  0.55204200  0.34645300  1
  C  76  1  0.10607400  0.55841800  0.37594400  1
  C  77  1  0.87252800  0.54046500  0.43506400  1
  C  78  1  0.87771300  0.52491000  0.45058000  1
  C  79  1  0.98993200  0.52728500  0.46840000  1
  C  80  1  0.09506200  0.54659300  0.47055400  1
  C  81  1  0.09046800  0.56197200  0.45487800  1
  C  95  1  0.99286300  0.16900500  0.56145000  1
  C  96  1  0.97796100  0.12093900  0.56001500  1
  C  97  1  0.96757100  0.16883600  0.60701000  1
  C  98  1  0.85016400  0.18549600  0.62010100  1
  C  99  1  0.85012900  0.20804100  0.64981500  1
  C  100  1  0.96672800  0.21438600  0.66758400  1
  C  101  1  0.08238800  0.19669200  0.65453600  1
  C  102  1  0.08291300  0.17423800  0.62472000  1
  C  103  1  0.87735000  0.17710400  0.55152300  1
  C  104  1  0.88244300  0.20045500  0.54550700  1
  C  105  1  0.00267100  0.21671600  0.54927500  1
  C  106  1  0.12005100  0.20677400  0.55721400  1
  C  107  1  0.11511900  0.18358900  0.56346100  1
  C  108  1  0.85873200  0.10516400  0.55735200  1
  C  109  1  0.85769500  0.07407800  0.54155900  1
  C  110  1  0.97585100  0.05754700  0.52796000  1
  C  111  1  0.09530400  0.07379600  0.53114000  1
  C  112  1  0.09631600  0.10487600  0.54670200  1
  C  126  1  0.99471200  0.38291600  0.82366000  1
  C  127  1  0.97912000  0.42957700  0.87167000  1
  C  128  1  0.96776700  0.42856100  0.82373300  1
  C  129  1  0.85023900  0.42472500  0.80702200  1
  C  130  1  0.84937300  0.43182000  0.78442600  1
  C  131  1  0.96529800  0.44341700  0.77805900  1
  C  132  1  0.08103200  0.44835200  0.79580700  1
  C  133  1  0.08234800  0.44107500  0.81832000  1
  C  134  1  0.87963600  0.36478600  0.81582400  1
  C  135  1  0.88473400  0.33542200  0.79246900  1
  C  136  1  0.00459000  0.32300100  0.77600700  1
  C  137  1  0.12168300  0.34099200  0.78573500  1
  C  138  1  0.11671700  0.37043400  0.80889500  1
  C  139  1  0.85975000  0.44263900  0.88740800  1
  C  140  1  0.85861200  0.45798700  0.91849400  1
  C  141  1  0.97675300  0.46098900  0.93505400  1
  C  142  1  0.09634200  0.44797400  0.91883900  1
  C  143  1  0.09748000  0.43241700  0.88776200  1
  C  157  1  0.99275600  0.43122600  0.60961500  1
  C  158  1  0.97770100  0.43258600  0.56295700  1
  C  159  1  0.96722300  0.38563000  0.56392600  1
  C  160  1  0.84968600  0.37257600  0.56750200  1
  C  161  1  0.84953100  0.34287500  0.56038200  1
  C  162  1  0.96613500  0.32510000  0.54901300  1
  C  163  1  0.08192500  0.33810900  0.54436900  1
  C  164  1  0.08250500  0.36789200  0.55162300  1
  C  165  1  0.87735000  0.44129000  0.62766000  1
  C  166  1  0.88234200  0.44728900  0.65702400  1
  C  167  1  0.00241800  0.44344500  0.66951800  1
  C  168  1  0.11976300  0.43541700  0.65161800  1
  C  169  1  0.11490300  0.42915400  0.62218100  1
  C  170  1  0.85827500  0.43536200  0.54997600  1
  C  171  1  0.85720200  0.45112400  0.53465300  1
  C  172  1  0.97550300  0.46458600  0.53157600  1
  C  173  1  0.09515200  0.46128900  0.54450500  1
  C  174  1  0.09620600  0.44575800  0.56005400  1
  C  187  1  0.99394700  0.96332400  0.48113400  1
  C  189  1  0.86333600  0.00784500  0.49851200  1
  C  190  1  0.97716100  0.02584400  0.51202100  1
  C  192  1  0.10936700  0.98118600  0.49466300  1
  C  194  1  0.23421900  0.97011700  0.49585800  1
  C  195  1  0.26107500  0.96463100  0.51988400  1
  C  200  1  0.99463200  0.50842500  0.02926600  1
  C  202  1  0.86409200  0.48127300  0.98474700  1
  C  203  1  0.97795700  0.47678100  0.96675600  1
  C  205  1  0.11010200  0.50408700  0.01141800  1
  C  207  1  0.23512400  0.51634400  0.02253600  1
  C  208  1  0.26159500  0.54573600  0.02770100  1
  C  213  1  0.99331100  0.51127700  0.48406600  1
  C  215  1  0.86318500  0.49425800  0.51157000  1
  C  216  1  0.97675200  0.48048000  0.51577200  1
  C  218  1  0.10840900  0.49742500  0.48805500  1
  C  220  1  0.23289900  0.49598600  0.47549800  1
  C  221  1  0.25567200  0.47163800  0.44590600  1
  C  226  1  0.97193700  0.74632800  0.29810100  1
  C  228  1  0.09031200  0.70075400  0.26789500  1
  C  229  1  0.99257200  0.69133300  0.24535200  1
  C  231  1  0.87384000  0.73729500  0.27539300  1
  C  233  1  0.76536000  0.75424400  0.27621600  1
  C  234  1  0.78323000  0.78067200  0.27429100  1
  C  239  1  0.96888600  0.54277400  0.24642400  1
  C  241  1  0.08876500  0.55759600  0.29171900  1
  C  242  1  0.99042900  0.54471800  0.30128200  1
  C  244  1  0.86975900  0.52946100  0.25562700  1
  C  246  1  0.76031600  0.51387000  0.23858100  1
  C  247  1  0.78082400  0.48290500  0.21745400  1
  C  252  1  0.96644100  0.69410800  0.44960800  1
  C  254  1  0.08767100  0.72488900  0.43535200  1
  C  255  1  0.98779500  0.74703700  0.44766500  1
  C  257  1  0.86590100  0.71637700  0.46242700  1
  C  259  1  0.75478700  0.71466300  0.47747800  1
  C  260  1  0.77304100  0.72357200  0.50828900  1
  C  265  1  0.97379200  0.24000200  0.69628400  1
  C  267  1  0.10534700  0.28296800  0.72812100  1
  C  268  1  0.00218600  0.29446000  0.74964800  1
  C  270  1  0.86986500  0.25088600  0.71784300  1
  C  272  1  0.75020400  0.23634500  0.71549100  1
  C  273  1  0.74631400  0.20901500  0.71609900  1
  C  278  1  0.97176300  0.44645900  0.75240400  1
  C  280  1  0.10373700  0.43573700  0.70960200  1
  C  281  1  0.99999600  0.44554200  0.69802400  1
  C  283  1  0.86712500  0.45686400  0.74143100  1
  C  285  1  0.74756300  0.46875500  0.75626200  1
  C  286  1  0.74728200  0.49991500  0.77799000  1
  C  291  1  0.97297600  0.29638400  0.54589300  1
  C  293  1  0.10372700  0.26459300  0.55722300  1
  C  294  1  0.00058600  0.24305600  0.54706800  1
  C  296  1  0.86904400  0.27482700  0.53512700  1
  C  298  1  0.74981400  0.27720500  0.52282700  1
  C  299  1  0.74673300  0.27644500  0.49480700  1
  H  20  1  0.77484000  0.77839500  0.44709900  1
  H  21  1  0.76954100  0.81710300  0.43582200  1
  H  22  1  0.19210700  0.81501600  0.42945000  1
  H  23  1  0.20000000  0.77664200  0.44132100  1
  H  24  1  0.75986400  0.81159500  0.38401900  1
  H  25  1  0.75843300  0.77195900  0.33447300  1
  H  26  1  0.79087300  0.87480500  0.45448800  1
  H  27  1  0.79986000  0.92750000  0.48125000  1
  H  28  1  0.17566200  0.92437700  0.44201300  1
  H  29  1  0.16884500  0.87187800  0.41676900  1
  H  30  1  0.18057300  0.81836200  0.38023900  1
  H  31  1  0.17984200  0.77996400  0.32995400  1
  H  51  1  0.77933300  0.66000100  0.21355900  1
  H  52  1  0.77251800  0.60997500  0.17491800  1
  H  53  1  0.19432400  0.60454300  0.17800500  1
  H  54  1  0.20372400  0.65479600  0.21635300  1
  H  55  1  0.75978800  0.56409700  0.18132600  1
  H  56  1  0.75674000  0.55432800  0.22099467  1
  H  57  1  0.79218700  0.57055500  0.11776300  1
  H  58  1  0.80109800  0.54457900  0.06506700  1
  H  59  1  0.17578700  0.50806600  0.06818800  1
  H  60  1  0.16908800  0.53535700  0.12068900  1
  H  61  1  0.17950500  0.55173100  0.17392600  1
  H  62  1  0.17697100  0.53997400  0.21239500  1
  H  82  1  0.77781500  0.54388000  0.33259700  1
  H  83  1  0.77152900  0.55512700  0.38257000  1
  H  84  1  0.19320500  0.56409600  0.38797900  1
  H  85  1  0.20212200  0.55224400  0.33775200  1
  H  86  1  0.75855900  0.60740900  0.42789800  1
  H  87  1  0.75500800  0.65681900  0.43748000  1
  H  88  1  0.79017200  0.53805900  0.42232500  1
  H  89  1  0.79887000  0.51133300  0.44829900  1
  H  90  1  0.17565100  0.55018800  0.48409300  1
  H  91  1  0.16897200  0.57544800  0.45683700  1
  H  92  1  0.17776100  0.61289800  0.44119200  1
  H  93  1  0.17450800  0.66310800  0.45289200  1
  H  113  1  0.79371300  0.20668700  0.54028900  1
  H  114  1  0.78637400  0.16769900  0.55105900  1
  H  115  1  0.19926500  0.17875800  0.57151900  1
  H  116  1  0.21049800  0.21710100  0.55998900  1
  H  117  1  0.76735800  0.18292000  0.60741500  1
  H  118  1  0.76685600  0.22123700  0.65757100  1
  H  119  1  0.77173100  0.11632700  0.56695000  1
  H  120  1  0.76933400  0.06369900  0.54077500  1
  H  121  1  0.18351400  0.06311700  0.52171100  1
  H  122  1  0.18424000  0.11580800  0.54841600  1
  H  123  1  0.17093100  0.16340800  0.61540500  1
  H  124  1  0.17003400  0.20097600  0.66628400  1
  H  144  1  0.79616600  0.32390000  0.78639800  1
  H  145  1  0.78869600  0.37366000  0.82530600  1
  H  146  1  0.20049500  0.38339900  0.81354700  1
  H  147  1  0.21185300  0.33353600  0.77524600  1
  H  148  1  0.76802300  0.41446000  0.80959700  1
  H  149  1  0.76617100  0.42614300  0.77118700  1
  H  150  1  0.77274400  0.44100500  0.87621900  1
  H  151  1  0.77012300  0.46752100  0.92884600  1
  H  152  1  0.18454100  0.44926800  0.92953800  1
  H  153  1  0.18549300  0.42323300  0.87685200  1
  H  154  1  0.17048700  0.44280200  0.82919200  1
  H  155  1  0.16817700  0.45599700  0.79154700  1
  H  175  1  0.79361400  0.45255200  0.66847800  1
  H  176  1  0.78634400  0.44173900  0.61872600  1
  H  177  1  0.19895700  0.42100400  0.60927600  1
  H  178  1  0.21005900  0.43252500  0.65913200  1
  H  179  1  0.76701600  0.38530400  0.57763100  1
  H  180  1  0.76616600  0.33513300  0.56581100  1
  H  181  1  0.77115800  0.42587200  0.55166200  1
  H  182  1  0.76866000  0.45202400  0.52517800  1
  H  183  1  0.18346500  0.47061200  0.54313400  1
  H  184  1  0.18426500  0.44395400  0.56917200  1
  H  185  1  0.17057900  0.37720100  0.55013100  1
  H  186  1  0.16946100  0.32632300  0.53687700  1
  H  193  1  0.77114200  0.01657000  0.49873600  1
  H  196  1  0.17946500  0.95190100  0.52214500  1
  H  197  1  0.27175500  0.98540900  0.54062500  1
  H  198  1  0.35394000  0.95195800  0.51569700  1
  H  206  1  0.77186700  0.47280200  0.97601800  1
  H  209  1  0.18016000  0.56079600  0.04042000  1
  H  210  1  0.27187600  0.54547200  0.00680400  1
  H  211  1  0.35469800  0.55428000  0.04025900  1
  H  219  1  0.77132700  0.49426400  0.52031800  1
  H  222  1  0.17329800  0.46977300  0.43122800  1
  H  223  1  0.26420900  0.45090500  0.44603800  1
  H  224  1  0.34859200  0.47516700  0.43693300  1
  H  232  1  0.16873000  0.68762500  0.26675600  1
  H  235  1  0.72407500  0.79853300  0.29153000  1
  H  236  1  0.74860600  0.77683400  0.25287000  1
  H  237  1  0.88845700  0.78771800  0.27705400  1
  H  245  1  0.16847400  0.56918400  0.30462300  1
  H  248  1  0.69433500  0.47414600  0.20265500  1
  H  249  1  0.79320000  0.47030000  0.22877100  1
  H  250  1  0.87002100  0.47975600  0.20395800  1
  H  258  1  0.16827200  0.72636900  0.42407000  1
  H  261  1  0.68515700  0.71730300  0.51646400  1
  H  262  1  0.78624200  0.74743600  0.52151100  1
  H  263  1  0.86098400  0.71278700  0.51128000  1
  H  271  1  0.19249000  0.29409800  0.73013800  1
  H  274  1  0.68596400  0.19289100  0.69763700  1
  H  275  1  0.70049700  0.21273600  0.73663200  1
  H  276  1  0.84669500  0.19971600  0.71439600  1
  H  284  1  0.19121500  0.42680100  0.69853900  1
  H  287  1  0.65467400  0.50572200  0.79096500  1
  H  288  1  0.75382400  0.51314700  0.76722000  1
  H  289  1  0.83196000  0.50550100  0.79320600  1
  H  297  1  0.19024400  0.26264100  0.56657400  1
  H  300  1  0.68548100  0.29470100  0.49691300  1
  H  301  1  0.70238600  0.25575100  0.47793200  1
  H  302  1  0.84724700  0.27841100  0.48744300  1
  N  1  1  0.97359900  0.83692700  0.41776700  1
  N  32  1  0.97448700  0.57154600  0.15563300  1
  N  63  1  0.97369400  0.57454900  0.42097000  1
  N  94  1  0.97869200  0.15221600  0.57579100  1
  N  125  1  0.98011300  0.41403800  0.84039700  1
  N  156  1  0.97849200  0.41684200  0.57848600  1
  N  188  1  0.87663400  0.97804800  0.48396900  1
  N  191  1  0.09404500  0.01106500  0.50927300  1
  N  201  1  0.87731000  0.49654600  0.01454400  1
  N  204  1  0.09483000  0.48880800  0.98154100  1
  N  214  1  0.87635300  0.50875500  0.49626800  1
  N  217  1  0.09325900  0.48291100  0.50342400  1
  N  227  1  0.07501500  0.72715100  0.29285900  1
  N  230  1  0.88943000  0.71049800  0.25063000  1
  N  240  1  0.07321200  0.55626000  0.26537400  1
  N  243  1  0.88607900  0.53128000  0.28233400  1
  N  253  1  0.07200200  0.69983900  0.43661200  1
  N  256  1  0.88223600  0.74127200  0.46062000  1
  N  266  1  0.08638300  0.25698000  0.70285800  1
  N  269  1  0.89013900  0.27722000  0.74287400  1
  N  279  1  0.08480700  0.43635200  0.73553500  1
  N  282  1  0.88749900  0.45572500  0.71515500  1
  N  292  1  0.08506300  0.28985700  0.55648800  1
  N  295  1  0.88893000  0.24980300  0.53646600  1
  O  199  1  0.32978200  0.97986300  0.48857400  1
  O  212  1  0.32955600  0.49900700  0.01294000  1
  O  225  1  0.32971300  0.50280600  0.49212200  1
  O  238  1  0.65351100  0.74288200  0.27082700  1
  O  251  1  0.65103000  0.52000500  0.25108900  1
  O  264  1  0.64649800  0.72146800  0.47136700  1
  O  277  1  0.64488600  0.25010000  0.71993100  1
  O  290  1  0.64452900  0.45954800  0.74158400  1
  O  303  1  0.64412100  0.27245300  0.53177500  1
