# generated using pymatgen
data_SrNiH10C14(NO5)2
_symmetry_space_group_name_H-M   'P 1'
_cell_length_a   8.50690000
_cell_length_b   11.64762000
_cell_length_c   11.64782000
_cell_angle_alpha   73.70590000
_cell_angle_beta   75.57355000
_cell_angle_gamma   75.51121000
_symmetry_Int_Tables_number   1
_chemical_formula_structural   SrNiH10C14(NO5)2
_chemical_formula_sum   'Sr2 Ni2 H20 C28 N4 O20'
_cell_volume   1052.46765293
_cell_formula_units_Z   2
loop_
 _symmetry_equiv_pos_site_id
 _symmetry_equiv_pos_as_xyz
  1  'x, y, z'
loop_
 _atom_site_type_symbol
 _atom_site_label
 _atom_site_symmetry_multiplicity
 _atom_site_fract_x
 _atom_site_fract_y
 _atom_site_fract_z
 _atom_site_occupancy
  Sr  Sr0  1  0.24982000  0.52758000  0.47306000  1
  Sr  Sr1  1  0.74970000  0.47516000  0.52520000  1
  Ni  Ni2  1  0.00314000  0.49928000  0.99984000  1
  Ni  Ni3  1  0.49713000  0.00086000  0.50083000  1
  H  H4  1  0.54448000  0.71969000  0.42913000  1
  H  H5  1  0.55624000  0.66525000  0.31489000  1
  H  H6  1  0.44571000  0.70032000  0.74396000  1
  H  H7  1  0.55642000  0.73009000  0.91744000  1
  H  H8  1  0.19318000  0.53809000  0.16929000  1
  H  H9  1  0.95640000  0.57070000  0.28313000  1
  H  H10  1  0.94283000  0.68511000  0.33802000  1
  H  H11  1  0.05360000  0.25614000  0.29982000  1
  H  H12  1  0.94268000  0.08246000  0.27124000  1
  H  H13  1  0.30767000  0.83122000  0.46285000  1
  H  H14  1  0.45276000  0.28498000  0.57183000  1
  H  H15  1  0.44283000  0.34059000  0.68463000  1
  H  H16  1  0.55585000  0.30221000  0.25497000  1
  H  H17  1  0.44479000  0.27329000  0.08076000  1
  H  H18  1  0.81231000  0.46138000  0.82982000  1
  H  H19  1  0.04726000  0.42879000  0.71490000  1
  H  H20  1  0.05614000  0.31555000  0.66035000  1
  H  H21  1  0.94490000  0.74499000  0.69823000  1
  H  H22  1  0.05556000  0.91892000  0.72739000  1
  H  H23  1  0.68779000  0.17025000  0.53912000  1
  C  C24  1  0.26018000  0.60980000  0.86817000  1
  C  C25  1  0.39190000  0.66983000  0.83957000  1
  C  C26  1  0.45279000  0.68447000  0.93465000  1
  C  C27  1  0.38305000  0.63470000  0.05488000  1
  C  C28  1  0.24791000  0.57818000  0.07660000  1
  C  C29  1  0.19053000  0.57705000  0.77920000  1
  C  C30  1  0.44986000  0.62992000  0.16589000  1
  C  C31  1  0.23997000  0.13240000  0.39020000  1
  C  C32  1  0.10788000  0.16060000  0.33051000  1
  C  C33  1  0.04682000  0.06530000  0.31647000  1
  C  C34  1  0.11654000  0.94512000  0.36685000  1
  C  C35  1  0.25261000  0.92379000  0.42246000  1
  C  C36  1  0.30932000  0.22152000  0.42295000  1
  C  C37  1  0.04873000  0.83381000  0.37390000  1
  C  C38  1  0.74352000  0.39056000  0.13095000  1
  C  C39  1  0.61057000  0.33180000  0.15938000  1
  C  C40  1  0.54968000  0.31748000  0.06417000  1
  C  C41  1  0.62046000  0.36664000  0.94411000  1
  C  C42  1  0.75692000  0.42178000  0.92251000  1
  C  C43  1  0.81319000  0.42224000  0.22049000  1
  C  C44  1  0.55275000  0.37251000  0.83331000  1
  C  C45  1  0.75650000  0.86909000  0.61015000  1
  C  C46  1  0.88973000  0.84058000  0.66880000  1
  C  C47  1  0.95056000  0.93578000  0.68315000  1
  C  C48  1  0.87935000  0.05588000  0.63409000  1
  C  C49  1  0.74302000  0.07749000  0.57876000  1
  C  C50  1  0.68673000  0.77980000  0.57831000  1
  C  C51  1  0.94566000  0.16709000  0.62860000  1
  N  N52  1  0.18634000  0.56798000  0.98548000  1
  N  N53  1  0.31424000  0.01512000  0.43204000  1
  N  N54  1  0.81869000  0.43148000  0.01379000  1
  N  N55  1  0.68132000  0.98630000  0.56903000  1
  O  O56  1  0.06401000  0.52147000  0.83009000  1
  O  O57  1  0.24661000  0.59999000  0.66814000  1
  O  O58  1  0.55899000  0.68995000  0.15545000  1
  O  O59  1  0.38803000  0.55934000  0.26254000  1
  O  O60  1  0.53964000  0.64576000  0.40641000  1
  O  O61  1  0.43583000  0.17059000  0.47870000  1
  O  O62  1  0.25302000  0.33264000  0.39997000  1
  O  O63  1  0.93844000  0.84341000  0.31496000  1
  O  O64  1  0.11085000  0.73790000  0.44538000  1
  O  O65  1  0.96061000  0.59341000  0.35716000  1
  O  O66  1  0.94274000  0.47483000  0.17049000  1
  O  O67  1  0.75439000  0.40062000  0.33119000  1
  O  O68  1  0.43900000  0.31637000  0.84434000  1
  O  O69  1  0.61847000  0.44050000  0.73642000  1
  O  O70  1  0.45968000  0.35911000  0.59311000  1
  O  O71  1  0.55740000  0.83027000  0.52533000  1
  O  O72  1  0.74527000  0.66899000  0.59993000  1
  O  O73  1  0.05691000  0.15706000  0.68665000  1
  O  O74  1  0.88136000  0.26353000  0.55911000  1
  O  O75  1  0.04031000  0.40716000  0.64097000  1
