# generated using pymatgen
data_Mg3Si2H32(C7O2)8
_symmetry_space_group_name_H-M   'P 1'
_cell_length_a   12.72364000
_cell_length_b   14.65881000
_cell_length_c   23.50907000
_cell_angle_alpha   99.73192000
_cell_angle_beta   92.13695000
_cell_angle_gamma   96.98908000
_symmetry_Int_Tables_number   1
_chemical_formula_structural   Mg3Si2H32(C7O2)8
_chemical_formula_sum   'Mg6 Si4 H64 C112 O32'
_cell_volume   4282.03707203
_cell_formula_units_Z   2
loop_
 _symmetry_equiv_pos_site_id
 _symmetry_equiv_pos_as_xyz
  1  'x, y, z'
loop_
 _atom_site_type_symbol
 _atom_site_label
 _atom_site_symmetry_multiplicity
 _atom_site_fract_x
 _atom_site_fract_y
 _atom_site_fract_z
 _atom_site_occupancy
  Mg  Mg0  1  0.47624000  0.70309000  0.60529000  1
  Mg  Mg1  1  0.93167000  0.32601000  0.06482000  1
  Mg  Mg2  1  0.52377000  0.29691000  0.39471000  1
  Mg  Mg3  1  0.06833000  0.67399000  0.93518000  1
  Mg  Mg4  1  0.50000000  0.50000000  0.50000000  1
  Mg  Mg5  1  0.00000000  0.50000000  0.00000000  1
  Si  Si6  1  0.96899000  0.77477000  0.36627000  1
  Si  Si7  1  0.60405000  0.75260000  0.18933000  1
  Si  Si8  1  0.03101000  0.22524000  0.63373000  1
  Si  Si9  1  0.39595000  0.24740000  0.81067000  1
  H  H10  1  0.87657000  0.61316000  0.41556000  1
  H  H11  1  0.73401000  0.58825000  0.48256000  1
  H  H12  1  0.66094000  0.86699000  0.48301000  1
  H  H13  1  0.80200000  0.89260000  0.41416000  1
  H  H14  1  0.82488000  0.60345000  0.31237000  1
  H  H15  1  0.83199000  0.48882000  0.22239000  1
  H  H16  1  0.06951000  0.67735000  0.16190000  1
  H  H17  1  0.07435000  0.78813000  0.25507000  1
  H  H18  1  0.15386000  0.66958000  0.33219000  1
  H  H19  1  0.29076000  0.60923000  0.38948000  1
  H  H20  1  0.16252000  0.72952000  0.54750000  1
  H  H21  1  0.02106000  0.78426000  0.49125000  1
  H  H22  1  0.92980000  0.89834000  0.27966000  1
  H  H23  1  0.97214000  0.06896000  0.28105000  1
  H  H24  1  0.13080000  0.10287000  0.44933000  1
  H  H25  1  0.08657000  0.93303000  0.44956000  1
  H  H26  1  0.54242000  0.77667000  0.31077000  1
  H  H27  1  0.51520000  0.66889000  0.38174000  1
  H  H28  1  0.60723000  0.44566000  0.25927000  1
  H  H29  1  0.64270000  0.55353000  0.18886000  1
  H  H30  1  0.65125000  0.59493000  0.10308000  1
  H  H31  1  0.78276000  0.57513000  0.02874000  1
  H  H32  1  0.92469000  0.85949000  0.08538000  1
  H  H33  1  0.79868000  0.87725000  0.16411000  1
  H  H34  1  0.39495000  0.62790000  0.18690000  1
  H  H35  1  0.24248000  0.58317000  0.11298000  1
  H  H36  1  0.39052000  0.77137000  0.00967000  1
  H  H37  1  0.54726000  0.81126000  0.08035000  1
  H  H38  1  0.74772000  0.85518000  0.28506000  1
  H  H39  1  0.75581000  0.01118000  0.34791000  1
  H  H40  1  0.49048000  0.07181000  0.24926000  1
  H  H41  1  0.48353000  0.91687000  0.18419000  1
  H  H42  1  0.12343000  0.38684000  0.58444000  1
  H  H43  1  0.26599000  0.41175000  0.51744000  1
  H  H44  1  0.33906000  0.13301000  0.51699000  1
  H  H45  1  0.19800000  0.10741000  0.58584000  1
  H  H46  1  0.17512000  0.39655000  0.68763000  1
  H  H47  1  0.16801000  0.51119000  0.77761000  1
  H  H48  1  0.93049000  0.32265000  0.83810000  1
  H  H49  1  0.92565000  0.21188000  0.74493000  1
  H  H50  1  0.84614000  0.33043000  0.66781000  1
  H  H51  1  0.70924000  0.39077000  0.61052000  1
  H  H52  1  0.83748000  0.27048000  0.45250000  1
  H  H53  1  0.97894000  0.21574000  0.50875000  1
  H  H54  1  0.07020000  0.10166000  0.72034000  1
  H  H55  1  0.02786000  0.93104000  0.71895000  1
  H  H56  1  0.86920000  0.89714000  0.55067000  1
  H  H57  1  0.91343000  0.06697000  0.55044000  1
  H  H58  1  0.45758000  0.22333000  0.68923000  1
  H  H59  1  0.48480000  0.33112000  0.61826000  1
  H  H60  1  0.39278000  0.55434000  0.74072000  1
  H  H61  1  0.35730000  0.44647000  0.81113000  1
  H  H62  1  0.34875000  0.40508000  0.89692000  1
  H  H63  1  0.21724000  0.42488000  0.97126000  1
  H  H64  1  0.07531000  0.14051000  0.91462000  1
  H  H65  1  0.20132000  0.12275000  0.83588000  1
  H  H66  1  0.60505000  0.37211000  0.81310000  1
  H  H67  1  0.75752000  0.41684000  0.88702000  1
  H  H68  1  0.60948000  0.22863000  0.99033000  1
  H  H69  1  0.45274000  0.18874000  0.91965000  1
  H  H70  1  0.25228000  0.14483000  0.71494000  1
  H  H71  1  0.24419000  0.98883000  0.65209000  1
  H  H72  1  0.50952000  0.92820000  0.75073000  1
  H  H73  1  0.51647000  0.08314000  0.81580000  1
  C  C74  1  0.84931000  0.75436000  0.40927000  1
  C  C75  1  0.82791000  0.66839000  0.42869000  1
  C  C76  1  0.74844000  0.65387000  0.46663000  1
  C  C77  1  0.68902000  0.72655000  0.48647000  1
  C  C78  1  0.70777000  0.81192000  0.46670000  1
  C  C79  1  0.78671000  0.82543000  0.42828000  1
  C  C80  1  0.60888000  0.71579000  0.53001000  1
  C  C81  1  0.95179000  0.70316000  0.29165000  1
  C  C82  1  0.88139000  0.61929000  0.28066000  1
  C  C83  1  0.88354000  0.55506000  0.22977000  1
  C  C84  1  0.95237000  0.57578000  0.18727000  1
  C  C85  1  0.01830000  0.66158000  0.19595000  1
  C  C86  1  0.01961000  0.72357000  0.24809000  1
  C  C87  1  0.95599000  0.50792000  0.13257000  1
  C  C88  1  0.07794000  0.73228000  0.40742000  1
  C  C89  1  0.15505000  0.68265000  0.37922000  1
  C  C90  1  0.23177000  0.64865000  0.41081000  1
  C  C91  1  0.23338000  0.66470000  0.47154000  1
  C  C92  1  0.15869000  0.71593000  0.50048000  1
  C  C93  1  0.08116000  0.74798000  0.46852000  1
  C  C94  1  0.31542000  0.62898000  0.50525000  1
  C  C95  1  0.00375000  0.90277000  0.36481000  1
  C  C96  1  0.97273000  0.94253000  0.31732000  1
  C  C97  1  0.99663000  0.03809000  0.31758000  1
  C  C98  1  0.05355000  0.09577000  0.36528000  1
  C  C99  1  0.08560000  0.05747000  0.41283000  1
  C  C100  1  0.06049000  0.96204000  0.41254000  1
  C  C101  1  0.08052000  0.19694000  0.36451000  1
  C  C102  1  0.59419000  0.67312000  0.24419000  1
  C  C103  1  0.55784000  0.70466000  0.29908000  1
  C  C104  1  0.54171000  0.64485000  0.33900000  1
  C  C105  1  0.55920000  0.55133000  0.32432000  1
  C  C106  1  0.59448000  0.51852000  0.26976000  1
  C  C107  1  0.61296000  0.57927000  0.23055000  1
  C  C108  1  0.54142000  0.48781000  0.36739000  1
  C  C109  1  0.71634000  0.73714000  0.14008000  1
  C  C110  1  0.71325000  0.65226000  0.10118000  1
  C  C111  1  0.78558000  0.64102000  0.05843000  1
  C  C112  1  0.86099000  0.71655000  0.05223000  1
  C  C113  1  0.86586000  0.80158000  0.09062000  1
  C  C114  1  0.79502000  0.81097000  0.13464000  1
  C  C115  1  0.93336000  0.70479000  0.00451000  1
  C  C116  1  0.48183000  0.72311000  0.13909000  1
  C  C117  1  0.39478000  0.65913000  0.14802000  1
  C  C118  1  0.30930000  0.63384000  0.10701000  1
  C  C119  1  0.30846000  0.67443000  0.05708000  1
  C  C120  1  0.39341000  0.74021000  0.04841000  1
  C  C121  1  0.47977000  0.76295000  0.08857000  1
  C  C122  1  0.21733000  0.64901000  0.01334000  1
  C  C123  1  0.61521000  0.87492000  0.22995000  1
  C  C124  1  0.69256000  0.90301000  0.27610000  1
  C  C125  1  0.69680000  0.98948000  0.31193000  1
  C  C126  1  0.62237000  0.04924000  0.30242000  1
  C  C127  1  0.54666000  0.02370000  0.25587000  1
  C  C128  1  0.54354000  0.93713000  0.21983000  1
  C  C129  1  0.61935000  0.13777000  0.34414000  1
  C  C130  1  0.15069000  0.24565000  0.59073000  1
  C  C131  1  0.17209000  0.33161000  0.57131000  1
  C  C132  1  0.25156000  0.34613000  0.53337000  1
  C  C133  1  0.31098000  0.27345000  0.51353000  1
  C  C134  1  0.29223000  0.18809000  0.53330000  1
  C  C135  1  0.21329000  0.17457000  0.57172000  1
  C  C136  1  0.39112000  0.28422000  0.46999000  1
  C  C137  1  0.04821000  0.29685000  0.70835000  1
  C  C138  1  0.11861000  0.38072000  0.71934000  1
  C  C139  1  0.11646000  0.44494000  0.77023000  1
  C  C140  1  0.04763000  0.42423000  0.81273000  1
  C  C141  1  0.98170000  0.33843000  0.80405000  1
  C  C142  1  0.98039000  0.27644000  0.75191000  1
  C  C143  1  0.04401000  0.49208000  0.86743000  1
  C  C144  1  0.92206000  0.26773000  0.59258000  1
  C  C145  1  0.84495000  0.31735000  0.62078000  1
  C  C146  1  0.76823000  0.35136000  0.58919000  1
  C  C147  1  0.76663000  0.33530000  0.52846000  1
  C  C148  1  0.84131000  0.28407000  0.49952000  1
  C  C149  1  0.91884000  0.25202000  0.53148000  1
  C  C150  1  0.68458000  0.37103000  0.49474000  1
  C  C151  1  0.99625000  0.09723000  0.63519000  1
  C  C152  1  0.02727000  0.05748000  0.68268000  1
  C  C153  1  0.00337000  0.96191000  0.68242000  1
  C  C154  1  0.94645000  0.90423000  0.63472000  1
  C  C155  1  0.91440000  0.94253000  0.58716000  1
  C  C156  1  0.93952000  0.03797000  0.58746000  1
  C  C157  1  0.91948000  0.80306000  0.63549000  1
  C  C158  1  0.40581000  0.32689000  0.75581000  1
  C  C159  1  0.44216000  0.29534000  0.70092000  1
  C  C160  1  0.45829000  0.35516000  0.66100000  1
  C  C161  1  0.44080000  0.44867000  0.67568000  1
  C  C162  1  0.40552000  0.48149000  0.73023000  1
  C  C163  1  0.38704000  0.42073000  0.76945000  1
  C  C164  1  0.45858000  0.51220000  0.63261000  1
  C  C165  1  0.28366000  0.26286000  0.85991000  1
  C  C166  1  0.28675000  0.34774000  0.89882000  1
  C  C167  1  0.21442000  0.35899000  0.94157000  1
  C  C168  1  0.13901000  0.28345000  0.94777000  1
  C  C169  1  0.13414000  0.19843000  0.90938000  1
  C  C170  1  0.20498000  0.18904000  0.86536000  1
  C  C171  1  0.06664000  0.29521000  0.99549000  1
  C  C172  1  0.51817000  0.27689000  0.86090000  1
  C  C173  1  0.60522000  0.34088000  0.85198000  1
  C  C174  1  0.69070000  0.36616000  0.89299000  1
  C  C175  1  0.69154000  0.32557000  0.94292000  1
  C  C176  1  0.60659000  0.25980000  0.95159000  1
  C  C177  1  0.52023000  0.23705000  0.91143000  1
  C  C178  1  0.78267000  0.35100000  0.98666000  1
  C  C179  1  0.38479000  0.12508000  0.77004000  1
  C  C180  1  0.30744000  0.09700000  0.72390000  1
  C  C181  1  0.30320000  0.01053000  0.68806000  1
  C  C182  1  0.37763000  0.95076000  0.69758000  1
  C  C183  1  0.45334000  0.97630000  0.74413000  1
  C  C184  1  0.45646000  0.06287000  0.78017000  1
  C  C185  1  0.38065000  0.86224000  0.65586000  1
  O  O186  1  0.57195000  0.63384000  0.53991000  1
  O  O187  1  0.57684000  0.78723000  0.55903000  1
  O  O188  1  0.93064000  0.42042000  0.13447000  1
  O  O189  1  0.98381000  0.54040000  0.08807000  1
  O  O190  1  0.35981000  0.56012000  0.48253000  1
  O  O191  1  0.33858000  0.67077000  0.55753000  1
  O  O192  1  0.05845000  0.23182000  0.32018000  1
  O  O193  1  0.12661000  0.25452000  0.40766000  1
  O  O194  1  0.54049000  0.52601000  0.42001000  1
  O  O195  1  0.52930000  0.39986000  0.34851000  1
  O  O196  1  0.94670000  0.62036000  0.98010000  1
  O  O197  1  0.98368000  0.77292000  0.98558000  1
  O  O198  1  0.15284000  0.57590000  0.01414000  1
  O  O199  1  0.20778000  0.70422000  0.97671000  1
  O  O200  1  0.68227000  0.15449000  0.38871000  1
  O  O201  1  0.55127000  0.19168000  0.33380000  1
  O  O202  1  0.42805000  0.36616000  0.46009000  1
  O  O203  1  0.42316000  0.21278000  0.44096000  1
  O  O204  1  0.06936000  0.57959000  0.86553000  1
  O  O205  1  0.01619000  0.45960000  0.91193000  1
  O  O206  1  0.64019000  0.43989000  0.51747000  1
  O  O207  1  0.66142000  0.32923000  0.44246000  1
  O  O208  1  0.94155000  0.76819000  0.67981000  1
  O  O209  1  0.87339000  0.74548000  0.59234000  1
  O  O210  1  0.45951000  0.47400000  0.57999000  1
  O  O211  1  0.47070000  0.60015000  0.65148000  1
  O  O212  1  0.05330000  0.37964000  0.01990000  1
  O  O213  1  0.01632000  0.22708000  0.01442000  1
  O  O214  1  0.84716000  0.42410000  0.98586000  1
  O  O215  1  0.79222000  0.29578000  0.02329000  1
  O  O216  1  0.31773000  0.84552000  0.61129000  1
  O  O217  1  0.44873000  0.80832000  0.66620000  1
