# generated using pymatgen
data_H44C51N4
_symmetry_space_group_name_H-M   'P 1'
_cell_length_a   35.23840000
_cell_length_b   35.23840000
_cell_length_c   35.23840000
_cell_angle_alpha   90.00000000
_cell_angle_beta   90.00000000
_cell_angle_gamma   90.00000000
_symmetry_Int_Tables_number   1
_chemical_formula_structural   H44C51N4
_chemical_formula_sum   'H264 C306 N24'
_cell_volume   43757.10117816
_cell_formula_units_Z   6
loop_
 _symmetry_equiv_pos_site_id
 _symmetry_equiv_pos_as_xyz
  1  'x, y, z'
loop_
 _atom_site_type_symbol
 _atom_site_label
 _atom_site_symmetry_multiplicity
 _atom_site_fract_x
 _atom_site_fract_y
 _atom_site_fract_z
 _atom_site_occupancy
  H  25  1  0.09429200  0.63904400  0.50771300  1
  H  26  1  0.12389400  0.57878600  0.50789400  1
  H  27  1  0.12398300  0.44160600  0.51275000  1
  H  28  1  0.09441200  0.38131700  0.51374900  1
  H  29  1  0.98699600  0.43339900  0.50989200  1
  H  30  1  0.98691400  0.58684800  0.51116000  1
  H  31  1  0.03403800  0.51051300  0.58686200  1
  H  32  1  0.92659900  0.50660600  0.63889300  1
  H  33  1  0.89705700  0.50746300  0.57858400  1
  H  34  1  0.03421600  0.50923900  0.43342200  1
  H  35  1  0.89722500  0.51230400  0.44140100  1
  H  36  1  0.92686600  0.51261600  0.38116300  1
  H  39  1  0.11305400  0.50960500  0.48493100  1
  H  40  1  0.11315100  0.51077700  0.53525900  1
  H  42  1  0.90798300  0.48487700  0.50941800  1
  H  43  1  0.90796600  0.53520200  0.51058200  1
  H  72  1  0.51749200  0.09128000  0.63948300  1
  H  73  1  0.52156100  0.12221700  0.57981800  1
  H  74  1  0.51882800  0.12487000  0.44229800  1
  H  75  1  0.51618300  0.09604300  0.38159200  1
  H  76  1  0.50966500  0.98817400  0.43245400  1
  H  77  1  0.50636700  0.98584100  0.58469100  1
  H  78  1  0.58886500  0.03284900  0.50959100  1
  H  79  1  0.63948100  0.92486500  0.50419100  1
  H  80  1  0.57878000  0.89607800  0.50468700  1
  H  81  1  0.43526900  0.03505700  0.50836200  1
  H  82  1  0.44172200  0.89793100  0.50929900  1
  H  83  1  0.38184200  0.92818200  0.50997700  1
  H  86  1  0.49480900  0.11523600  0.51125700  1
  H  87  1  0.54493000  0.11054400  0.51042600  1
  H  89  1  0.50981300  0.90825000  0.48220300  1
  H  90  1  0.51086500  0.90751500  0.53252900  1
  H  119  1  0.64019600  0.51707700  0.09112600  1
  H  120  1  0.58052800  0.52111600  0.12207700  1
  H  121  1  0.44299900  0.51842000  0.12473400  1
  H  122  1  0.38229300  0.51586000  0.09590000  1
  H  123  1  0.43315500  0.50935300  0.98803200  1
  H  124  1  0.58538300  0.50603300  0.98568200  1
  H  125  1  0.51040000  0.58846800  0.03269100  1
  H  126  1  0.50489700  0.63906100  0.92470300  1
  H  127  1  0.50528100  0.57835100  0.89592800  1
  H  128  1  0.50914600  0.43487700  0.03494100  1
  H  129  1  0.50986600  0.44129100  0.89781200  1
  H  130  1  0.51064100  0.38142200  0.92807700  1
  H  133  1  0.51195200  0.49434900  0.11508300  1
  H  134  1  0.51114100  0.54447400  0.11043100  1
  H  136  1  0.48274800  0.50939000  0.90817000  1
  H  137  1  0.53307100  0.51043100  0.90732400  1
  H  166  1  0.59497200  0.13896800  0.00748200  1
  H  167  1  0.62442300  0.07865600  0.00773700  1
  H  168  1  0.62429800  0.94161900  0.01457000  1
  H  169  1  0.59469400  0.88137000  0.01550100  1
  H  170  1  0.48735700  0.93346100  0.00962500  1
  H  171  1  0.48749600  0.08706100  0.01225900  1
  H  172  1  0.53324700  0.00698800  0.08707100  1
  H  173  1  0.42514900  0.00861200  0.13739700  1
  H  174  1  0.39640200  0.01134000  0.07709800  1
  H  175  1  0.53584700  0.01230900  0.93474900  1
  H  176  1  0.39868100  0.00936400  0.93978300  1
  H  177  1  0.42975500  0.01032800  0.88014100  1
  H  180  1  0.61350600  0.00937200  0.98571000  1
  H  181  1  0.61352300  0.01091800  0.03602800  1
  H  183  1  0.40799200  0.98562800  0.00909400  1
  H  184  1  0.40845700  0.03597200  0.00826800  1
  H  213  1  0.00778600  0.59516500  0.13824100  1
  H  214  1  0.00820000  0.62457400  0.07791100  1
  H  215  1  0.01535000  0.62437500  0.94091000  1
  H  216  1  0.01647800  0.59475700  0.88067700  1
  H  217  1  0.01050800  0.48743100  0.93278000  1
  H  218  1  0.01272000  0.48765500  0.08641500  1
  H  219  1  0.08774900  0.53334400  0.00647200  1
  H  220  1  0.13805700  0.42524000  0.00818600  1
  H  221  1  0.07775100  0.39650200  0.01082000  1
  H  222  1  0.93539900  0.53593500  0.01163200  1
  H  223  1  0.94046700  0.39877200  0.00869700  1
  H  224  1  0.88081900  0.42982900  0.00970400  1
  H  227  1  0.98633200  0.61359700  0.00859500  1
  H  228  1  0.03664700  0.61364500  0.01024600  1
  H  230  1  0.00979800  0.40810500  0.98497800  1
  H  231  1  0.00890100  0.40855100  0.03532400  1
  H  260  1  0.13939300  0.00632400  0.59376100  1
  H  261  1  0.07909300  0.00618500  0.62323700  1
  H  262  1  0.94206200  0.01363500  0.62322800  1
  H  263  1  0.88181300  0.01497300  0.59363600  1
  H  264  1  0.93389200  0.00995900  0.48624700  1
  H  265  1  0.08743600  0.01272000  0.48639200  1
  H  266  1  0.01089700  0.08737000  0.53349400  1
  H  267  1  0.00558900  0.13947700  0.42613100  1
  H  268  1  0.00727500  0.07926100  0.39651000  1
  H  269  1  0.00870200  0.93379300  0.53322400  1
  H  270  1  0.01521500  0.94226400  0.39638500  1
  H  271  1  0.01517300  0.88193700  0.42581300  1
  H  274  1  0.00969600  0.98458400  0.61211600  1
  H  275  1  0.01146200  0.03488900  0.61269200  1
  H  277  1  0.98637400  0.00979200  0.40696500  1
  H  278  1  0.03667300  0.01173700  0.40760300  1
  H  290  1  0.96174800  0.42768100  0.28821400  1
  H  291  1  0.95237200  0.46431100  0.32050500  1
  H  292  1  0.99431700  0.43655700  0.32406100  1
  H  294  1  0.96156300  0.46046000  0.19061300  1
  H  295  1  0.93744800  0.45813000  0.23353700  1
  H  296  1  0.97429100  0.42504400  0.22328500  1
  H  298  1  0.05332400  0.56917400  0.32843100  1
  H  299  1  0.05335600  0.59273100  0.28516900  1
  H  300  1  0.09085500  0.56100100  0.29666200  1
  H  302  1  0.07339000  0.54774300  0.18765100  1
  H  303  1  0.09717700  0.55327900  0.23022300  1
  H  304  1  0.05978600  0.58483000  0.21799000  1
  H  306  1  0.02874100  0.47577600  0.16766300  1
  H  308  1  0.04829500  0.50074000  0.35174700  1
  H  316  1  0.07272500  0.43017200  0.73293000  1
  H  317  1  0.08401800  0.46822400  0.70301600  1
  H  318  1  0.04276800  0.44040500  0.69508500  1
  H  320  1  0.05923000  0.45437300  0.83191800  1
  H  321  1  0.08906100  0.45528100  0.79266300  1
  H  322  1  0.05044800  0.42268000  0.79463800  1
  H  324  1  0.98589800  0.57440100  0.69093600  1
  H  325  1  0.98157000  0.59561900  0.73510300  1
  H  326  1  0.94529100  0.56493100  0.71818400  1
  H  328  1  0.95175300  0.54652800  0.82780600  1
  H  329  1  0.93217200  0.55432400  0.78342600  1
  H  330  1  0.96847400  0.58481300  0.80064500  1
  H  332  1  0.99433500  0.47606000  0.85069600  1
  H  334  1  0.04770000  0.52030100  0.66837800  1
  H  342  1  0.28969800  0.96303300  0.42604000  1
  H  343  1  0.32203500  0.95358600  0.46261100  1
  H  344  1  0.32533500  0.99576200  0.43517000  1
  H  346  1  0.19211800  0.96183300  0.45888500  1
  H  347  1  0.23522700  0.93806900  0.45636000  1
  H  348  1  0.22466200  0.97504900  0.42352900  1
  H  350  1  0.32920900  0.05366400  0.56832500  1
  H  351  1  0.28591200  0.05327900  0.59180800  1
  H  352  1  0.29726100  0.09110700  0.56041600  1
  H  354  1  0.18834200  0.07308100  0.54687100  1
  H  355  1  0.23076400  0.09706700  0.55269500  1
  H  356  1  0.21869800  0.05932800  0.58389400  1
  H  358  1  0.16869400  0.02881400  0.47455800  1
  H  360  1  0.35255800  0.04966400  0.49991400  1
  H  368  1  0.73390900  0.07171900  0.42935800  1
  H  369  1  0.70393000  0.08255900  0.46748700  1
  H  370  1  0.69621400  0.04148700  0.43934700  1
  H  372  1  0.83296800  0.05826700  0.45329200  1
  H  373  1  0.79365000  0.08801300  0.45446400  1
  H  374  1  0.79564500  0.04960400  0.42162500  1
  H  376  1  0.69225000  0.98361300  0.57291100  1
  H  377  1  0.73642000  0.97941000  0.59416400  1
  H  378  1  0.71974500  0.94323400  0.56321400  1
  H  380  1  0.82931000  0.95033400  0.54492500  1
  H  381  1  0.78501800  0.93048900  0.55253900  1
  H  382  1  0.80203000  0.96666300  0.58329500  1
  H  384  1  0.85204700  0.99336400  0.47481100  1
  H  386  1  0.66953300  0.04572400  0.51952400  1
  H  394  1  0.42701700  0.28915000  0.96290300  1
  H  395  1  0.46354500  0.32153200  0.95344200  1
  H  396  1  0.43608900  0.32482100  0.99560600  1
  H  398  1  0.46010800  0.19164900  0.96162600  1
  H  399  1  0.45749800  0.23477500  0.93790500  1
  H  400  1  0.42464100  0.22408600  0.97482700  1
  H  402  1  0.56921600  0.32886000  0.05357400  1
  H  403  1  0.59269400  0.28555700  0.05335600  1
  H  404  1  0.56121400  0.29700200  0.09108100  1
  H  406  1  0.54770300  0.18803800  0.07322500  1
  H  407  1  0.55354600  0.23050900  0.09710600  1
  H  408  1  0.58479000  0.21831300  0.05944500  1
  H  410  1  0.47559700  0.16824800  0.02862800  1
  H  412  1  0.50078500  0.35213800  0.04957100  1
  H  420  1  0.43022900  0.73356800  0.07142300  1
  H  421  1  0.46830400  0.70354100  0.08232000  1
  H  422  1  0.44022400  0.69586800  0.04119800  1
  H  424  1  0.45427900  0.83260200  0.05800100  1
  H  425  1  0.45535800  0.79328400  0.08775200  1
  H  426  1  0.42259500  0.79530800  0.04928000  1
  H  428  1  0.57385100  0.69172500  0.98350800  1
  H  429  1  0.59520500  0.73585500  0.97943300  1
  H  430  1  0.56431000  0.71930800  0.94315700  1
  H  432  1  0.54622700  0.82889000  0.95034600  1
  H  433  1  0.55375000  0.78460300  0.93044400  1
  H  434  1  0.58448400  0.80147700  0.96670300  1
  H  436  1  0.47594900  0.85164100  0.99313100  1
  H  438  1  0.52036100  0.66908700  0.04557000  1
  H  446  1  0.45492600  0.94043600  0.71474200  1
  H  447  1  0.48907700  0.95265300  0.68151700  1
  H  448  1  0.44864600  0.98227700  0.68753000  1
  H  450  1  0.42927300  0.98971200  0.80445700  1
  H  451  1  0.44227800  0.94313200  0.79016800  1
  H  452  1  0.42032500  0.97533500  0.75829100  1
  H  454  1  0.55999600  0.07805400  0.71642200  1
  H  455  1  0.59788100  0.04650500  0.72716300  1
  H  456  1  0.57907200  0.07787400  0.76171100  1
  H  458  1  0.57252500  0.00396900  0.83630800  1
  H  459  1  0.56117700  0.05295100  0.83228100  1
  H  460  1  0.59687900  0.03173700  0.80382700  1
  H  462  1  0.48412500  0.96650100  0.84330300  1
  H  464  1  0.55755600  0.02313000  0.67403100  1
  H  472  1  0.40917500  0.01307800  0.30263500  1
  H  473  1  0.44070900  0.03294300  0.33488100  1
  H  474  1  0.43653700  0.98290900  0.33077200  1
  H  476  1  0.42236000  0.01567000  0.20159500  1
  H  477  1  0.41097400  0.04081000  0.24269700  1
  H  478  1  0.40906200  0.99023700  0.24142000  1
  H  480  1  0.58029500  0.99350300  0.32319500  1
  H  481  1  0.59586900  0.02410500  0.28749600  1
  H  482  1  0.59184800  0.97455500  0.27898500  1
  H  484  1  0.56249100  0.01986200  0.18268700  1
  H  485  1  0.58421100  0.98733400  0.21306300  1
  H  486  1  0.58679700  0.03686900  0.22218800  1
  H  488  1  0.47665300  0.04988600  0.17947400  1
  H  490  1  0.51467900  0.97328900  0.35268300  1
  H  498  1  0.94829100  0.28730000  0.59050000  1
  H  499  1  0.93697400  0.31712200  0.55238000  1
  H  500  1  0.97818500  0.32518500  0.58022100  1
  H  502  1  0.96184700  0.18829500  0.56637600  1
  H  503  1  0.93200800  0.22754200  0.56539400  1
  H  504  1  0.97055400  0.22559300  0.59807100  1
  H  506  1  0.03512700  0.32912900  0.44623100  1
  H  507  1  0.03971100  0.28491000  0.42517800  1
  H  508  1  0.07583800  0.30209600  0.45590000  1
  H  510  1  0.06970600  0.19248400  0.47464100  1
  H  511  1  0.08911200  0.23690500  0.46666600  1
  H  512  1  0.05292900  0.21940200  0.43620000  1
  H  514  1  0.02679500  0.16956400  0.54495300  1
  H  516  1  0.97330600  0.35175200  0.50033700  1
  H  524  1  0.05936100  0.73174900  0.59315000  1
  H  525  1  0.06871100  0.69949700  0.55648300  1
  H  526  1  0.02671000  0.69600100  0.58416000  1
  H  528  1  0.05969500  0.82943800  0.56067500  1
  H  529  1  0.08377300  0.78648800  0.56292800  1
  H  530  1  0.04683700  0.79665800  0.59593700  1
  H  532  1  0.96780100  0.69193700  0.45151500  1
  H  533  1  0.96807900  0.73518600  0.42793300  1
  H  534  1  0.93043600  0.72392000  0.45957200  1
  H  536  1  0.94836500  0.83282900  0.47283600  1
  H  537  1  0.92434000  0.79037500  0.46736700  1
  H  538  1  0.96183300  0.80234200  0.43583400  1
  H  540  1  0.99258400  0.85257500  0.54497600  1
  H  542  1  0.97289500  0.66849200  0.51987800  1
  H  550  1  0.30318000  0.40905600  0.01291000  1
  H  551  1  0.33544300  0.44053600  0.03283100  1
  H  552  1  0.33139400  0.43638100  0.98279000  1
  H  554  1  0.20216500  0.42239100  0.01566800  1
  H  555  1  0.24330200  0.41100300  0.04073900  1
  H  556  1  0.24192800  0.40900500  0.99017400  1
  H  558  1  0.32402100  0.58013300  0.99328700  1
  H  559  1  0.28829900  0.59579000  0.02382100  1
  H  560  1  0.27985600  0.59173400  0.97426300  1
  H  562  1  0.18344800  0.56257000  0.01945400  1
  H  563  1  0.21390800  0.58420300  0.98694500  1
  H  564  1  0.22296100  0.58683900  0.03648900  1
  H  566  1  0.18009500  0.47676600  0.04957900  1
  H  568  1  0.35341500  0.51450600  0.97313600  1
  H  576  1  0.71537800  0.45470200  0.94018100  1
  H  577  1  0.68210200  0.48878700  0.95244600  1
  H  578  1  0.68825400  0.44838000  0.98207500  1
  H  580  1  0.80521400  0.42924100  0.98933700  1
  H  581  1  0.79082100  0.44217300  0.94276600  1
  H  582  1  0.75904000  0.42019500  0.97504900  1
  H  584  1  0.71713200  0.55986000  0.07773700  1
  H  585  1  0.72769700  0.59774200  0.04612300  1
  H  586  1  0.76236900  0.57905800  0.07742700  1
  H  588  1  0.83685000  0.57255400  0.00340400  1
  H  589  1  0.83291400  0.56124500  0.05240400  1
  H  590  1  0.80436600  0.59688200  0.03119700  1
  H  592  1  0.84390800  0.48417600  0.96593900  1
  H  594  1  0.67460100  0.55728100  0.02293100  1
  C  1  1  0.98812500  0.51020100  0.47273700  1
  C  2  1  0.94786000  0.51078900  0.47409900  1
  C  3  1  0.94775800  0.50928500  0.54600600  1
  C  4  1  0.98801800  0.50993500  0.54746500  1
  C  5  1  0.00513200  0.50990300  0.58464600  1
  C  6  1  0.98333500  0.50860600  0.61886100  1
  C  7  1  0.94360000  0.50743700  0.61528800  1
  C  8  1  0.92610500  0.50801100  0.57968800  1
  C  9  1  0.92627800  0.51183000  0.44036300  1
  C  10  1  0.94383900  0.51205700  0.40479700  1
  C  11  1  0.98357900  0.51083700  0.40128600  1
  C  12  1  0.00530800  0.50996300  0.43557500  1
  C  13  1  0.03297700  0.54750700  0.51007400  1
  C  14  1  0.07324200  0.54611900  0.50943500  1
  C  15  1  0.07329800  0.47421200  0.51094800  1
  C  16  1  0.03303600  0.47277600  0.51034600  1
  C  17  1  0.09493400  0.44051900  0.51223600  1
  C  18  1  0.07741900  0.40493000  0.51288600  1
  C  19  1  0.03768100  0.40137400  0.51178500  1
  C  20  1  0.01590200  0.43560400  0.51045700  1
  C  21  1  0.01581700  0.58467700  0.51038300  1
  C  22  1  0.03756600  0.61895200  0.50951700  1
  C  23  1  0.07730300  0.61542200  0.50824300  1
  C  24  1  0.09484400  0.57984100  0.50839600  1
  C  37  1  0.01053900  0.51011900  0.51013900  1
  C  38  1  0.09488400  0.51017900  0.51012800  1
  C  41  1  0.92619300  0.51004800  0.51002300  1
  C  48  1  0.47406500  0.98853700  0.50862300  1
  C  49  1  0.47496400  0.94823400  0.50859200  1
  C  50  1  0.54685700  0.94716700  0.50724100  1
  C  51  1  0.54881500  0.98738200  0.50848200  1
  C  52  1  0.58623200  0.00399400  0.50862300  1
  C  53  1  0.62015800  0.98180600  0.50698300  1
  C  54  1  0.61608900  0.94213900  0.50528600  1
  C  55  1  0.58026100  0.92509800  0.50565800  1
  C  56  1  0.44100700  0.92699900  0.50925900  1
  C  57  1  0.40564200  0.94492800  0.50970800  1
  C  58  1  0.40256300  0.98471700  0.50909200  1
  C  59  1  0.43709100  0.00612000  0.50862100  1
  C  60  1  0.51261600  0.03240000  0.54653400  1
  C  61  1  0.51660300  0.07250300  0.54602900  1
  C  62  1  0.51559300  0.07383800  0.47426300  1
  C  63  1  0.51265600  0.03368500  0.47227700  1
  C  64  1  0.51677900  0.09590700  0.44085400  1
  C  65  1  0.51531500  0.07886900  0.40506600  1
  C  66  1  0.51299700  0.03922400  0.40122900  1
  C  67  1  0.51162300  0.01699500  0.43503300  1
  C  68  1  0.51012200  0.01456100  0.58315600  1
  C  69  1  0.51251700  0.03537400  0.61778600  1
  C  70  1  0.51681600  0.07502000  0.61538500  1
  C  71  1  0.51893600  0.09326700  0.58022100  1
  C  84  1  0.51180800  0.01045800  0.50899800  1
  C  85  1  0.51816700  0.09476000  0.51052500  1
  C  88  1  0.51059900  0.92609900  0.50763000  1
  C  95  1  0.50931300  0.47365900  0.98840900  1
  C  96  1  0.50921700  0.47454700  0.94810700  1
  C  97  1  0.50788600  0.54644000  0.94702300  1
  C  98  1  0.50918500  0.54841000  0.98723400  1
  C  99  1  0.50938700  0.58582600  0.00383800  1
  C  100  1  0.50775800  0.61974600  0.98164100  1
  C  101  1  0.50599600  0.61567100  0.94198000  1
  C  102  1  0.50629400  0.57983800  0.92494400  1
  C  103  1  0.50986900  0.44058400  0.92688000  1
  C  104  1  0.51038900  0.40522800  0.94482000  1
  C  105  1  0.50983200  0.40215700  0.98460900  1
  C  106  1  0.50935800  0.43669100  0.00600100  1
  C  107  1  0.54723200  0.51221300  0.03225900  1
  C  108  1  0.54673200  0.51616600  0.07236600  1
  C  109  1  0.47496700  0.51518200  0.07370200  1
  C  110  1  0.47297800  0.51227300  0.03354700  1
  C  111  1  0.44155500  0.51638500  0.09576900  1
  C  112  1  0.40576700  0.51496900  0.07872800  1
  C  113  1  0.40193000  0.51269000  0.03908100  1
  C  114  1  0.43573200  0.51128500  0.01685400  1
  C  115  1  0.58385100  0.50974700  0.01440900  1
  C  116  1  0.61847800  0.51207400  0.03523200  1
  C  117  1  0.61608900  0.51636200  0.07487800  1
  C  118  1  0.58092800  0.51849100  0.09312800  1
  C  131  1  0.50969900  0.51141000  0.01032000  1
  C  132  1  0.51122900  0.51772400  0.09462600  1
  C  135  1  0.50821200  0.51017600  0.92596300  1
  C  142  1  0.48897400  0.01025200  0.97294900  1
  C  143  1  0.44868900  0.00980300  0.97349100  1
  C  144  1  0.44754800  0.01101700  0.04521100  1
  C  145  1  0.48777400  0.01013800  0.04727100  1
  C  146  1  0.50439500  0.00869100  0.08456800  1
  C  147  1  0.48230600  0.00917900  0.11853400  1
  C  148  1  0.44253100  0.01005000  0.11428700  1
  C  149  1  0.42544400  0.01126200  0.07855700  1
  C  150  1  0.42774900  0.00927600  0.93934300  1
  C  151  1  0.44607800  0.00957600  0.90417700  1
  C  152  1  0.48598900  0.01009600  0.90164000  1
  C  153  1  0.50690700  0.01102900  0.93628700  1
  C  154  1  0.53344900  0.04759200  0.01078200  1
  C  155  1  0.57370900  0.04612100  0.00993400  1
  C  156  1  0.57365800  0.97423700  0.01188100  1
  C  157  1  0.53340300  0.97283000  0.01081400  1
  C  158  1  0.59525600  0.94054700  0.01369200  1
  C  159  1  0.57771300  0.90498300  0.01433500  1
  C  160  1  0.53800300  0.90143300  0.01241800  1
  C  161  1  0.51625400  0.93566000  0.01063000  1
  C  162  1  0.51638800  0.08481100  0.01122700  1
  C  163  1  0.53821000  0.11903600  0.01001900  1
  C  164  1  0.57791700  0.11539200  0.00817700  1
  C  165  1  0.59537800  0.07978000  0.00844700  1
  C  178  1  0.51094500  0.01022100  0.01048200  1
  C  179  1  0.59529600  0.01016100  0.01087400  1
  C  182  1  0.42643200  0.01063800  0.00898900  1
  C  189  1  0.97361000  0.48907400  0.00955400  1
  C  190  1  0.97416100  0.44879100  0.00912500  1
  C  191  1  0.04587500  0.44765300  0.01044600  1
  C  192  1  0.04793700  0.48788200  0.00956800  1
  C  193  1  0.08524000  0.50449400  0.00818600  1
  C  194  1  0.11920300  0.48239900  0.00875100  1
  C  195  1  0.11495000  0.44262500  0.00964700  1
  C  196  1  0.07921600  0.42554400  0.01076700  1
  C  197  1  0.94001900  0.42784000  0.00862000  1
  C  198  1  0.90485000  0.44616000  0.00891800  1
  C  199  1  0.90230400  0.48607100  0.00944600  1
  C  200  1  0.93694500  0.50699700  0.01034100  1
  C  201  1  0.01136700  0.53357900  0.04691200  1
  C  202  1  0.01050300  0.57383900  0.04541500  1
  C  203  1  0.01259800  0.57374300  0.97353300  1
  C  204  1  0.01154900  0.53348600  0.97214300  1
  C  205  1  0.01448600  0.59533300  0.93984600  1
  C  206  1  0.01525100  0.57777800  0.90428500  1
  C  207  1  0.01336800  0.53806600  0.90073500  1
  C  208  1  0.01147800  0.51632800  0.93497000  1
  C  209  1  0.01170600  0.51654400  0.08414300  1
  C  210  1  0.01040600  0.53838900  0.11834700  1
  C  211  1  0.00856300  0.57809600  0.11467800  1
  C  212  1  0.00892700  0.59553100  0.07905500  1
  C  225  1  0.01114500  0.51105000  0.00955400  1
  C  226  1  0.01150500  0.59540100  0.00944600  1
  C  229  1  0.00965600  0.42653400  0.00999900  1
  C  236  1  0.01088300  0.97328400  0.48731700  1
  C  237  1  0.01225500  0.97477100  0.44707700  1
  C  238  1  0.00972100  0.04663400  0.44715400  1
  C  239  1  0.01035500  0.04802200  0.48741900  1
  C  240  1  0.01015800  0.08518500  0.50458800  1
  C  241  1  0.00831600  0.11941900  0.48284200  1
  C  242  1  0.00675300  0.11586900  0.44311500  1
  C  243  1  0.00785400  0.08032100  0.42555800  1
  C  244  1  0.01414100  0.94112800  0.42541600  1
  C  245  1  0.01420300  0.90550500  0.44286600  1
  C  246  1  0.01174800  0.90184500  0.48253600  1
  C  247  1  0.01020600  0.93605700  0.50435500  1
  C  248  1  0.04798900  0.01046000  0.53233100  1
  C  249  1  0.04653700  0.00907700  0.57257600  1
  C  250  1  0.97466800  0.01135200  0.57256500  1
  C  251  1  0.97325800  0.01071500  0.53230200  1
  C  252  1  0.94098700  0.01304400  0.59418100  1
  C  253  1  0.90542300  0.01390900  0.57664300  1
  C  254  1  0.90186700  0.01232900  0.53691900  1
  C  255  1  0.93609100  0.01070200  0.51515000  1
  C  256  1  0.08520100  0.01120300  0.51526100  1
  C  257  1  0.11943700  0.00969800  0.53705000  1
  C  258  1  0.11581000  0.00724900  0.57672800  1
  C  259  1  0.08020400  0.00726600  0.59420600  1
  C  272  1  0.01062400  0.01062500  0.50984100  1
  C  273  1  0.01058900  0.00994200  0.59418600  1
  C  276  1  0.01129500  0.01073600  0.42550100  1
  C  283  1  0.01761300  0.50433800  0.21846400  1
  C  284  1  0.99362200  0.47986800  0.24035500  1
  C  285  1  0.99579600  0.47954700  0.28116500  1
  C  286  1  0.01817800  0.50713900  0.30097500  1
  C  287  1  0.03942600  0.53392500  0.27904600  1
  C  288  1  0.04130700  0.53077000  0.23835300  1
  C  289  1  0.97485600  0.45044600  0.30435800  1
  C  293  1  0.96543100  0.45460600  0.22071200  1
  C  297  1  0.06031600  0.56568000  0.29852600  1
  C  301  1  0.06915200  0.55532800  0.21725000  1
  C  305  1  0.01957900  0.50021800  0.17827200  1
  C  307  1  0.02263900  0.50572300  0.34122100  1
  C  309  1  0.00985200  0.50400900  0.80066300  1
  C  310  1  0.03490600  0.47938600  0.78017400  1
  C  311  1  0.03740000  0.48139800  0.73943400  1
  C  312  1  0.01780900  0.51045400  0.71883700  1
  C  313  1  0.99440500  0.53640600  0.73957300  1
  C  314  1  0.98836100  0.53144800  0.77967100  1
  C  315  1  0.06054900  0.45347600  0.71684200  1
  C  319  1  0.05950100  0.45156900  0.80115900  1
  C  323  1  0.97588900  0.56937000  0.71971100  1
  C  327  1  0.95883600  0.55543000  0.79911000  1
  C  331  1  0.00534000  0.49995400  0.84061600  1
  C  333  1  0.02241400  0.51350500  0.67875600  1
  C  335  1  0.21954500  0.01782700  0.50308100  1
  C  336  1  0.24161900  0.99415000  0.47846900  1
  C  337  1  0.28241500  0.99663900  0.47815700  1
  C  338  1  0.30206200  0.01898900  0.50589600  1
  C  339  1  0.27996200  0.03981800  0.53287300  1
  C  340  1  0.23925900  0.04144600  0.52971100  1
  C  341  1  0.30575100  0.97607300  0.44891000  1
  C  345  1  0.22218100  0.96597600  0.45303100  1
  C  349  1  0.29927500  0.06053900  0.56484100  1
  C  353  1  0.21795200  0.06894900  0.55447400  1
  C  357  1  0.17933500  0.01955500  0.49894900  1
  C  359  1  0.34227700  0.02383900  0.50450600  1
  C  361  1  0.80190300  0.00856600  0.50273800  1
  C  362  1  0.78132000  0.03368700  0.47826200  1
  C  363  1  0.74058000  0.03602400  0.48030800  1
  C  364  1  0.72008300  0.01616500  0.50925100  1
  C  365  1  0.74089300  0.99265700  0.53503800  1
  C  366  1  0.78101100  0.98681400  0.53004900  1
  C  367  1  0.71788100  0.05927600  0.45256000  1
  C  371  1  0.80220100  0.05849500  0.45055600  1
  C  375  1  0.72109300  0.97381100  0.56785700  1
  C  379  1  0.80057200  0.95721900  0.55384700  1
  C  383  1  0.84187000  0.00428100  0.49871100  1
  C  385  1  0.68000500  0.02058200  0.51234100  1
  C  387  1  0.50411700  0.21912500  0.01774200  1
  C  388  1  0.47951300  0.24116400  0.99402500  1
  C  389  1  0.47913300  0.28195900  0.99652000  1
  C  390  1  0.50683000  0.30165400  0.01888300  1
  C  391  1  0.53378600  0.27958700  0.03977000  1
  C  392  1  0.53065600  0.23888300  0.04142400  1
  C  393  1  0.44986100  0.30524600  0.97593400  1
  C  397  1  0.45416300  0.22169200  0.96579200  1
  C  401  1  0.56571200  0.29894100  0.06051900  1
  C  405  1  0.55535700  0.21762500  0.06902300  1
  C  409  1  0.50001600  0.17891200  0.01947400  1
  C  411  1  0.50537100  0.34186200  0.02374100  1
  C  413  1  0.50380500  0.80148500  0.00840700  1
  C  414  1  0.47924900  0.78092800  0.03347300  1
  C  415  1  0.48124700  0.74018600  0.03581500  1
  C  416  1  0.51020100  0.71966000  0.01600500  1
  C  417  1  0.53606200  0.74043900  0.99255000  1
  C  418  1  0.53114200  0.78056800  0.98671500  1
  C  419  1  0.45343400  0.71751500  0.05901400  1
  C  423  1  0.45151500  0.80183700  0.05822500  1
  C  427  1  0.56887900  0.72059700  0.97374900  1
  C  431  1  0.55505000  0.80011200  0.95719900  1
  C  435  1  0.49981500  0.84145300  0.00410800  1
  C  437  1  0.51323500  0.67957600  0.02041800  1
  C  439  1  0.50549900  0.99907100  0.79930900  1
  C  440  1  0.47976900  0.98645400  0.77036900  1
  C  441  1  0.49030500  0.98810000  0.73107700  1
  C  442  1  0.52153800  0.01114800  0.71933900  1
  C  443  1  0.54398800  0.02878000  0.74847500  1
  C  444  1  0.53894500  0.01868700  0.78761700  1
  C  445  1  0.46947900  0.96471300  0.70225000  1
  C  449  1  0.44088500  0.97276100  0.78127500  1
  C  453  1  0.57186400  0.05930200  0.73804300  1
  C  457  1  0.56896700  0.02748800  0.81646600  1
  C  461  1  0.49732300  0.99092900  0.83806800  1
  C  463  1  0.53063900  0.01744300  0.68032800  1
  C  465  1  0.49679300  0.01526400  0.22199400  1
  C  466  1  0.46479400  0.01332100  0.24720900  1
  C  467  1  0.47004300  0.00908800  0.28741100  1
  C  468  1  0.50734100  0.00449400  0.30269200  1
  C  469  1  0.53923200  0.00466100  0.27754600  1
  C  470  1  0.53407600  0.01111200  0.23753000  1
  C  471  1  0.43720100  0.00952200  0.31492300  1
  C  475  1  0.42489700  0.01521000  0.23223100  1
  C  479  1  0.57869200  0.99891800  0.29282500  1
  C  483  1  0.56843900  0.01395800  0.21237900  1
  C  487  1  0.49068600  0.02568400  0.18354800  1
  C  489  1  0.51198300  0.99932100  0.34227700  1
  C  491  1  0.01134600  0.21953800  0.51685300  1
  C  492  1  0.98620700  0.24003500  0.54138900  1
  C  493  1  0.98367000  0.28076800  0.53931700  1
  C  494  1  0.00327400  0.30135000  0.51025500  1
  C  495  1  0.02674700  0.28060000  0.48438000  1
  C  496  1  0.03287100  0.24052500  0.48943700  1
  C  497  1  0.96045700  0.30336800  0.56717300  1
  C  501  1  0.96156300  0.21905700  0.56916500  1
  C  505  1  0.04525700  0.30041900  0.45139100  1
  C  509  1  0.06251500  0.22110800  0.46558800  1
  C  513  1  0.01590800  0.17959400  0.52097900  1
  C  515  1  0.99861400  0.34142300  0.50713100  1
  C  517  1  0.00380100  0.80175800  0.51648100  1
  C  518  1  0.02766000  0.77977900  0.54100000  1
  C  519  1  0.02540800  0.73897100  0.54123800  1
  C  520  1  0.00303500  0.71926000  0.51356700  1
  C  521  1  0.98189100  0.74127300  0.48677000  1
  C  522  1  0.98013100  0.78197000  0.48995400  1
  C  523  1  0.04624500  0.71567900  0.57033700  1
  C  527  1  0.05578800  0.79932300  0.56641000  1
  C  531  1  0.96097600  0.72188500  0.45497200  1
  C  535  1  0.95243700  0.80318800  0.46532400  1
  C  539  1  0.00194600  0.84195300  0.52061600  1
  C  541  1  0.99855100  0.67901700  0.51488700  1
  C  543  1  0.22266500  0.49680700  0.01501500  1
  C  544  1  0.24783600  0.46476500  0.01314800  1
  C  545  1  0.28804900  0.46994700  0.00892100  1
  C  546  1  0.30339300  0.50721600  0.00430700  1
  C  547  1  0.27829400  0.53914700  0.00441700  1
  C  548  1  0.23826300  0.53405900  0.01082600  1
  C  549  1  0.31551300  0.43706500  0.00938300  1
  C  553  1  0.23280800  0.42489400  0.01513600  1
  C  557  1  0.29364200  0.57857800  0.99865900  1
  C  561  1  0.21316000  0.56846400  0.01358800  1
  C  565  1  0.18418300  0.49078800  0.02537000  1
  C  567  1  0.34298900  0.51179900  0.99915900  1
  C  569  1  0.79994700  0.50547100  0.99861700  1
  C  570  1  0.77103300  0.47967200  0.98608500  1
  C  571  1  0.73172400  0.49013500  0.98779900  1
  C  572  1  0.71997200  0.52136800  0.01084500  1
  C  573  1  0.74910200  0.54388300  0.02840200  1
  C  574  1  0.78823300  0.53890900  0.01823200  1
  C  575  1  0.70290000  0.46923800  0.96447500  1
  C  579  1  0.78198100  0.44079400  0.97241200  1
  C  583  1  0.73867600  0.57176800  0.05892000  1
  C  587  1  0.81704800  0.56898400  0.02695700  1
  C  591  1  0.83869800  0.49736600  0.99037600  1
  C  593  1  0.68095500  0.53038100  0.01722200  1
  N  44  1  0.02632100  0.36484000  0.51189300  1
  N  45  1  0.99494200  0.51004500  0.36473800  1
  N  46  1  0.99468400  0.50860900  0.65539800  1
  N  47  1  0.02623000  0.65550600  0.51044000  1
  N  91  1  0.51130500  0.02793000  0.36494000  1
  N  92  1  0.36609400  0.99633800  0.50837900  1
  N  93  1  0.65679100  0.99281100  0.50702600  1
  N  94  1  0.50634500  0.02191400  0.65309100  1
  N  138  1  0.36563800  0.51105800  0.02777900  1
  N  139  1  0.50918500  0.36569400  0.99623900  1
  N  140  1  0.50787700  0.65638000  0.99264300  1
  N  141  1  0.65378300  0.50602100  0.02172600  1
  N  185  1  0.52674000  0.86487600  0.01219500  1
  N  186  1  0.50048200  0.01430100  0.86634400  1
  N  187  1  0.49545600  0.00372500  0.15432800  1
  N  188  1  0.52714000  0.15565900  0.01151900  1
  N  232  1  0.01329300  0.52681400  0.86416400  1
  N  233  1  0.86700200  0.50053900  0.01371200  1
  N  234  1  0.15501100  0.49553000  0.00334500  1
  N  235  1  0.01173900  0.52733900  0.15497900  1
  N  279  1  0.86530500  0.01222200  0.52566700  1
  N  280  1  0.01014400  0.86522300  0.49358000  1
  N  281  1  0.00821100  0.15599400  0.49409100  1
  N  282  1  0.15605600  0.01138000  0.52598800  1
