# generated using pymatgen
data_Ni2H8C11NO7
_symmetry_space_group_name_H-M   'P 1'
_cell_length_a   10.97042000
_cell_length_b   13.44559000
_cell_length_c   14.83679000
_cell_angle_alpha   80.62876000
_cell_angle_beta   89.87322000
_cell_angle_gamma   89.85613000
_symmetry_Int_Tables_number   1
_chemical_formula_structural   Ni2H8C11NO7
_chemical_formula_sum   'Ni8 H32 C44 N4 O28'
_cell_volume   2159.26459220
_cell_formula_units_Z   4
loop_
 _symmetry_equiv_pos_site_id
 _symmetry_equiv_pos_as_xyz
  1  'x, y, z'
loop_
 _atom_site_type_symbol
 _atom_site_label
 _atom_site_symmetry_multiplicity
 _atom_site_fract_x
 _atom_site_fract_y
 _atom_site_fract_z
 _atom_site_occupancy
  Ni  Ni1  1  0.00036000  0.11435000  0.96058000  1.0
  Ni  Ni2  1  0.14107000  0.91264000  0.86593000  1.0
  Ni  Ni3  1  0.50095000  0.38599000  0.03897000  1.0
  Ni  Ni4  1  0.64019000  0.58752000  0.13418000  1.0
  Ni  Ni5  1  0.99964000  0.88565000  0.03943000  1.0
  Ni  Ni6  1  0.85893000  0.08736000  0.13408000  1.0
  Ni  Ni7  1  0.49905000  0.61401000  0.96103000  1.0
  Ni  Ni8  1  0.35981000  0.41248000  0.86582000  1.0
  H  H1  1  0.08646000  0.03303000  0.11517000  1.0
  H  H2  1  0.36172000  0.07683000  0.05121000  1.0
  H  H3  1  0.39558000  0.90629000  0.93997000  1.0
  H  H4  1  0.49927000  0.08888000  0.86985000  1.0
  H  H5  1  0.10942000  0.79147000  0.71247000  1.0
  H  H6  1  0.04700000  0.82633000  0.55005000  1.0
  H  H7  1  0.00676000  0.14009000  0.58046000  1.0
  H  H8  1  0.08000000  0.09195000  0.73929000  1.0
  H  H9  1  0.58743000  0.46779000  0.88414000  1.0
  H  H10  1  0.86230000  0.42452000  0.94878000  1.0
  H  H11  1  0.89511000  0.59453000  0.06034000  1.0
  H  H12  1  0.99922000  0.41049000  0.13009000  1.0
  H  H13  1  0.60927000  0.70841000  0.28753000  1.0
  H  H14  1  0.54684000  0.67356000  0.45019000  1.0
  H  H15  1  0.50680000  0.35995000  0.41952000  1.0
  H  H16  1  0.58011000  0.40817000  0.26046000  1.0
  H  H17  1  0.91354000  0.96697000  0.88483000  1.0
  H  H18  1  0.63828000  0.92317000  0.94880000  1.0
  H  H19  1  0.60442000  0.09371000  0.06003000  1.0
  H  H20  1  0.50073000  0.91112000  0.13015000  1.0
  H  H21  1  0.89058000  0.20853000  0.28753000  1.0
  H  H22  1  0.95300000  0.17367000  0.44995000  1.0
  H  H23  1  0.99324000  0.85991000  0.41954000  1.0
  H  H24  1  0.92000000  0.90805000  0.26071000  1.0
  H  H25  1  0.41257000  0.53221000  0.11587000  1.0
  H  H26  1  0.13770000  0.57548000  0.05122000  1.0
  H  H27  1  0.10489000  0.40547000  0.93966000  1.0
  H  H28  1  0.00078000  0.58951000  0.86991000  1.0
  H  H29  1  0.39073000  0.29159000  0.71248000  1.0
  H  H30  1  0.45316000  0.32644000  0.54981000  1.0
  H  H31  1  0.49320000  0.64005000  0.58048000  1.0
  H  H32  1  0.41989000  0.59183000  0.73954000  1.0
  C  C1  1  0.37769000  0.04881000  0.98659000  1.0
  C  C2  1  0.39219000  0.93278000  0.00600000  1.0
  C  C3  1  0.49193000  0.10222000  0.94066000  1.0
  C  C4  1  0.26355000  0.07243000  0.92785000  1.0
  C  C5  1  0.27718000  0.89073000  0.05739000  1.0
  C  C6  1  0.47254000  0.21495000  0.94090000  1.0
  C  C7  1  0.08854000  0.86781000  0.67900000  1.0
  C  C8  1  0.05172000  0.88864000  0.58828000  1.0
  C  C9  1  0.02055000  0.98763000  0.54816000  1.0
  C  C10  1  0.03014000  0.06173000  0.60478000  1.0
  C  C11  1  0.06984000  0.03601000  0.69438000  1.0
  C  C12  1  0.87775000  0.45202000  0.01358000  1.0
  C  C13  1  0.89214000  0.56800000  0.99434000  1.0
  C  C14  1  0.99166000  0.39760000  0.05919000  1.0
  C  C15  1  0.76343000  0.42777000  0.07210000  1.0
  C  C16  1  0.77762000  0.61097000  0.94271000  1.0
  C  C17  1  0.97190000  0.28494000  0.05868000  1.0
  C  C18  1  0.58838000  0.63215000  0.32105000  1.0
  C  C19  1  0.55167000  0.61131000  0.41185000  1.0
  C  C20  1  0.52057000  0.51236000  0.45184000  1.0
  C  C21  1  0.53019000  0.43825000  0.39519000  1.0
  C  C22  1  0.56981000  0.46399000  0.30551000  1.0
  C  C23  1  0.62231000  0.95119000  0.01341000  1.0
  C  C24  1  0.60781000  0.06722000  0.99400000  1.0
  C  C25  1  0.50807000  0.89778000  0.05934000  1.0
  C  C26  1  0.73645000  0.92757000  0.07215000  1.0
  C  C27  1  0.72282000  0.10927000  0.94261000  1.0
  C  C28  1  0.52746000  0.78505000  0.05910000  1.0
  C  C29  1  0.91146000  0.13219000  0.32101000  1.0
  C  C30  1  0.94828000  0.11136000  0.41173000  1.0
  C  C31  1  0.97945000  0.01237000  0.45184000  1.0
  C  C32  1  0.96986000  0.93827000  0.39523000  1.0
  C  C33  1  0.93016000  0.96399000  0.30562000  1.0
  C  C34  1  0.12225000  0.54798000  0.98642000  1.0
  C  C35  1  0.10786000  0.43200000  0.00567000  1.0
  C  C36  1  0.00834000  0.60240000  0.94081000  1.0
  C  C37  1  0.23657000  0.57223000  0.92790000  1.0
  C  C38  1  0.22238000  0.38903000  0.05729000  1.0
  C  C39  1  0.02810000  0.71506000  0.94132000  1.0
  C  C40  1  0.41162000  0.36785000  0.67895000  1.0
  C  C41  1  0.44833000  0.38869000  0.58815000  1.0
  C  C42  1  0.47943000  0.48764000  0.54817000  1.0
  C  C43  1  0.46981000  0.56175000  0.60481000  1.0
  C  C44  1  0.43019000  0.53601000  0.69449000  1.0
  N  N1  1  0.09851000  0.94038000  0.73178000  1.0
  N  N2  1  0.59826000  0.55962000  0.26820000  1.0
  N  N3  1  0.90149000  0.05962000  0.26823000  1.0
  N  N4  1  0.40174000  0.44038000  0.73180000  1.0
  O  O1  1  0.18243000  0.12473000  0.95948000  1.0
  O  O2  1  0.25455000  0.03485000  0.85397000  1.0
  O  O3  1  0.18107000  0.88504000  0.00458000  1.0
  O  O4  1  0.27233000  0.87061000  0.14149000  1.0
  O  O5  1  0.41857000  0.26628000  0.87236000  1.0
  O  O6  1  0.50870000  0.24683000  0.01237000  1.0
  O  O7  1  0.00883000  0.02093000  0.08703000  1.0
  O  O8  1  0.68365000  0.37488000  0.04042000  1.0
  O  O9  1  0.75284000  0.46498000  0.14612000  1.0
  O  O10  1  0.68010000  0.61469000  0.99508000  1.0
  O  O11  1  0.77486000  0.63378000  0.85876000  1.0
  O  O12  1  0.92041000  0.23270000  0.12792000  1.0
  O  O13  1  0.00603000  0.25383000  0.98622000  1.0
  O  O14  1  0.50956000  0.47939000  0.91250000  1.0
  O  O15  1  0.81757000  0.87527000  0.04053000  1.0
  O  O16  1  0.74545000  0.96515000  0.14604000  1.0
  O  O17  1  0.81893000  0.11496000  0.99542000  1.0
  O  O18  1  0.72767000  0.12939000  0.85851000  1.0
  O  O19  1  0.58143000  0.73372000  0.12764000  1.0
  O  O20  1  0.49130000  0.75317000  0.98763000  1.0
  O  O21  1  0.99117000  0.97907000  0.91298000  1.0
  O  O22  1  0.31635000  0.62512000  0.95958000  1.0
  O  O23  1  0.24716000  0.53502000  0.85388000  1.0
  O  O24  1  0.31990000  0.38531000  0.00492000  1.0
  O  O25  1  0.22514000  0.36621000  0.14125000  1.0
  O  O26  1  0.07959000  0.76730000  0.87209000  1.0
  O  O27  1  0.99397000  0.74617000  0.01378000  1.0
  O  O28  1  0.49044000  0.52061000  0.08750000  1.0
