# generated using pymatgen
data_H23C39N8
_symmetry_space_group_name_H-M   'P 1'
_cell_length_a   24.98665000
_cell_length_b   24.98665000
_cell_length_c   86.62580000
_cell_angle_alpha   89.88850000
_cell_angle_beta   89.94430005
_cell_angle_gamma   60.00000000
_symmetry_Int_Tables_number   1
_chemical_formula_structural   H23C39N8
_chemical_formula_sum   'H138 C234 N48'
_cell_volume   46837.43837529
_cell_formula_units_Z   6
loop_
 _symmetry_equiv_pos_site_id
 _symmetry_equiv_pos_as_xyz
  1  'x, y, z'
loop_
 _atom_site_type_symbol
 _atom_site_label
 _atom_site_symmetry_multiplicity
 _atom_site_fract_x
 _atom_site_fract_y
 _atom_site_fract_z
 _atom_site_occupancy
  C  1  1  0.52258100  0.46038150  0.72838900  1
  C  2  1  0.46687200  0.51507800  0.72864500  1
  C  3  1  0.44958100  0.53094050  0.74404300  1
  C  5  1  0.54038300  0.44112450  0.74362000  1
  C  6  1  0.59480800  0.38577100  0.74805400  1
  C  7  1  0.61281300  0.36676600  0.76356300  1
  C  9  1  0.61357200  0.36517500  0.78945500  1
  C  10  1  0.66513900  0.31096950  0.78428100  1
  C  11  1  0.66475500  0.31202350  0.76833300  1
  C  12  1  0.59684100  0.38252400  0.80509700  1
  C  13  1  0.54372600  0.43798500  0.81002000  1
  C  15  1  0.45425100  0.52911250  0.81041300  1
  C  16  1  0.47428500  0.51228000  0.82562900  1
  C  17  1  0.52885500  0.45645300  0.82539200  1
  C  18  1  0.39908300  0.58365200  0.80597000  1
  C  19  1  0.37968900  0.60130000  0.79048100  1
  C  21  1  0.37752700  0.60145800  0.76463500  1
  C  22  1  0.32383200  0.65365100  0.76980100  1
  C  23  1  0.32519500  0.65358400  0.78573300  1
  C  24  1  0.39444100  0.58426850  0.74900300  1
  C  25  1  0.35209800  0.62282300  0.73745500  1
  C  26  1  0.30316500  0.61357500  0.73284600  1
  C  27  1  0.25971400  0.65299950  0.72190200  1
  C  28  1  0.26411300  0.70243250  0.71521200  1
  C  29  1  0.31417100  0.71047750  0.71966600  1
  C  30  1  0.35752500  0.67135100  0.73069600  1
  C  31  1  0.21720900  0.74526950  0.70505800  1
  C  32  1  0.23175100  0.76565500  0.69124300  1
  C  33  1  0.18486800  0.81070400  0.68181000  1
  C  34  1  0.12194900  0.83701950  0.68598700  1
  C  35  1  0.10739200  0.81629900  0.69971800  1
  C  36  1  0.15414500  0.77101600  0.70903600  1
  C  37  1  0.36081700  0.62385150  0.81790400  1
  C  38  1  0.31891500  0.61146750  0.82590400  1
  C  39  1  0.28336900  0.64964250  0.83816500  1
  C  40  1  0.28838300  0.70138300  0.84272300  1
  C  41  1  0.33010600  0.71372200  0.83450700  1
  C  42  1  0.36601500  0.67542700  0.82231200  1
  C  43  1  0.25311700  0.73957450  0.85534200  1
  C  44  1  0.24853800  0.71350950  0.86946700  1
  C  45  1  0.21466500  0.75117650  0.88198500  1
  C  46  1  0.18359800  0.81633150  0.88076900  1
  C  47  1  0.18808300  0.84248700  0.86664700  1
  C  48  1  0.22233100  0.80479200  0.85419100  1
  C  49  1  0.63554100  0.34076000  0.81675300  1
  C  50  1  0.68760900  0.34282200  0.82228100  1
  C  51  1  0.72500800  0.30191950  0.83395800  1
  C  52  1  0.71153300  0.25785350  0.84043900  1
  C  53  1  0.65861300  0.25690800  0.83493100  1
  C  54  1  0.62107200  0.29775450  0.82329100  1
  C  55  1  0.75204400  0.21332500  0.85148400  1
  C  56  1  0.76977000  0.15025600  0.84983900  1
  C  57  1  0.81335400  0.10504500  0.85979800  1
  C  58  1  0.84093800  0.12097500  0.87186800  1
  C  59  1  0.82216100  0.18416900  0.87383600  1
  C  60  1  0.77850000  0.22947950  0.86380500  1
  C  61  1  0.63382300  0.34664750  0.73603900  1
  C  62  1  0.68454900  0.35189100  0.73081400  1
  C  63  1  0.61973200  0.30533750  0.72839300  1
  C  64  1  0.65533700  0.27045450  0.71571800  1
  C  65  1  0.70613900  0.27558400  0.71031400  1
  C  66  1  0.72029900  0.31661700  0.71820100  1
  C  67  1  0.74178400  0.24075850  0.69728400  1
  C  68  1  0.80714300  0.21013150  0.69754800  1
  C  69  1  0.84240200  0.17516500  0.68485100  1
  C  70  1  0.81370800  0.16957450  0.67132800  1
  C  71  1  0.74838800  0.20094650  0.67093500  1
  C  72  1  0.71314900  0.23560200  0.68370000  1
  C  115  1  0.07495500  0.88607450  0.67798000  1
  C  116  1  0.14941400  0.85291450  0.89313600  1
  C  117  1  0.89008000  0.07394250  0.87996400  1
  C  118  1  0.84810100  0.13302000  0.65893400  1
  C  123  1  0.46415400  0.00837100  0.06171800  1
  C  124  1  0.51880900  0.00946400  0.06196600  1
  C  125  1  0.53467700  0.01093300  0.07736000  1
  C  127  1  0.44493200  0.00980600  0.07695100  1
  C  128  1  0.38961700  0.01066950  0.08139200  1
  C  129  1  0.37062700  0.01167800  0.09690100  1
  C  131  1  0.36902500  0.01258700  0.12279100  1
  C  132  1  0.31486200  0.01512300  0.11762100  1
  C  133  1  0.31591100  0.01442800  0.10167500  1
  C  134  1  0.38635700  0.01204900  0.13843200  1
  C  135  1  0.44177300  0.00981350  0.14335200  1
  C  137  1  0.53287100  0.00822400  0.14373400  1
  C  138  1  0.51601700  0.00510750  0.15895600  1
  C  139  1  0.46021000  0.00632400  0.15872600  1
  C  140  1  0.58742000  0.00882500  0.13928400  1
  C  141  1  0.60505600  0.01054750  0.12379100  1
  C  143  1  0.60519500  0.01252900  0.09794100  1
  C  144  1  0.65738100  0.01405600  0.10310000  1
  C  145  1  0.65732800  0.01276950  0.11903300  1
  C  146  1  0.58799100  0.01279150  0.08231000  1
  C  147  1  0.62653500  0.01655850  0.07075100  1
  C  148  1  0.61718200  0.07473350  0.06605000  1
  C  149  1  0.65655400  0.07873850  0.05508200  1
  C  150  1  0.70600900  0.02489700  0.04844600  1
  C  151  1  0.71417900  0.96679950  0.05300300  1
  C  152  1  0.67507100  0.96259100  0.06404500  1
  C  153  1  0.74880300  0.02894450  0.03826500  1
  C  154  1  0.76933300  0.99378900  0.02451400  1
  C  155  1  0.81439900  0.99554800  0.01507000  1
  C  156  1  0.84060100  0.03230000  0.01916900  1
  C  157  1  0.81964500  0.06790450  0.03281900  1
  C  158  1  0.77440200  0.06644300  0.04215600  1
  C  159  1  0.62761200  0.00693100  0.15121500  1
  C  160  1  0.61516100  0.06122600  0.15917500  1
  C  161  1  0.65329400  0.05862800  0.17144600  1
  C  162  1  0.70504100  0.00188850  0.17605900  1
  C  163  1  0.71747400  0.94782550  0.16787400  1
  C  164  1  0.67920900  0.95017900  0.15567400  1
  C  165  1  0.74317200  0.99899400  0.18869200  1
  C  166  1  0.71704800  0.02963700  0.20278700  1
  C  167  1  0.75466600  0.02587800  0.21531800  1
  C  168  1  0.81982100  0.99187350  0.21413800  1
  C  169  1  0.84603700  0.96124400  0.20004500  1
  C  170  1  0.80839300  0.96465400  0.18757600  1
  C  171  1  0.34460500  0.01511250  0.15008800  1
  C  172  1  0.34662700  0.96099050  0.15565400  1
  C  173  1  0.30567700  0.96450750  0.16731500  1
  C  174  1  0.26163100  0.02205000  0.17375100  1
  C  175  1  0.26072400  0.07590500  0.16820600  1
  C  176  1  0.30160300  0.07259000  0.15657800  1
  C  177  1  0.21704300  0.02608400  0.18477600  1
  C  178  1  0.15398900  0.07142200  0.18307200  1
  C  179  1  0.10872700  0.07307000  0.19301500  1
  C  180  1  0.12460400  0.02959900  0.20512900  1
  C  181  1  0.18779100  0.98521300  0.20716200  1
  C  182  1  0.23313700  0.98348350  0.19713100  1
  C  183  1  0.35053800  0.01064850  0.06938500  1
  C  184  1  0.35585000  0.95461200  0.06423800  1
  C  185  1  0.30917900  0.06597950  0.06167400  1
  C  186  1  0.27432600  0.06512500  0.04900800  1
  C  187  1  0.27955700  0.00911800  0.04367800  1
  C  188  1  0.32066300  0.95399200  0.05162500  1
  C  189  1  0.24478700  0.00815200  0.03065600  1
  C  190  1  0.21417300  0.97340950  0.03098100  1
  C  191  1  0.17926700  0.97296700  0.01828800  1
  C  192  1  0.17375100  0.00708550  0.00471100  1
  C  193  1  0.20508800  0.04106300  0.00426000  1
  C  194  1  0.23968700  0.04179500  0.01702000  1
  C  237  1  0.88969700  0.03018400  0.01116500  1
  C  238  1  0.85634800  0.98957750  0.22651000  1
  C  239  1  0.07754600  0.02751600  0.21321600  1
  C  240  1  0.13724900  0.00912450  0.99231900  1
  C  245  1  0.01378700  0.51758100  0.39505100  1
  C  246  1  0.01492700  0.46180750  0.39530600  1
  C  247  1  0.01632100  0.44438050  0.41070300  1
  C  249  1  0.01506500  0.53532150  0.41028200  1
  C  250  1  0.01570700  0.58984800  0.41471800  1
  C  251  1  0.01662500  0.60777400  0.43022300  1
  C  253  1  0.01752100  0.60831600  0.45611400  1
  C  254  1  0.01993300  0.66004150  0.45092900  1
  C  255  1  0.01919100  0.65980950  0.43498200  1
  C  256  1  0.01698700  0.59142100  0.47176000  1
  C  257  1  0.01483200  0.53815150  0.47668300  1
  C  259  1  0.01343900  0.44854200  0.47707400  1
  C  260  1  0.01015300  0.46845900  0.49229100  1
  C  261  1  0.01125700  0.52311100  0.49205600  1
  C  262  1  0.01417500  0.39336700  0.47263000  1
  C  263  1  0.01596400  0.37407400  0.45714500  1
  C  265  1  0.01791100  0.37212650  0.43129800  1
  C  266  1  0.01944800  0.31837650  0.43647300  1
  C  267  1  0.01819900  0.31960100  0.45240500  1
  C  268  1  0.01813600  0.38918500  0.41566100  1
  C  269  1  0.02179300  0.34700450  0.40411200  1
  C  270  1  0.07990100  0.29811650  0.39943400  1
  C  271  1  0.08377300  0.25489300  0.38847100  1
  C  272  1  0.02986200  0.25948250  0.38181800  1
  C  273  1  0.97183300  0.30945900  0.38635600  1
  C  274  1  0.96775700  0.35262450  0.39739300  1
  C  275  1  0.03378100  0.21282550  0.37162600  1
  C  276  1  0.99853700  0.22769850  0.35787400  1
  C  277  1  0.00015700  0.18105550  0.34842200  1
  C  278  1  0.03688900  0.11802150  0.35250300  1
  C  279  1  0.07252500  0.10313450  0.36616500  1
  C  280  1  0.07122000  0.14965300  0.37551000  1
  C  281  1  0.01214500  0.35504750  0.48456400  1
  C  282  1  0.06637500  0.31302750  0.49255300  1
  C  283  1  0.06362500  0.27742300  0.50481500  1
  C  284  1  0.00680300  0.28251150  0.50938000  1
  C  285  1  0.95279900  0.32436000  0.50117400  1
  C  286  1  0.95530400  0.36033400  0.48898300  1
  C  287  1  0.00374100  0.24717700  0.52199100  1
  C  288  1  0.03428500  0.24245400  0.53612000  1
  C  289  1  0.03030700  0.20853700  0.54863400  1
  C  290  1  0.99615200  0.17756250  0.54740400  1
  C  291  1  0.96564200  0.18216550  0.53327600  1
  C  292  1  0.96926500  0.21645850  0.52082400  1
  C  293  1  0.01987500  0.63011900  0.48341400  1
  C  294  1  0.96566400  0.68216100  0.48892000  1
  C  295  1  0.96899100  0.71952800  0.50060000  1
  C  296  1  0.02642200  0.70601550  0.50712500  1
  C  297  1  0.08036600  0.65311900  0.50163700  1
  C  298  1  0.07724500  0.61563500  0.48998500  1
  C  299  1  0.03027300  0.74644600  0.51819500  1
  C  300  1  0.07575400  0.76404200  0.51661400  1
  C  301  1  0.07722400  0.80758050  0.52658400  1
  C  302  1  0.03346000  0.83521350  0.53861500  1
  C  303  1  0.98889600  0.81655950  0.54051700  1
  C  304  1  0.98736600  0.77298700  0.53046700  1
  C  305  1  0.01554500  0.62910650  0.40270500  1
  C  306  1  0.95941200  0.67974800  0.39753400  1
  C  307  1  0.07081800  0.61537750  0.39501000  1
  C  308  1  0.06980600  0.65123550  0.38233300  1
  C  309  1  0.01370600  0.70195600  0.37698700  1
  C  310  1  0.95864500  0.71576500  0.38492300  1
  C  311  1  0.01259300  0.73788900  0.36396500  1
  C  312  1  0.97771600  0.80323550  0.36428700  1
  C  313  1  0.97715800  0.83879100  0.35160100  1
  C  314  1  0.01126300  0.81041150  0.33803100  1
  C  315  1  0.04535300  0.74510500  0.33757900  1
  C  316  1  0.04621400  0.70956600  0.35033400  1
  C  359  1  0.03460300  0.07121150  0.34449700  1
  C  360  1  0.99357900  0.14333350  0.55976400  1
  C  361  1  0.03117700  0.88439150  0.54669300  1
  C  362  1  0.01318300  0.84509350  0.32565000  1
  C  367  1  0.95884000  0.03678900  0.90082900  1
  C  369  1  0.01604000  0.99446750  0.92388600  1
  C  371  1  0.05797500  0.94673550  0.89989900  1
  C  376  1  0.04027100  0.99626100  0.23415400  1
  C  378  1  0.99798400  0.98150150  0.25724400  1
  C  380  1  0.95016400  0.98726100  0.23326900  1
  C  385  1  0.99937900  0.95316300  0.56753200  1
  C  387  1  0.98424800  0.01047550  0.59054800  1
  C  389  1  0.99060200  0.05217700  0.56654100  1
  C  394  1  0.01476600  0.93870000  0.31979100  1
  C  396  1  0.01920900  0.98853000  0.29696200  1
  C  398  1  0.02319300  0.02898950  0.32138300  1
  C  403  1  0.04208100  0.01076050  0.98644100  1
  C  405  1  0.98790300  0.01537450  0.96362000  1
  C  407  1  0.94340600  0.01906800  0.98804800  1
  C  412  1  0.94157000  0.03767750  0.65309300  1
  C  414  1  0.99106800  0.98298100  0.63032500  1
  C  416  1  0.03195200  0.93905150  0.65479500  1
  H  73  1  0.72573700  0.19802500  0.66141100  1
  H  74  1  0.66599900  0.25775150  0.68288800  1
  H  75  1  0.88956300  0.15331850  0.68565500  1
  H  76  1  0.82996300  0.21170850  0.70718700  1
  H  77  1  0.75577100  0.32277750  0.71451200  1
  H  78  1  0.69507300  0.38231850  0.73597000  1
  H  79  1  0.64388100  0.24083450  0.71050400  1
  H  80  1  0.58279300  0.30115850  0.73184700  1
  H  81  1  0.54534700  0.43837900  0.71852200  1
  H  82  1  0.44333300  0.53881350  0.71900800  1
  H  83  1  0.49481500  0.48365750  0.76357900  1
  H  84  1  0.49509900  0.48178100  0.79051000  1
  H  85  1  0.69708500  0.27786650  0.76148400  1
  H  86  1  0.69798500  0.27602700  0.79087600  1
  H  87  1  0.69893000  0.37373100  0.81774400  1
  H  88  1  0.76351200  0.30336400  0.83731800  1
  H  89  1  0.58322300  0.29573900  0.81958300  1
  H  90  1  0.64667300  0.22637050  0.83939900  1
  H  91  1  0.55333800  0.43375900  0.83502800  1
  H  92  1  0.45314100  0.53602250  0.83546300  1
  H  93  1  0.28908700  0.68679050  0.76322000  1
  H  94  1  0.29147600  0.68644000  0.79257800  1
  H  95  1  0.31451500  0.57419000  0.82296100  1
  H  96  1  0.25325100  0.63950350  0.84366800  1
  H  97  1  0.39658100  0.68496550  0.81680800  1
  H  98  1  0.33606300  0.74990550  0.83760800  1
  H  99  1  0.22372700  0.82564150  0.84413600  1
  H  100  1  0.16651900  0.88944600  0.86528500  1
  H  101  1  0.21256900  0.73041500  0.89199500  1
  H  102  1  0.27091900  0.66656550  0.87089300  1
  H  103  1  0.39238300  0.67917600  0.73396300  1
  H  104  1  0.31811300  0.74657700  0.71540100  1
  H  105  1  0.14159000  0.75903350  0.71915000  1
  H  106  1  0.06245700  0.83504600  0.70329600  1
  H  107  1  0.19725700  0.82555100  0.67214300  1
  H  108  1  0.27682900  0.74818400  0.68797900  1
  H  109  1  0.22444500  0.64539350  0.71892000  1
  H  110  1  0.29826300  0.57872550  0.73760500  1
  H  111  1  0.75347900  0.13595250  0.84084500  1
  H  112  1  0.82651600  0.05974850  0.85772300  1
  H  113  1  0.76699700  0.27454150  0.86542900  1
  H  114  1  0.84198700  0.19756500  0.88218200  1
  H  119  1  0.03925900  0.91724700  0.68414800  1
  H  120  1  0.83123200  0.14315050  0.64826500  1
  H  121  1  0.91319600  0.03314300  0.87467900  1
  H  122  1  0.16170500  0.83754750  0.90388700  1
  H  195  1  0.20220300  0.06652800  0.99469500  1
  H  196  1  0.26181400  0.06681300  0.01617000  1
  H  197  1  0.15742700  0.94765000  0.01913400  1
  H  198  1  0.21572100  0.94911500  0.04065900  1
  H  199  1  0.32685400  0.91232000  0.04799300  1
  H  200  1  0.38634800  0.91370500  0.06943500  1
  H  201  1  0.24467100  0.10615000  0.04374300  1
  H  202  1  0.30494000  0.10714500  0.06507200  1
  H  203  1  0.44216100  0.00755400  0.05185600  1
  H  204  1  0.54252500  0.00927300  0.05232600  1
  H  205  1  0.48743900  0.01294750  0.09690100  1
  H  206  1  0.48565300  0.01441100  0.12382600  1
  H  207  1  0.28178900  0.01615750  0.09482700  1
  H  208  1  0.27994100  0.01718450  0.12421700  1
  H  209  1  0.37749700  0.91876500  0.15114400  1
  H  210  1  0.30707500  0.92457200  0.17069900  1
  H  211  1  0.29960100  0.11245050  0.15283700  1
  H  212  1  0.23018200  0.11838500  0.17263500  1
  H  213  1  0.43753400  0.00452750  0.16836500  1
  H  214  1  0.53976300  0.00253200  0.16879100  1
  H  215  1  0.69050400  0.01567400  0.09651300  1
  H  216  1  0.69018400  0.01365000  0.12587400  1
  H  217  1  0.57787000  0.10289100  0.15619500  1
  H  218  1  0.64309300  0.09888600  0.17692400  1
  H  219  1  0.68876700  0.91006500  0.15020800  1
  H  220  1  0.75362500  0.90568700  0.17102700  1
  H  221  1  0.82928600  0.94238600  0.17754600  1
  H  222  1  0.89299900  0.93590350  0.19871100  1
  H  223  1  0.73386100  0.04871800  0.22530700  1
  H  224  1  0.67010000  0.05410800  0.20418900  1
  H  225  1  0.68298800  0.91990900  0.06738200  1
  H  226  1  0.75027000  0.92675100  0.04877100  1
  H  227  1  0.76230900  0.09118200  0.05221900  1
  H  228  1  0.83832000  0.09418900  0.03634600  1
  H  229  1  0.82936800  0.96811800  0.00546100  1
  H  230  1  0.75196900  0.96605300  0.02131000  1
  H  231  1  0.64887000  0.12161350  0.05203600  1
  H  232  1  0.58233700  0.11449500  0.07077300  1
  H  233  1  0.13972300  0.10203550  0.17405600  1
  H  234  1  0.06344200  0.10522800  0.19090700  1
  H  235  1  0.27818800  0.94992000  0.19879500  1
  H  236  1  0.20113300  0.95194050  0.21552100  1
  H  241  1  0.92053300  0.03532300  0.01731000  1
  H  242  1  0.14768900  0.01529800  0.98162600  1
  H  243  1  0.03681900  0.04501700  0.20788800  1
  H  244  1  0.84106900  0.99245200  0.23725900  1
  H  317  1  0.07081300  0.72268900  0.32801900  1
  H  318  1  0.07132400  0.66243550  0.34948800  1
  H  319  1  0.95175500  0.88593350  0.35244600  1
  H  320  1  0.95344900  0.82581800  0.37396500  1
  H  321  1  0.91691000  0.75115250  0.38126600  1
  H  322  1  0.91855000  0.68998800  0.40272100  1
  H  323  1  0.11078500  0.64004050  0.37707800  1
  H  324  1  0.11204500  0.57848650  0.39842100  1
  H  325  1  0.01287500  0.54051700  0.38518400  1
  H  326  1  0.01475700  0.43835100  0.38567000  1
  H  327  1  0.01796900  0.48964050  0.43024300  1
  H  328  1  0.01985300  0.48961600  0.45717000  1
  H  329  1  0.02095300  0.69222650  0.42812500  1
  H  330  1  0.02193700  0.69288850  0.45751500  1
  H  331  1  0.92350400  0.69350700  0.48435900  1
  H  332  1  0.92898500  0.75799750  0.50394600  1
  H  333  1  0.11716700  0.57779800  0.48629900  1
  H  334  1  0.12277500  0.64113900  0.50613100  1
  H  335  1  0.00938100  0.54753600  0.50169100  1
  H  336  1  0.00761500  0.44718150  0.50212800  1
  H  337  1  0.02105400  0.28368250  0.42989700  1
  H  338  1  0.01906500  0.28582800  0.45925600  1
  H  339  1  0.10809800  0.30856200  0.48959900  1
  H  340  1  0.10383700  0.24720300  0.51031100  1
  H  341  1  0.91524200  0.39100050  0.48348800  1
  H  342  1  0.91061200  0.33039550  0.50428900  1
  H  343  1  0.94709200  0.21796600  0.51076500  1
  H  344  1  0.94020200  0.16067300  0.53190500  1
  H  345  1  0.05307800  0.20634350  0.55864900  1
  H  346  1  0.05886800  0.26478950  0.53755400  1
  H  347  1  0.92512100  0.38746050  0.40070400  1
  H  348  1  0.93172900  0.31360300  0.38210600  1
  H  349  1  0.09601500  0.13681650  0.38557300  1
  H  350  1  0.09881100  0.05811000  0.36968200  1
  H  351  1  0.97265700  0.19370350  0.33881100  1
  H  352  1  0.97080800  0.27285700  0.35467700  1
  H  353  1  0.12660900  0.21966300  0.38543900  1
  H  354  1  0.11971300  0.29305500  0.40416700  1
  H  355  1  0.10648300  0.74782700  0.50763500  1
  H  356  1  0.10940400  0.82073550  0.52453300  1
  H  357  1  0.95369200  0.76159100  0.53204600  1
  H  358  1  0.95544200  0.83648500  0.54881700  1
  H  363  1  0.03974000  0.03516750  0.35064100  1
  H  364  1  0.01930000  0.82864050  0.31495300  1
  H  365  1  0.04890500  0.90751700  0.54140000  1
  H  366  1  0.99637700  0.15566550  0.57051900  1
  N  4  1  0.49530500  0.48534150  0.75251100  1
  N  8  1  0.58383300  0.39699200  0.77662000  1
  N  14  1  0.49767100  0.48320050  0.80154600  1
  N  20  1  0.40944500  0.57172850  0.77744500  1
  N  126  1  0.48911300  0.01076850  0.08583400  1
  N  130  1  0.40082200  0.01052600  0.10995600  1
  N  136  1  0.48696700  0.01067600  0.13487000  1
  N  142  1  0.57547600  0.01035000  0.11075600  1
  N  248  1  0.01609500  0.49007450  0.41917200  1
  N  252  1  0.01554500  0.57861150  0.44328700  1
  N  258  1  0.01583900  0.49209750  0.46820700  1
  N  264  1  0.01575900  0.40393450  0.44410100  1
  N  368  1  0.96437700  0.03833950  0.91643400  1
  N  370  1  0.06252500  0.94892650  0.91549900  1
  N  372  1  0.00647500  0.99083950  0.89286100  1
  N  373  1  0.90933800  0.07993200  0.89332400  1
  N  374  1  0.09971200  0.90449600  0.89070200  1
  N  375  1  0.02348700  0.99356650  0.93900900  1
  N  377  1  0.04186300  0.98922100  0.24976600  1
  N  379  1  0.95239600  0.98056250  0.24887500  1
  N  381  1  0.99427000  0.99460000  0.22620500  1
  N  382  1  0.08342900  0.00255050  0.22663100  1
  N  383  1  0.90789400  0.98777500  0.22408100  1
  N  384  1  0.99718700  0.97493600  0.27237400  1
  N  386  1  0.99204900  0.95880100  0.58313400  1
  N  388  1  0.98361300  0.05682500  0.58213200  1
  N  390  1  0.99797600  0.00069350  0.55953600  1
  N  391  1  0.00580700  0.90364600  0.56004800  1
  N  392  1  0.99147900  0.09377550  0.55733100  1
  N  393  1  0.97757400  0.01809100  0.60566300  1
  N  395  1  0.01497200  0.94193550  0.30409100  1
  N  397  1  0.02346300  0.03142100  0.30572400  1
  N  399  1  0.01863500  0.98231600  0.32810800  1
  N  400  1  0.01170100  0.89635150  0.32821400  1
  N  401  1  0.02659000  0.07173750  0.32978400  1
  N  402  1  0.01974800  0.99452300  0.28181500  1
  N  404  1  0.03870100  0.01110200  0.97073900  1
  N  406  1  0.94075700  0.01948700  0.97239000  1
  N  408  1  0.99459100  0.01449400  0.99476400  1
  N  409  1  0.08744100  0.00762950  0.99486500  1
  N  410  1  0.89726200  0.02231100  0.99645100  1
  N  411  1  0.98137400  0.01601250  0.94847700  1
  N  413  1  0.94457500  0.03395550  0.63739400  1
  N  415  1  0.03413300  0.93604450  0.63914100  1
  N  417  1  0.98535700  0.99037650  0.66146000  1
  N  418  1  0.89942400  0.08324150  0.66148200  1
  N  419  1  0.07490500  0.89309050  0.66323100  1
  N  420  1  0.99706800  0.97613650  0.61519100  1
