# generated using pymatgen
data_Rb3H13C14(SO7)2
_symmetry_space_group_name_H-M   'P 1'
_cell_length_a   7.24739000
_cell_length_b   14.86489000
_cell_length_c   23.07115000
_cell_angle_alpha   90.02140000
_cell_angle_beta   90.07865000
_cell_angle_gamma   84.40443000
_symmetry_Int_Tables_number   1
_chemical_formula_structural   Rb3H13C14(SO7)2
_chemical_formula_sum   'Rb12 H52 C56 S8 O56'
_cell_volume   2473.64725383
_cell_formula_units_Z   4
loop_
 _symmetry_equiv_pos_site_id
 _symmetry_equiv_pos_as_xyz
  1  'x, y, z'
loop_
 _atom_site_type_symbol
 _atom_site_label
 _atom_site_symmetry_multiplicity
 _atom_site_fract_x
 _atom_site_fract_y
 _atom_site_fract_z
 _atom_site_occupancy
  Rb  Rb0  1  0.29051000  0.99395000  0.56610000  1
  Rb  Rb1  1  0.40398000  0.77524000  0.96493000  1
  Rb  Rb2  1  0.99885000  0.39144000  0.87388000  1
  Rb  Rb3  1  0.20971000  0.00775000  0.06657000  1
  Rb  Rb4  1  0.09561000  0.22470000  0.46487000  1
  Rb  Rb5  1  0.50299000  0.60830000  0.37504000  1
  Rb  Rb6  1  0.70948000  0.00606000  0.43390000  1
  Rb  Rb7  1  0.59602000  0.22476000  0.03508000  1
  Rb  Rb8  1  0.00115000  0.60857000  0.12612000  1
  Rb  Rb9  1  0.79028000  0.99226000  0.93343000  1
  Rb  Rb10  1  0.90439000  0.77530000  0.53513000  1
  Rb  Rb11  1  0.49700000  0.39170000  0.62497000  1
  H  H12  1  0.22642000  0.16731000  0.66063000  1
  H  H13  1  0.34096000  0.60138000  0.85499000  1
  H  H14  1  0.52504000  0.85523000  0.71307000  1
  H  H15  1  0.27969000  0.22110000  0.84832000  1
  H  H16  1  0.32802000  0.60380000  0.66203000  1
  H  H17  1  0.99076000  0.79821000  0.04320000  1
  H  H18  1  0.01807000  0.71882000  0.99921000  1
  H  H19  1  0.40852000  0.41362000  0.86659000  1
  H  H20  1  0.52860000  0.32380000  0.87297000  1
  H  H21  1  0.24184000  0.40770000  0.74628000  1
  H  H22  1  0.21969000  0.94962000  0.72606000  1
  H  H23  1  0.50849000  0.81047000  0.81748000  1
  H  H24  1  0.25210000  0.93413000  0.83403000  1
  H  H25  1  0.27399000  0.83276000  0.16058000  1
  H  H26  1  0.16321000  0.40142000  0.35556000  1
  H  H27  1  0.97358000  0.14616000  0.21523000  1
  H  H28  1  0.22226000  0.77879000  0.34827000  1
  H  H29  1  0.17309000  0.39634000  0.16284000  1
  H  H30  1  0.50892000  0.20097000  0.54361000  1
  H  H31  1  0.48423000  0.28018000  0.49956000  1
  H  H32  1  0.09281000  0.58647000  0.36519000  1
  H  H33  1  0.96990000  0.67583000  0.37170000  1
  H  H34  1  0.26788000  0.59258000  0.24634000  1
  H  H35  1  0.27932000  0.05049000  0.22609000  1
  H  H36  1  0.99141000  0.19203000  0.31907000  1
  H  H37  1  0.24670000  0.06600000  0.33400000  1
  H  H38  1  0.77358000  0.83269000  0.33937000  1
  H  H39  1  0.65904000  0.39862000  0.14501000  1
  H  H40  1  0.47496000  0.14477000  0.28693000  1
  H  H41  1  0.72031000  0.77891000  0.15168000  1
  H  H42  1  0.67198000  0.39620000  0.33797000  1
  H  H43  1  0.00924000  0.20179000  0.95681000  1
  H  H44  1  0.98193000  0.28119000  0.00080000  1
  H  H45  1  0.59148000  0.58638000  0.13340000  1
  H  H46  1  0.47140000  0.67620000  0.12702000  1
  H  H47  1  0.75815000  0.59230000  0.25373000  1
  H  H48  1  0.78031000  0.05039000  0.27394000  1
  H  H49  1  0.49151000  0.18953000  0.18252000  1
  H  H50  1  0.74790000  0.06588000  0.16597000  1
  H  H51  1  0.72600000  0.16725000  0.83943000  1
  H  H52  1  0.83679000  0.59858000  0.64444000  1
  H  H53  1  0.02641000  0.85385000  0.78478000  1
  H  H54  1  0.77773000  0.22122000  0.65174000  1
  H  H55  1  0.82691000  0.60367000  0.83717000  1
  H  H56  1  0.49108000  0.79904000  0.45639000  1
  H  H57  1  0.51577000  0.71982000  0.50044000  1
  H  H58  1  0.90718000  0.41354000  0.63481000  1
  H  H59  1  0.03009000  0.32417000  0.62830000  1
  H  H60  1  0.73212000  0.40742000  0.75367000  1
  H  H61  1  0.72067000  0.94951000  0.77391000  1
  H  H62  1  0.00858000  0.80798000  0.68094000  1
  H  H63  1  0.75330000  0.93401000  0.66600000  1
  C  C64  1  0.23786000  0.17204000  0.76188000  1
  C  C65  1  0.35855000  0.62276000  0.75416000  1
  C  C66  1  0.22975000  0.09369000  0.72711000  1
  C  C67  1  0.40336000  0.68384000  0.79819000  1
  C  C68  1  0.23049000  0.00852000  0.75345000  1
  C  C69  1  0.46541000  0.76712000  0.78296000  1
  C  C70  1  0.24884000  0.00000000  0.81323000  1
  C  C71  1  0.47656000  0.79087000  0.72507000  1
  C  C72  1  0.26756000  0.07689000  0.84730000  1
  C  C73  1  0.42541000  0.73224000  0.68132000  1
  C  C74  1  0.26063000  0.16200000  0.82194000  1
  C  C75  1  0.36863000  0.64884000  0.69583000  1
  C  C76  1  0.22669000  0.26250000  0.73459000  1
  C  C77  1  0.30418000  0.53342000  0.77027000  1
  C  C78  1  0.26376000  0.82792000  0.26190000  1
  C  C79  1  0.14382000  0.37838000  0.25493000  1
  C  C80  1  0.27031000  0.90634000  0.22712000  1
  C  C81  1  0.09712000  0.31852000  0.29940000  1
  C  C82  1  0.26886000  0.99156000  0.25346000  1
  C  C83  1  0.03436000  0.23520000  0.28448000  1
  C  C84  1  0.25022000  0.00009000  0.31322000  1
  C  C85  1  0.02244000  0.21071000  0.22663000  1
  C  C86  1  0.23235000  0.92313000  0.34728000  1
  C  C87  1  0.07304000  0.26860000  0.18248000  1
  C  C88  1  0.24076000  0.83796000  0.32192000  1
  C  C89  1  0.13167000  0.35182000  0.19674000  1
  C  C90  1  0.27689000  0.73747000  0.23457000  1
  C  C91  1  0.20341000  0.46699000  0.27045000  1
  C  C92  1  0.76214000  0.82796000  0.23812000  1
  C  C93  1  0.64145000  0.37724000  0.24584000  1
  C  C94  1  0.77025000  0.90632000  0.27289000  1
  C  C95  1  0.59663000  0.31616000  0.20182000  1
  C  C96  1  0.76950000  0.99148000  0.24655000  1
  C  C97  1  0.53458000  0.23288000  0.21704000  1
  C  C98  1  0.75116000  0.00000000  0.18678000  1
  C  C99  1  0.52344000  0.20913000  0.27494000  1
  C  C100  1  0.73244000  0.92312000  0.15270000  1
  C  C101  1  0.57458000  0.26776000  0.31869000  1
  C  C102  1  0.73937000  0.83801000  0.17806000  1
  C  C103  1  0.63137000  0.35117000  0.30417000  1
  C  C104  1  0.77330000  0.73750000  0.26541000  1
  C  C105  1  0.69581000  0.46659000  0.22973000  1
  C  C106  1  0.73623000  0.17208000  0.73810000  1
  C  C107  1  0.85618000  0.62162000  0.74507000  1
  C  C108  1  0.72969000  0.09367000  0.77289000  1
  C  C109  1  0.90288000  0.68149000  0.70060000  1
  C  C110  1  0.73114000  0.00845000  0.74654000  1
  C  C111  1  0.96564000  0.76480000  0.71553000  1
  C  C112  1  0.74977000  0.99992000  0.68679000  1
  C  C113  1  0.97756000  0.78929000  0.77337000  1
  C  C114  1  0.76765000  0.07687000  0.65273000  1
  C  C115  1  0.92696000  0.73140000  0.81752000  1
  C  C116  1  0.75924000  0.16205000  0.67808000  1
  C  C117  1  0.86832000  0.64818000  0.80326000  1
  C  C118  1  0.72310000  0.26254000  0.76544000  1
  C  C119  1  0.79659000  0.53302000  0.72956000  1
  S  S120  1  0.30486000  0.06720000  0.92316000  1
  S  S121  1  0.41584000  0.76921000  0.60814000  1
  S  S122  1  0.19509000  0.93280000  0.42312000  1
  S  S123  1  0.08153000  0.23196000  0.10909000  1
  S  S124  1  0.69514000  0.93281000  0.07685000  1
  S  S125  1  0.58415000  0.23080000  0.39186000  1
  S  S126  1  0.80491000  0.06720000  0.57688000  1
  S  S127  1  0.91846000  0.76804000  0.89091000  1
  O  O128  1  0.06439000  0.73929000  0.03693000  1
  O  O129  1  0.22270000  0.09991000  0.66884000  1
  O  O130  1  0.38937000  0.66330000  0.85488000  1
  O  O131  1  0.43584000  0.36362000  0.89395000  1
  O  O132  1  0.37261000  0.97172000  0.93464000  1
  O  O133  1  0.55580000  0.83531000  0.60254000  1
  O  O134  1  0.44069000  0.13192000  0.93757000  1
  O  O135  1  0.22370000  0.81323000  0.60011000  1
  O  O136  1  0.11988000  0.09114000  0.95131000  1
  O  O137  1  0.45414000  0.68676000  0.57172000  1
  O  O138  1  0.21255000  0.33184000  0.76854000  1
  O  O139  1  0.27710000  0.47700000  0.72842000  1
  O  O140  1  0.23126000  0.26847000  0.67927000  1
  O  O141  1  0.28594000  0.51336000  0.82347000  1
  O  O142  1  0.43555000  0.25989000  0.53698000  1
  O  O143  1  0.27733000  0.90013000  0.16885000  1
  O  O144  1  0.11028000  0.34048000  0.35603000  1
  O  O145  1  0.06432000  0.63651000  0.39236000  1
  O  O146  1  0.12730000  0.02821000  0.43464000  1
  O  O147  1  0.94492000  0.16422000  0.10308000  1
  O  O148  1  0.05963000  0.86793000  0.43750000  1
  O  O149  1  0.27533000  0.19067000  0.10035000  1
  O  O150  1  0.38020000  0.90890000  0.45134000  1
  O  O151  1  0.03692000  0.31447000  0.07333000  1
  O  O152  1  0.29639000  0.66809000  0.26848000  1
  O  O153  1  0.23164000  0.52284000  0.22848000  1
  O  O154  1  0.26874000  0.73149000  0.17932000  1
  O  O155  1  0.22494000  0.48687000  0.32360000  1
  O  O156  1  0.93560000  0.26072000  0.96308000  1
  O  O157  1  0.77729000  0.90009000  0.33117000  1
  O  O158  1  0.61062000  0.33670000  0.14512000  1
  O  O159  1  0.56416000  0.63639000  0.10605000  1
  O  O160  1  0.62739000  0.02829000  0.06537000  1
  O  O161  1  0.44419000  0.16469000  0.39746000  1
  O  O162  1  0.55931000  0.86809000  0.06243000  1
  O  O163  1  0.77630000  0.18677000  0.39989000  1
  O  O164  1  0.88011000  0.90886000  0.04869000  1
  O  O165  1  0.54585000  0.31325000  0.42828000  1
  O  O166  1  0.78745000  0.66817000  0.23147000  1
  O  O167  1  0.72289000  0.52300000  0.27158000  1
  O  O168  1  0.76874000  0.73153000  0.32073000  1
  O  O169  1  0.71406000  0.48664000  0.17653000  1
  O  O170  1  0.56445000  0.74012000  0.46303000  1
  O  O171  1  0.72267000  0.09988000  0.83115000  1
  O  O172  1  0.88971000  0.65953000  0.64397000  1
  O  O173  1  0.93568000  0.36350000  0.60764000  1
  O  O174  1  0.87270000  0.97179000  0.56537000  1
  O  O175  1  0.05507000  0.83578000  0.89692000  1
  O  O176  1  0.94036000  0.13207000  0.56250000  1
  O  O177  1  0.72467000  0.80933000  0.89965000  1
  O  O178  1  0.61980000  0.09111000  0.54867000  1
  O  O179  1  0.96307000  0.68554000  0.92667000  1
  O  O180  1  0.70360000  0.33191000  0.73152000  1
  O  O181  1  0.76836000  0.47716000  0.77152000  1
  O  O182  1  0.73126000  0.26851000  0.82068000  1
  O  O183  1  0.77506000  0.51313000  0.67640000  1
