# generated using pymatgen
data_Cr3H17C31SO16F
_symmetry_space_group_name_H-M   'P 1'
_cell_length_a   11.26083174
_cell_length_b   11.26042000
_cell_length_c   18.39758000
_cell_angle_alpha   89.90416000
_cell_angle_beta   89.55822204
_cell_angle_gamma   119.96724548
_symmetry_Int_Tables_number   1
_chemical_formula_structural   Cr3H17C31SO16F
_chemical_formula_sum   'Cr6 H34 C62 S2 O32 F2'
_cell_volume   2020.86776959
_cell_formula_units_Z   2
loop_
 _symmetry_equiv_pos_site_id
 _symmetry_equiv_pos_as_xyz
  1  'x, y, z'
loop_
 _atom_site_type_symbol
 _atom_site_label
 _atom_site_symmetry_multiplicity
 _atom_site_fract_x
 _atom_site_fract_y
 _atom_site_fract_z
 _atom_site_occupancy
  C  C0  1  0.53250000  0.65162000  0.85029000  1
  C  C1  1  0.00208000  0.98070000  0.96121500  1
  C  C2  1  0.45978000  0.73611000  0.43958000  1
  C  C3  1  0.53994000  0.65192000  0.64968000  1
  C  C4  1  0.46046000  0.11107000  0.35027000  1
  C  C5  1  0.93860000  0.62602000  0.64849000  1
  C  C6  1  0.06714000  0.69059000  0.35384000  1
  C  C7  1  0.54334000  0.29057000  0.63855000  1
  C  C8  1  0.99868000  0.97936000  0.03660500  1
  C  C9  1  0.45530000  0.74959000  0.36115000  1
  C  C10  1  0.00254000  0.66136000  0.07584000  1
  C  C11  1  0.99829000  0.65873500  0.92389000  1
  C  C12  1  0.99827000  0.76683500  0.03796000  1
  C  C13  1  0.00412000  0.76944000  0.96123000  1
  C  C14  1  0.00474000  0.55579000  0.96287000  1
  C  C15  1  0.99460000  0.55103000  0.03735000  1
  C  C16  1  0.53980000  0.23664000  0.09432000  1
  C  C17  1  0.46048000  0.69698000  0.90566000  1
  C  C18  1  0.65862000  0.27006000  0.05357000  1
  C  C19  1  0.34146000  0.61205000  0.94641000  1
  C  C20  1  0.46751000  0.11919500  0.14972000  1
  C  C21  1  0.66766000  0.30346000  0.97858000  1
  C  C22  1  0.33242000  0.63637000  0.02137000  1
  C  C23  1  0.45730000  0.30100000  0.99047000  1
  C  C24  1  0.54340000  0.84345000  0.00946000  1
  C  C25  1  0.47228000  0.30118500  0.06736000  1
  C  C26  1  0.52864000  0.82888000  0.93257000  1
  C  C27  1  0.72108000  0.18619000  0.04208000  1
  C  C28  1  0.27848000  0.46575000  0.95807000  1
  C  C29  1  0.72766000  0.21592000  0.96170000  1
  C  C30  1  0.27164000  0.48875000  0.03839000  1
  C  C31  1  0.55724000  0.30190000  0.94288000  1
  C  C32  1  0.44310000  0.74470000  0.05707000  1
  C  C33  1  0.93750000  0.62304000  0.85194000  1
  C  C34  1  0.06268000  0.68581000  0.14797000  1
  C  C35  1  0.02855000  0.67885500  0.42943000  1
  C  C36  1  0.98997000  0.87114500  0.07466000  1
  C  C37  1  0.01444000  0.67157000  0.58096000  1
  C  C38  1  0.04472000  0.58309000  0.46908000  1
  C  C39  1  0.04288000  0.58080000  0.54293000  1
  C  C40  1  0.02382000  0.78521000  0.54335000  1
  C  C41  1  0.02668000  0.78673000  0.46730000  1
  C  C42  1  0.01272000  0.88181000  0.92390000  1
  C  C43  1  0.97740000  0.43183000  0.46082000  1
  C  C44  1  0.97776000  0.42669000  0.54272000  1
  C  C45  1  0.51144000  0.19439000  0.41466000  1
  C  C46  1  0.49414000  0.69509000  0.58621000  1
  C  C47  1  0.44664000  0.26262000  0.44376000  1
  C  C48  1  0.58744000  0.81678000  0.55004000  1
  C  C49  1  0.46010000  0.29624000  0.51649000  1
  C  C50  1  0.57036000  0.83702000  0.47807000  1
  C  C51  1  0.61586000  0.20969000  0.53095000  1
  C  C52  1  0.35370000  0.62654500  0.47869000  1
  C  C53  1  0.60656000  0.18076000  0.45729000  1
  C  C54  1  0.36899000  0.60863500  0.55283000  1
  C  C55  1  0.29890000  0.22497000  0.44384000  1
  C  C56  1  0.73962000  0.88120000  0.54068000  1
  C  C57  1  0.54586000  0.29525000  0.86037000  1
  C  C58  1  0.45422000  0.74941000  0.13959000  1
  C  C59  1  0.31294000  0.25769000  0.52384000  1
  C  C60  1  0.72080000  0.90215000  0.46177000  1
  C  C61  1  0.53760000  0.26245000  0.56177000  1
  Cr  Cr62  1  0.45598000  0.39766000  0.74991000  1
  Cr  Cr63  1  0.23342000  0.62747000  0.25084000  1
  Cr  Cr64  1  0.76658000  0.39405000  0.74916000  1
  Cr  Cr65  1  0.54402000  0.94168000  0.25009000  1
  Cr  Cr66  1  0.77000000  0.70826000  0.75074000  1
  Cr  Cr67  1  0.23000000  0.93826000  0.24926000  1
  F  F68  1  0.01790000  0.88737000  0.57927000  1
  F  F69  1  0.02050000  0.88872000  0.43134000  1
  H  H70  1  0.00902000  0.47357000  0.93546000  1
  H  H71  1  0.04676000  0.39132000  0.56435000  1
  H  H72  1  0.87344000  0.38805000  0.43735000  1
  H  H73  1  0.67564000  0.18010000  0.56429000  1
  H  H74  1  0.26522000  0.54923000  0.45085000  1
  H  H75  1  0.66124000  0.13223500  0.43616000  1
  H  H76  1  0.28992000  0.52077000  0.58177000  1
  H  H77  1  0.98897000  0.46407500  0.06515000  1
  H  H78  1  0.22702000  0.11494500  0.43388000  1
  H  H79  1  0.77578000  0.80662000  0.54820000  1
  H  H80  1  0.28112000  0.29712500  0.41062000  1
  H  H81  1  0.79668000  0.97868000  0.57121000  1
  H  H82  1  0.29933000  0.34550500  0.53673000  1
  H  H83  1  0.76956000  0.01191000  0.44630000  1
  H  H84  1  0.25236000  0.16558000  0.55873000  1
  H  H85  1  0.74648000  0.83937000  0.42524000  1
  H  H86  1  0.96558000  0.86625500  0.13180500  1
  H  H87  1  0.03752000  0.90084000  0.86673500  1
  H  H88  1  0.99460000  0.06035000  0.06558000  1
  H  H89  1  0.00460000  0.06466500  0.93168500  1
  H  H90  1  0.39712000  0.30242000  0.10372000  1
  H  H91  1  0.60413000  0.90510500  0.89623000  1
  H  H92  1  0.64182000  0.08264000  0.05715000  1
  H  H93  1  0.04342000  0.39649000  0.43481000  1
  H  H94  1  0.35774000  0.44140000  0.94320000  1
  H  H95  1  0.82248000  0.22918000  0.06855000  1
  H  H96  1  0.17720000  0.40773000  0.93145000  1
  H  H97  1  0.83296000  0.27159000  0.93949000  1
  H  H98  1  0.16626000  0.43967000  0.06042000  1
  H  H99  1  0.87321000  0.37252000  0.56551000  1
  H  H100  1  0.65650000  0.12524000  0.92938000  1
  H  H101  1  0.34230000  0.46859000  0.07093000  1
  H  H102  1  0.19376000  0.13507000  0.86290000  1
  H  H103  1  0.80733000  0.94017000  0.13710000  1
  O  O104  1  0.42496000  0.25529000  0.82956000  1
  O  O105  1  0.09190000  0.59716000  0.33086000  1
  O  O106  1  0.90810000  0.50526000  0.66914000  1
  O  O107  1  0.63722000  0.27809000  0.67449000  1
  O  O108  1  0.36278000  0.64087000  0.32551000  1
  O  O109  1  0.66420000  0.50000000  0.74994000  1
  O  O110  1  0.33580000  0.83580000  0.25006000  1
  O  O111  1  0.57504000  0.83033000  0.17044000  1
  O  O112  1  0.46872000  0.52646000  0.82498000  1
  O  O113  1  0.53128000  0.05774000  0.17502000  1
  O  O114  1  0.65962000  0.73865000  0.83146000  1
  O  O115  1  0.34038000  0.07903000  0.16854000  1
  O  O116  1  0.88676000  0.69479000  0.82484000  1
  O  O117  1  0.11324000  0.80803000  0.17516000  1
  O  O118  1  0.90808000  0.50366000  0.82968000  1
  O  O119  1  0.09192000  0.59558000  0.17032000  1
  O  O120  1  0.63722000  0.27662000  0.82331000  1
  O  O121  1  0.36278000  0.63940000  0.17669000  1
  O  O122  1  0.42498000  0.25688000  0.66903000  1
  O  O123  1  0.57502000  0.83190000  0.33097000  1
  O  O124  1  0.46874000  0.52794000  0.67616000  1
  O  O125  1  0.53126000  0.05920000  0.32384000  1
  O  O126  1  0.65962000  0.74023000  0.67092000  1
  O  O127  1  0.88678000  0.69627000  0.67602000  1
  O  O128  1  0.34038000  0.08061000  0.32908000  1
  O  O129  1  0.27238000  0.05422000  0.97352000  1
  O  O130  1  0.21138000  0.21590000  0.03026000  1
  O  O131  1  0.22680000  0.21995000  0.89158000  1
  O  O132  1  0.72856000  0.78161000  0.02657500  1
  O  O133  1  0.78928000  0.00463000  0.97005000  1
  O  O134  1  0.77388000  0.99207000  0.10863500  1
  O  O135  1  0.11322000  0.80949000  0.32398000  1
  S  S136  1  0.28870000  0.19503000  0.97001000  1
  S  S137  1  0.71192000  0.90591000  0.03017500  1
