# generated using pymatgen
data_Ca5H66(C54O13)2
_symmetry_space_group_name_H-M   'P 1'
_cell_length_a   15.96168000
_cell_length_b   18.81344000
_cell_length_c   26.96328000
_cell_angle_alpha   89.98183000
_cell_angle_beta   89.99415000
_cell_angle_gamma   110.52763000
_symmetry_Int_Tables_number   1
_chemical_formula_structural   Ca5H66(C54O13)2
_chemical_formula_sum   'Ca10 H132 C216 O52'
_cell_volume   7582.78541284
_cell_formula_units_Z   2
loop_
 _symmetry_equiv_pos_site_id
 _symmetry_equiv_pos_as_xyz
  1  'x, y, z'
loop_
 _atom_site_type_symbol
 _atom_site_label
 _atom_site_symmetry_multiplicity
 _atom_site_fract_x
 _atom_site_fract_y
 _atom_site_fract_z
 _atom_site_occupancy
  Ca  Ca0  1  0.04071000  0.02001000  0.56996000  1
  Ca  Ca1  1  0.72599000  0.55673000  0.05619000  1
  Ca  Ca2  1  0.95806000  0.47810000  0.06961000  1
  Ca  Ca3  1  0.27427000  0.94229000  0.55772000  1
  Ca  Ca4  1  0.95929000  0.97998000  0.43003000  1
  Ca  Ca5  1  0.27400000  0.44326000  0.94381000  1
  Ca  Ca6  1  0.04193000  0.52190000  0.93039000  1
  Ca  Ca7  1  0.72573000  0.05771000  0.44228000  1
  Ca  Ca8  1  0.50000000  0.50000000  0.00000000  1
  Ca  Ca9  1  0.50000000  0.00000000  0.50000000  1
  H  H10  1  0.87331000  0.02557000  0.52161000  1
  H  H11  1  0.94428000  0.08280000  0.48663000  1
  H  H12  1  0.09755000  0.12282000  0.66814000  1
  H  H13  1  0.60917000  0.15459000  0.67705000  1
  H  H14  1  0.77609000  0.30018000  0.78756000  1
  H  H15  1  0.49672000  0.26910000  0.78149000  1
  H  H16  1  0.37239000  0.17864000  0.76273000  1
  H  H17  1  0.22936000  0.11926000  0.71801000  1
  H  H18  1  0.37416000  0.10120000  0.58661000  1
  H  H19  1  0.51557000  0.15948000  0.63066000  1
  H  H20  1  0.72997000  0.19443000  0.63313000  1
  H  H21  1  0.84983000  0.15092000  0.60176000  1
  H  H22  1  0.96955000  0.18285000  0.74704000  1
  H  H23  1  0.84614000  0.21994000  0.77961000  1
  H  H24  1  0.77965000  0.41316000  0.81419000  1
  H  H25  1  0.80318000  0.48797000  0.89161000  1
  H  H26  1  0.54226000  0.34775000  0.94305000  1
  H  H27  1  0.51971000  0.27088000  0.86609000  1
  H  H28  1  0.80244000  0.00146000  0.91692000  1
  H  H29  1  0.70193000  0.09585000  0.79540000  1
  H  H30  1  0.61051000  0.85385000  0.81573000  1
  H  H31  1  0.56213000  0.79697000  0.89537000  1
  H  H32  1  0.55909000  0.69074000  0.95141000  1
  H  H33  1  0.84302000  0.79060000  0.97100000  1
  H  H34  1  0.84746000  0.89598000  0.91350000  1
  H  H35  1  0.93844000  0.11606000  0.87827000  1
  H  H36  1  0.02707000  0.25031000  0.90215000  1
  H  H37  1  0.78854000  0.30596000  0.89611000  1
  H  H38  1  0.69968000  0.17264000  0.87192000  1
  H  H39  1  0.70818000  0.04392000  0.71374000  1
  H  H40  1  0.61937000  0.04041000  0.63720000  1
  H  H41  1  0.38431000  0.88965000  0.70818000  1
  H  H42  1  0.47325000  0.88889000  0.78462000  1
  H  H43  1  0.12831000  0.47463000  0.02259000  1
  H  H44  1  0.05873000  0.41844000  0.98657000  1
  H  H45  1  0.89903000  0.37154000  0.16603000  1
  H  H46  1  0.38941000  0.34538000  0.17977000  1
  H  H47  1  0.22291000  0.19906000  0.29022000  1
  H  H48  1  0.50148000  0.22758000  0.28204000  1
  H  H49  1  0.62653000  0.31552000  0.26186000  1
  H  H50  1  0.76845000  0.37372000  0.21611000  1
  H  H51  1  0.62116000  0.39593000  0.08671000  1
  H  H52  1  0.48059000  0.33889000  0.13207000  1
  H  H53  1  0.27104000  0.30593000  0.13588000  1
  H  H54  1  0.15267000  0.35021000  0.10346000  1
  H  H55  1  0.02703000  0.31468000  0.24726000  1
  H  H56  1  0.14986000  0.27792000  0.28115000  1
  H  H57  1  0.21917000  0.08573000  0.31643000  1
  H  H58  1  0.19621000  0.01113000  0.39411000  1
  H  H59  1  0.45840000  0.14998000  0.44424000  1
  H  H60  1  0.48080000  0.22660000  0.36712000  1
  H  H61  1  0.19955000  0.50071000  0.41640000  1
  H  H62  1  0.29886000  0.40714000  0.29410000  1
  H  H63  1  0.39278000  0.64889000  0.31599000  1
  H  H64  1  0.44062000  0.70613000  0.39542000  1
  H  H65  1  0.44307000  0.81113000  0.45240000  1
  H  H66  1  0.15974000  0.70899000  0.47312000  1
  H  H67  1  0.15555000  0.60501000  0.41459000  1
  H  H68  1  0.06289000  0.38718000  0.37803000  1
  H  H69  1  0.97467000  0.25375000  0.40392000  1
  H  H70  1  0.21165000  0.19647000  0.39543000  1
  H  H71  1  0.30043000  0.32918000  0.36959000  1
  H  H72  1  0.29498000  0.45825000  0.21342000  1
  H  H73  1  0.38396000  0.46136000  0.13719000  1
  H  H74  1  0.61829000  0.61390000  0.20795000  1
  H  H75  1  0.52882000  0.61478000  0.28408000  1
  H  H76  1  0.12669000  0.97442000  0.47839000  1
  H  H77  1  0.05572000  0.91719000  0.51337000  1
  H  H78  1  0.90245000  0.87718000  0.33185000  1
  H  H79  1  0.39083000  0.84540000  0.32295000  1
  H  H80  1  0.22390000  0.69981000  0.21244000  1
  H  H81  1  0.50327000  0.73089000  0.21851000  1
  H  H82  1  0.62761000  0.82135000  0.23727000  1
  H  H83  1  0.77063000  0.88074000  0.28199000  1
  H  H84  1  0.62584000  0.89879000  0.41339000  1
  H  H85  1  0.48443000  0.84051000  0.36934000  1
  H  H86  1  0.27002000  0.80556000  0.36687000  1
  H  H87  1  0.15016000  0.84908000  0.39824000  1
  H  H88  1  0.03045000  0.81715000  0.25295000  1
  H  H89  1  0.15386000  0.78006000  0.22038000  1
  H  H90  1  0.22034000  0.58684000  0.18581000  1
  H  H91  1  0.19681000  0.51203000  0.10839000  1
  H  H92  1  0.45774000  0.65224000  0.05695000  1
  H  H93  1  0.48029000  0.72911000  0.13391000  1
  H  H94  1  0.19755000  0.99854000  0.08308000  1
  H  H95  1  0.29806000  0.90415000  0.20460000  1
  H  H96  1  0.38949000  0.14615000  0.18427000  1
  H  H97  1  0.43787000  0.20303000  0.10463000  1
  H  H98  1  0.44090000  0.30925000  0.04859000  1
  H  H99  1  0.15698000  0.20940000  0.02900000  1
  H  H100  1  0.15253000  0.10402000  0.08650000  1
  H  H101  1  0.06156000  0.88394000  0.12172000  1
  H  H102  1  0.97292000  0.74969000  0.09785000  1
  H  H103  1  0.21145000  0.69404000  0.10389000  1
  H  H104  1  0.30032000  0.82735000  0.12808000  1
  H  H105  1  0.29182000  0.95608000  0.28626000  1
  H  H106  1  0.38063000  0.95959000  0.36280000  1
  H  H107  1  0.61569000  0.11035000  0.29182000  1
  H  H108  1  0.52675000  0.11110000  0.21538000  1
  H  H109  1  0.87168000  0.52537000  0.97740000  1
  H  H110  1  0.94127000  0.58156000  0.01343000  1
  H  H111  1  0.10097000  0.62845000  0.83396000  1
  H  H112  1  0.61059000  0.65461000  0.82023000  1
  H  H113  1  0.77709000  0.80094000  0.70978000  1
  H  H114  1  0.49852000  0.77242000  0.71796000  1
  H  H115  1  0.37347000  0.68448000  0.73814000  1
  H  H116  1  0.23154000  0.62627000  0.78389000  1
  H  H117  1  0.37883000  0.60407000  0.91329000  1
  H  H118  1  0.51941000  0.66111000  0.86793000  1
  H  H119  1  0.72895000  0.69407000  0.86412000  1
  H  H120  1  0.84733000  0.64979000  0.89654000  1
  H  H121  1  0.97297000  0.68532000  0.75274000  1
  H  H122  1  0.85014000  0.72208000  0.71885000  1
  H  H123  1  0.78083000  0.91427000  0.68357000  1
  H  H124  1  0.80379000  0.98886000  0.60589000  1
  H  H125  1  0.54159000  0.85002000  0.55575000  1
  H  H126  1  0.51919000  0.77340000  0.63288000  1
  H  H127  1  0.80045000  0.49929000  0.58359000  1
  H  H128  1  0.70113000  0.59286000  0.70589000  1
  H  H129  1  0.60722000  0.35110000  0.68400000  1
  H  H130  1  0.55938000  0.29387000  0.60458000  1
  H  H131  1  0.55692000  0.18886000  0.54759000  1
  H  H132  1  0.84025000  0.29100000  0.52688000  1
  H  H133  1  0.84445000  0.39498000  0.58541000  1
  H  H134  1  0.93710000  0.61281000  0.62197000  1
  H  H135  1  0.02533000  0.74625000  0.59607000  1
  H  H136  1  0.78835000  0.80353000  0.60457000  1
  H  H137  1  0.69956000  0.67082000  0.63041000  1
  H  H138  1  0.70502000  0.54175000  0.78657000  1
  H  H139  1  0.61603000  0.53863000  0.86280000  1
  H  H140  1  0.38171000  0.38609000  0.79205000  1
  H  H141  1  0.47118000  0.38522000  0.71592000  1
  C  C142  1  0.54229000  0.20820000  0.72566000  1
  C  C143  1  0.61740000  0.19441000  0.70731000  1
  C  C144  1  0.70209000  0.22740000  0.72870000  1
  C  C145  1  0.71108000  0.27468000  0.77005000  1
  C  C146  1  0.63698000  0.28840000  0.79003000  1
  C  C147  1  0.55298000  0.25528000  0.76738000  1
  C  C148  1  0.45542000  0.17375000  0.70020000  1
  C  C149  1  0.37320000  0.16256000  0.72404000  1
  C  C150  1  0.29259000  0.12884000  0.69912000  1
  C  C151  1  0.29203000  0.10519000  0.64967000  1
  C  C152  1  0.37350000  0.11720000  0.62537000  1
  C  C153  1  0.45353000  0.15079000  0.65036000  1
  C  C154  1  0.20735000  0.06660000  0.62316000  1
  C  C155  1  0.77828000  0.20904000  0.70891000  1
  C  C156  1  0.78096000  0.19009000  0.65848000  1
  C  C157  1  0.84870000  0.16673000  0.64051000  1
  C  C158  1  0.91711000  0.16390000  0.67240000  1
  C  C159  1  0.91678000  0.18520000  0.72236000  1
  C  C160  1  0.84771000  0.20687000  0.74038000  1
  C  C161  1  0.98697000  0.13674000  0.65313000  1
  C  C162  1  0.64841000  0.33607000  0.83481000  1
  C  C163  1  0.72809000  0.39790000  0.84264000  1
  C  C164  1  0.74130000  0.44037000  0.88595000  1
  C  C165  1  0.67447000  0.42241000  0.92246000  1
  C  C166  1  0.59398000  0.36167000  0.91469000  1
  C  C167  1  0.58128000  0.31904000  0.87136000  1
  C  C168  1  0.68937000  0.46792000  0.96858000  1
  C  C169  1  0.70612000  0.92001000  0.86989000  1
  C  C170  1  0.76152000  0.99358000  0.88369000  1
  C  C171  1  0.75990000  0.05736000  0.85739000  1
  C  C172  1  0.70397000  0.04670000  0.81595000  1
  C  C173  1  0.65033000  0.97377000  0.80032000  1
  C  C174  1  0.65081000  0.91069000  0.82797000  1
  C  C175  1  0.70489000  0.85451000  0.90074000  1
  C  C176  1  0.62403000  0.79518000  0.91125000  1
  C  C177  1  0.62205000  0.73585000  0.94281000  1
  C  C178  1  0.70100000  0.73439000  0.96491000  1
  C  C179  1  0.78212000  0.79287000  0.95412000  1
  C  C180  1  0.78403000  0.85171000  0.92232000  1
  C  C181  1  0.70080000  0.67224000  0.99955000  1
  C  C182  1  0.81330000  0.13550000  0.87320000  1
  C  C183  1  0.90569000  0.15764000  0.88250000  1
  C  C184  1  0.95536000  0.23237000  0.89560000  1
  C  C185  1  0.91307000  0.28607000  0.90013000  1
  C  C186  1  0.82058000  0.26396000  0.89180000  1
  C  C187  1  0.77140000  0.18967000  0.87819000  1
  C  C188  1  0.96427000  0.36649000  0.91356000  1
  C  C189  1  0.59665000  0.96721000  0.75469000  1
  C  C190  1  0.63722000  0.01006000  0.71281000  1
  C  C191  1  0.58804000  0.00862000  0.67005000  1
  C  C192  1  0.49655000  0.96575000  0.66840000  1
  C  C193  1  0.45558000  0.92223000  0.70987000  1
  C  C194  1  0.50536000  0.92213000  0.75236000  1
  C  C195  1  0.44379000  0.96790000  0.62298000  1
  C  C196  1  0.45609000  0.28985000  0.22706000  1
  C  C197  1  0.38117000  0.30486000  0.20962000  1
  C  C198  1  0.29655000  0.27195000  0.23119000  1
  C  C199  1  0.28771000  0.22438000  0.27239000  1
  C  C200  1  0.36189000  0.21004000  0.29178000  1
  C  C201  1  0.44551000  0.24239000  0.26857000  1
  C  C202  1  0.54230000  0.32313000  0.20071000  1
  C  C203  1  0.62498000  0.33252000  0.22343000  1
  C  C204  1  0.70501000  0.36552000  0.19781000  1
  C  C205  1  0.70437000  0.39011000  0.14861000  1
  C  C206  1  0.62238000  0.37936000  0.12531000  1
  C  C207  1  0.54301000  0.34661000  0.15106000  1
  C  C208  1  0.78829000  0.42796000  0.12112000  1
  C  C209  1  0.22049000  0.29039000  0.21119000  1
  C  C210  1  0.21933000  0.31003000  0.16077000  1
  C  C211  1  0.15223000  0.33359000  0.14216000  1
  C  C212  1  0.08235000  0.33520000  0.17331000  1
  C  C213  1  0.08092000  0.31304000  0.22318000  1
  C  C214  1  0.14974000  0.29163000  0.24195000  1
  C  C215  1  0.01297000  0.36225000  0.15323000  1
  C  C216  1  0.35107000  0.16222000  0.33647000  1
  C  C217  1  0.27113000  0.10076000  0.34466000  1
  C  C218  1  0.25816000  0.05854000  0.38809000  1
  C  C219  1  0.32540000  0.07647000  0.42437000  1
  C  C220  1  0.40630000  0.13650000  0.41610000  1
  C  C221  1  0.41886000  0.17887000  0.37264000  1
  C  C222  1  0.31043000  0.03190000  0.47089000  1
  C  C223  1  0.29647000  0.58246000  0.36978000  1
  C  C224  1  0.24049000  0.50886000  0.38317000  1
  C  C225  1  0.24131000  0.44528000  0.35639000  1
  C  C226  1  0.29727000  0.45615000  0.31496000  1
  C  C227  1  0.35172000  0.52911000  0.29977000  1
  C  C228  1  0.35196000  0.59199000  0.32790000  1
  C  C229  1  0.29791000  0.64747000  0.40118000  1
  C  C230  1  0.37861000  0.70701000  0.41170000  1
  C  C231  1  0.38041000  0.76567000  0.44379000  1
  C  C232  1  0.30152000  0.76616000  0.46650000  1
  C  C233  1  0.22061000  0.70749000  0.45577000  1
  C  C234  1  0.21885000  0.64940000  0.42339000  1
  C  C235  1  0.30166000  0.82761000  0.50164000  1
  C  C236  1  0.18758000  0.36723000  0.37220000  1
  C  C237  1  0.09552000  0.34556000  0.38236000  1
  C  C238  1  0.04602000  0.27122000  0.39633000  1
  C  C239  1  0.08813000  0.21739000  0.40072000  1
  C  C240  1  0.18008000  0.23880000  0.39116000  1
  C  C241  1  0.22911000  0.31278000  0.37685000  1
  C  C242  1  0.03709000  0.13772000  0.41572000  1
  C  C243  1  0.40579000  0.53571000  0.25426000  1
  C  C244  1  0.36584000  0.49238000  0.21245000  1
  C  C245  1  0.41536000  0.49364000  0.16985000  1
  C  C246  1  0.50685000  0.53677000  0.16822000  1
  C  C247  1  0.54712000  0.58095000  0.20957000  1
  C  C248  1  0.49693000  0.58117000  0.25192000  1
  C  C249  1  0.55999000  0.53407000  0.12299000  1
  C  C250  1  0.45771000  0.79179000  0.27433000  1
  C  C251  1  0.38260000  0.80559000  0.29269000  1
  C  C252  1  0.29791000  0.77259000  0.27130000  1
  C  C253  1  0.28892000  0.72532000  0.22995000  1
  C  C254  1  0.36301000  0.71160000  0.20997000  1
  C  C255  1  0.44702000  0.74471000  0.23262000  1
  C  C256  1  0.54457000  0.82625000  0.29980000  1
  C  C257  1  0.62679000  0.83744000  0.27596000  1
  C  C258  1  0.70741000  0.87115000  0.30087000  1
  C  C259  1  0.70797000  0.89481000  0.35033000  1
  C  C260  1  0.62649000  0.88280000  0.37463000  1
  C  C261  1  0.54646000  0.84920000  0.34964000  1
  C  C262  1  0.79264000  0.93340000  0.37684000  1
  C  C263  1  0.22171000  0.79096000  0.29109000  1
  C  C264  1  0.21903000  0.80990000  0.34151000  1
  C  C265  1  0.15130000  0.83327000  0.35949000  1
  C  C266  1  0.08288000  0.83609000  0.32759000  1
  C  C267  1  0.08322000  0.81479000  0.27764000  1
  C  C268  1  0.15229000  0.79312000  0.25962000  1
  C  C269  1  0.01303000  0.86326000  0.34687000  1
  C  C270  1  0.35159000  0.66392000  0.16519000  1
  C  C271  1  0.27191000  0.60209000  0.15736000  1
  C  C272  1  0.25870000  0.55962000  0.11405000  1
  C  C273  1  0.32553000  0.57758000  0.07754000  1
  C  C274  1  0.40602000  0.63832000  0.08531000  1
  C  C275  1  0.41871000  0.68095000  0.12863000  1
  C  C276  1  0.31062000  0.53207000  0.03142000  1
  C  C277  1  0.29387000  0.07999000  0.13011000  1
  C  C278  1  0.23848000  0.00641000  0.11630000  1
  C  C279  1  0.24010000  0.94263000  0.14261000  1
  C  C280  1  0.29603000  0.95330000  0.18405000  1
  C  C281  1  0.34966000  0.02622000  0.19968000  1
  C  C282  1  0.34918000  0.08930000  0.17203000  1
  C  C283  1  0.29510000  0.14549000  0.09926000  1
  C  C284  1  0.37597000  0.20482000  0.08875000  1
  C  C285  1  0.37794000  0.26414000  0.05718000  1
  C  C286  1  0.29899000  0.26561000  0.03509000  1
  C  C287  1  0.21788000  0.20713000  0.04588000  1
  C  C288  1  0.21597000  0.14828000  0.07768000  1
  C  C289  1  0.29919000  0.32775000  0.00045000  1
  C  C290  1  0.18670000  0.86450000  0.12680000  1
  C  C291  1  0.09430000  0.84236000  0.11750000  1
  C  C292  1  0.04464000  0.76763000  0.10440000  1
  C  C293  1  0.08692000  0.71392000  0.09987000  1
  C  C294  1  0.17942000  0.73604000  0.10820000  1
  C  C295  1  0.22859000  0.81033000  0.12181000  1
  C  C296  1  0.03572000  0.63351000  0.08644000  1
  C  C297  1  0.40335000  0.03279000  0.24531000  1
  C  C298  1  0.36277000  0.98994000  0.28719000  1
  C  C299  1  0.41195000  0.99137000  0.32995000  1
  C  C300  1  0.50345000  0.03425000  0.33159000  1
  C  C301  1  0.54442000  0.07776000  0.29013000  1
  C  C302  1  0.49463000  0.07786000  0.24764000  1
  C  C303  1  0.55620000  0.03210000  0.37702000  1
  C  C304  1  0.54391000  0.71015000  0.77294000  1
  C  C305  1  0.61882000  0.69514000  0.79038000  1
  C  C306  1  0.70345000  0.72805000  0.76881000  1
  C  C307  1  0.71228000  0.77562000  0.72760000  1
  C  C308  1  0.63811000  0.78996000  0.70822000  1
  C  C309  1  0.55448000  0.75760000  0.73143000  1
  C  C310  1  0.45770000  0.67687000  0.79929000  1
  C  C311  1  0.37502000  0.66748000  0.77656000  1
  C  C312  1  0.29498000  0.63447000  0.80218000  1
  C  C313  1  0.29563000  0.60989000  0.85139000  1
  C  C314  1  0.37762000  0.62064000  0.87469000  1
  C  C315  1  0.45699000  0.65339000  0.84894000  1
  C  C316  1  0.21171000  0.57203000  0.87888000  1
  C  C317  1  0.77950000  0.70961000  0.78881000  1
  C  C318  1  0.78067000  0.68996000  0.83923000  1
  C  C319  1  0.84776000  0.66641000  0.85784000  1
  C  C320  1  0.91765000  0.66479000  0.82669000  1
  C  C321  1  0.91907000  0.68696000  0.77682000  1
  C  C322  1  0.85026000  0.70837000  0.75805000  1
  C  C323  1  0.98702000  0.63775000  0.84677000  1
  C  C324  1  0.64893000  0.83777000  0.66353000  1
  C  C325  1  0.72887000  0.89923000  0.65534000  1
  C  C326  1  0.74183000  0.94145000  0.61191000  1
  C  C327  1  0.67460000  0.92352000  0.57563000  1
  C  C328  1  0.59369000  0.86349000  0.58390000  1
  C  C329  1  0.58114000  0.82112000  0.62736000  1
  C  C330  1  0.68957000  0.96810000  0.52911000  1
  C  C331  1  0.70352000  0.41754000  0.63022000  1
  C  C332  1  0.75951000  0.49114000  0.61683000  1
  C  C333  1  0.75869000  0.55472000  0.64360000  1
  C  C334  1  0.70272000  0.54385000  0.68504000  1
  C  C335  1  0.64828000  0.47089000  0.70023000  1
  C  C336  1  0.64804000  0.40801000  0.67210000  1
  C  C337  1  0.70208000  0.35253000  0.59881000  1
  C  C338  1  0.62139000  0.29299000  0.58830000  1
  C  C339  1  0.61959000  0.23432000  0.55620000  1
  C  C340  1  0.69847000  0.23383000  0.53350000  1
  C  C341  1  0.77939000  0.29251000  0.54423000  1
  C  C342  1  0.78114000  0.35060000  0.57660000  1
  C  C343  1  0.69833000  0.17238000  0.49836000  1
  C  C344  1  0.81242000  0.63277000  0.62780000  1
  C  C345  1  0.90447000  0.65443000  0.61764000  1
  C  C346  1  0.95398000  0.72877000  0.60367000  1
  C  C347  1  0.91187000  0.78261000  0.59928000  1
  C  C348  1  0.81991000  0.76120000  0.60884000  1
  C  C349  1  0.77088000  0.68721000  0.62315000  1
  C  C350  1  0.96291000  0.86228000  0.58427000  1
  C  C351  1  0.59421000  0.46429000  0.74574000  1
  C  C352  1  0.63415000  0.50761000  0.78755000  1
  C  C353  1  0.58463000  0.50635000  0.83015000  1
  C  C354  1  0.49315000  0.46322000  0.83177000  1
  C  C355  1  0.45288000  0.41905000  0.79042000  1
  C  C356  1  0.50306000  0.41882000  0.74808000  1
  C  C357  1  0.44001000  0.46592000  0.87701000  1
  O  O358  1  0.93696000  0.03947000  0.50995000  1
  O  O359  1  0.13279000  0.06730000  0.64079000  1
  O  O360  1  0.20729000  0.03224000  0.58208000  1
  O  O361  1  0.97904000  0.10320000  0.61237000  1
  O  O362  1  0.05779000  0.15015000  0.68260000  1
  O  O363  1  0.76649000  0.51810000  0.97715000  1
  O  O364  1  0.62498000  0.45734000  0.99981000  1
  O  O365  1  0.62876000  0.61387000  0.00499000  1
  O  O366  1  0.77288000  0.67868000  0.02254000  1
  O  O367  1  0.04869000  0.38810000  0.92327000  1
  O  O368  1  0.92187000  0.41306000  0.91525000  1
  O  O369  1  0.48665000  0.00311000  0.58496000  1
  O  O370  1  0.35878000  0.93580000  0.62493000  1
  O  O371  1  0.06523000  0.46126000  0.00975000  1
  O  O372  1  0.86292000  0.42648000  0.13818000  1
  O  O373  1  0.78779000  0.46218000  0.08005000  1
  O  O374  1  0.02456000  0.39989000  0.11396000  1
  O  O375  1  0.93858000  0.34388000  0.18030000  1
  O  O376  1  0.23332000  0.98191000  0.47965000  1
  O  O377  1  0.37481000  0.04291000  0.50225000  1
  O  O378  1  0.37380000  0.88585000  0.50732000  1
  O  O379  1  0.22957000  0.82086000  0.52476000  1
  O  O380  1  0.95382000  0.11805000  0.42750000  1
  O  O381  1  0.07833000  0.09022000  0.41680000  1
  O  O382  1  0.51711000  0.49986000  0.08471000  1
  O  O383  1  0.64514000  0.56458000  0.12506000  1
  O  O384  1  0.06304000  0.96053000  0.49005000  1
  O  O385  1  0.86721000  0.93269000  0.35921000  1
  O  O386  1  0.79270000  0.96775000  0.41792000  1
  O  O387  1  0.02095000  0.89680000  0.38763000  1
  O  O388  1  0.94221000  0.84985000  0.31740000  1
  O  O389  1  0.23351000  0.48190000  0.02285000  1
  O  O390  1  0.37501000  0.54266000  0.00019000  1
  O  O391  1  0.37123000  0.38613000  0.99501000  1
  O  O392  1  0.22711000  0.32131000  0.97746000  1
  O  O393  1  0.95131000  0.61190000  0.07673000  1
  O  O394  1  0.07812000  0.58693000  0.08475000  1
  O  O395  1  0.51334000  0.99688000  0.41504000  1
  O  O396  1  0.64122000  0.06420000  0.37507000  1
  O  O397  1  0.93476000  0.53874000  0.99025000  1
  O  O398  1  0.13708000  0.57352000  0.86182000  1
  O  O399  1  0.21220000  0.53782000  0.91995000  1
  O  O400  1  0.97543000  0.60011000  0.88603000  1
  O  O401  1  0.06142000  0.65612000  0.81970000  1
  O  O402  1  0.76668000  0.01809000  0.52035000  1
  O  O403  1  0.62518000  0.95708000  0.49775000  1
  O  O404  1  0.62620000  0.11415000  0.49268000  1
  O  O405  1  0.77043000  0.17914000  0.47524000  1
  O  O406  1  0.04617000  0.88195000  0.57250000  1
  O  O407  1  0.92166000  0.90978000  0.58319000  1
  O  O408  1  0.48289000  0.50013000  0.91529000  1
  O  O409  1  0.35485000  0.43541000  0.87494000  1
