# generated using pymatgen
data_H32C43N12
_symmetry_space_group_name_H-M   'P 1'
_cell_length_a   31.69430000
_cell_length_b   45.16625000
_cell_length_c   45.16620000
_cell_angle_alpha   119.99989014
_cell_angle_beta   90.00360000
_cell_angle_gamma   90.00000001
_symmetry_Int_Tables_number   1
_chemical_formula_structural   H32C43N12
_chemical_formula_sum   'H192 C258 N72'
_cell_volume   55993.78985741
_cell_formula_units_Z   6
loop_
 _symmetry_equiv_pos_site_id
 _symmetry_equiv_pos_as_xyz
  1  'x, y, z'
loop_
 _atom_site_type_symbol
 _atom_site_label
 _atom_site_symmetry_multiplicity
 _atom_site_fract_x
 _atom_site_fract_y
 _atom_site_fract_z
 _atom_site_occupancy
  H  13  1  0.62997400  0.98637800  0.49436600  1
  H  14  1  0.86107900  0.98641300  0.49436400  1
  H  15  1  0.83535700  0.88033800  0.44145700  1
  H  16  1  0.65570100  0.88031300  0.44146000  1
  H  17  1  0.74551900  0.89596700  0.51300600  1
  H  18  1  0.74541100  0.89643000  0.38648900  1
  H  22  1  0.58264700  0.90025400  0.45206000  1
  H  23  1  0.90827100  0.90032900  0.45228700  1
  H  24  1  0.74587700  0.87387600  0.55228000  1
  H  25  1  0.20453500  0.98859000  0.49546800  1
  H  26  1  0.28650600  0.98857300  0.49546100  1
  H  30  1  0.01398000  0.93605700  0.48051900  1
  H  38  1  0.51188100  0.91703600  0.50695800  1
  H  39  1  0.41970600  0.87894000  0.45076100  1
  H  41  1  0.78165300  0.89414000  0.68227700  1
  H  43  1  0.70624100  0.92004200  0.68981300  1
  H  44  1  0.66710400  0.89234500  0.66162900  1
  H  45  1  0.70299000  0.91321200  0.64772100  1
  H  60  1  0.74574000  0.87150400  0.32235100  1
  H  62  1  0.40890600  0.85600900  0.47216800  1
  H  63  1  0.44278300  0.83826500  0.43598200  1
  H  65  1  0.47655600  0.83115600  0.48456900  1
  H  66  1  0.49115800  0.86933000  0.52194800  1
  H  67  1  0.52455800  0.85152500  0.48538400  1
  H  73  1  0.70085400  0.84725600  0.60294800  1
  H  75  1  0.78169300  0.84902800  0.66229100  1
  H  76  1  0.74641700  0.87305400  0.69634600  1
  H  80  1  0.78172400  0.80208000  0.14200900  1
  H  81  1  0.74644500  0.81210700  0.11798200  1
  H  107  1  0.62994600  0.49667100  0.49423200  1
  H  108  1  0.70451100  0.49099600  0.50015600  1
  H  109  1  0.78647900  0.49099500  0.50017300  1
  H  110  1  0.86104900  0.49667600  0.49427200  1
  H  111  1  0.83532700  0.54958300  0.44110700  1
  H  112  1  0.65567300  0.54957800  0.44107600  1
  H  113  1  0.74548800  0.47803400  0.38518600  1
  H  114  1  0.74607500  0.51655500  0.31695000  1
  H  115  1  0.74559700  0.57289300  0.36278600  1
  H  116  1  0.74537800  0.60455200  0.51216100  1
  H  117  1  0.74607800  0.62658000  0.41670300  1
  H  118  1  0.74917000  0.67106500  0.47284100  1
  H  124  1  0.58261900  0.53898100  0.45042000  1
  H  125  1  0.90823500  0.53874400  0.45026500  1
  H  126  1  0.74569700  0.66867600  0.55137400  1
  H  127  1  0.74584500  0.43875800  0.32382600  1
  H  128  1  0.70454100  0.99797800  0.50004200  1
  H  129  1  0.78650900  0.99799700  0.50004800  1
  H  130  1  0.74610500  0.78921100  0.47448400  1
  H  131  1  0.74562400  0.77870800  0.41814500  1
  H  132  1  0.74612300  0.77894200  0.36446300  1
  H  133  1  0.74923800  0.79059200  0.31998200  1
  H  158  1  0.62990800  0.49680500  0.00466000  1
  H  159  1  0.70447300  0.49087900  0.99306000  1
  H  160  1  0.78644400  0.49086400  0.99304300  1
  H  161  1  0.86101400  0.49676600  0.00462500  1
  H  162  1  0.83530400  0.54993600  0.11070000  1
  H  163  1  0.65565100  0.54996300  0.11072400  1
  H  164  1  0.74546500  0.60585800  0.09506900  1
  H  165  1  0.74603600  0.67408800  0.20182900  1
  H  166  1  0.74556100  0.62825100  0.21232800  1
  H  167  1  0.74535500  0.47887400  0.09459300  1
  H  168  1  0.74603000  0.57434900  0.21208800  1
  H  169  1  0.74910400  0.51822300  0.20045400  1
  H  175  1  0.58259700  0.54062300  0.09078500  1
  H  176  1  0.90820300  0.54076000  0.09069100  1
  H  177  1  0.74568200  0.43965900  0.11957600  1
  H  178  1  0.74583100  0.66721900  0.11716100  1
  H  203  1  0.12994100  0.48989800  0.50127400  1
  H  204  1  0.20450700  0.49557200  0.49535000  1
  H  205  1  0.28647400  0.49557600  0.49533600  1
  H  206  1  0.36104600  0.48989500  0.50123600  1
  H  207  1  0.33533200  0.43698900  0.55440500  1
  H  208  1  0.15567800  0.43698900  0.55442800  1
  H  209  1  0.24548900  0.50853500  0.61032200  1
  H  210  1  0.24608200  0.47001600  0.67855800  1
  H  211  1  0.24559600  0.41367700  0.63272300  1
  H  212  1  0.24537800  0.38201700  0.48334500  1
  H  213  1  0.24607900  0.35998900  0.57880500  1
  H  214  1  0.24916800  0.31550700  0.52266700  1
  H  220  1  0.08262700  0.44759300  0.54509200  1
  H  221  1  0.40823100  0.44781800  0.54522400  1
  H  222  1  0.24570700  0.31789500  0.44413300  1
  H  223  1  0.24585200  0.54781100  0.67168300  1
  H  248  1  0.12997000  0.00019200  0.50114200  1
  H  249  1  0.36107800  0.00015700  0.50114500  1
  H  250  1  0.33536000  0.10623100  0.55404900  1
  H  251  1  0.15570600  0.10625600  0.55404800  1
  H  252  1  0.24552000  0.09060300  0.48249900  1
  H  253  1  0.24611000  0.19736100  0.52102500  1
  H  254  1  0.24562500  0.20785800  0.57736100  1
  H  255  1  0.24541600  0.09012700  0.60900700  1
  H  256  1  0.24609500  0.20761900  0.63102400  1
  H  257  1  0.24919600  0.19598400  0.67551600  1
  H  263  1  0.08265200  0.08631600  0.54345000  1
  H  264  1  0.40826300  0.08622900  0.54322500  1
  H  265  1  0.24573500  0.11510500  0.67320000  1
  H  266  1  0.24587700  0.11269300  0.44322600  1
  H  291  1  0.12991600  0.48976300  0.99084600  1
  H  292  1  0.20448200  0.49569100  0.00244700  1
  H  293  1  0.28645200  0.49570500  0.00246600  1
  H  294  1  0.36102400  0.48980700  0.99088400  1
  H  295  1  0.33529400  0.43663700  0.88480800  1
  H  296  1  0.15564000  0.43660600  0.88478400  1
  H  297  1  0.24546400  0.38071400  0.90043800  1
  H  298  1  0.24603500  0.31248300  0.79367900  1
  H  299  1  0.24556100  0.35831900  0.78317900  1
  H  300  1  0.24535000  0.50769500  0.90091000  1
  H  301  1  0.24604400  0.41222500  0.78341500  1
  H  302  1  0.24911400  0.46835200  0.79505600  1
  H  308  1  0.08258900  0.44594800  0.90472400  1
  H  309  1  0.40815500  0.44579200  0.90484600  1
  H  310  1  0.24568500  0.54691100  0.87594400  1
  H  311  1  0.24582700  0.31935700  0.87835200  1
  H  318  1  0.01395200  0.51052400  0.45776400  1
  H  322  1  0.01184800  0.50249200  0.58321000  1
  H  324  1  0.91967500  0.44629300  0.56510500  1
  H  325  1  0.90887600  0.46770100  0.60944300  1
  H  326  1  0.94275400  0.43151500  0.59100300  1
  H  328  1  0.97652600  0.48010100  0.64669700  1
  H  329  1  0.99112600  0.51747900  0.64590100  1
  H  330  1  0.02452800  0.48091600  0.62714400  1
  H  339  1  0.01187600  0.06953600  0.48855000  1
  H  341  1  0.91970800  0.10762900  0.54474500  1
  H  342  1  0.90890600  0.13056100  0.52333500  1
  H  343  1  0.94278600  0.14830500  0.55952300  1
  H  345  1  0.97655400  0.15541500  0.51094000  1
  H  346  1  0.99115300  0.11724000  0.47356000  1
  H  347  1  0.02455600  0.13504500  0.51012500  1
  H  355  1  0.01392700  0.53327600  0.05498500  1
  H  359  1  0.01181600  0.40783300  0.92150600  1
  H  361  1  0.91964700  0.42593100  0.88340700  1
  H  362  1  0.90884500  0.38159300  0.86047700  1
  H  363  1  0.94272300  0.40003500  0.84273200  1
  H  365  1  0.97649400  0.34434200  0.83562500  1
  H  366  1  0.99109600  0.34513700  0.87380000  1
  H  367  1  0.02449600  0.36389800  0.85599700  1
  H  376  1  0.51395400  0.47605500  0.53775200  1
  H  380  1  0.51184300  0.48407900  0.41230000  1
  H  382  1  0.41967800  0.54027600  0.43039900  1
  H  383  1  0.40887500  0.51886700  0.38606000  1
  H  384  1  0.44275500  0.55505500  0.40450400  1
  H  386  1  0.47652400  0.50647000  0.34881000  1
  H  387  1  0.49112300  0.46909100  0.34960600  1
  H  388  1  0.52452600  0.50565600  0.36836800  1
  H  394  1  0.51398500  0.05051600  0.51499300  1
  H  402  1  0.51391900  0.45330000  0.94052500  1
  H  406  1  0.51181800  0.57874000  0.07400500  1
  H  408  1  0.41964600  0.56063700  0.11209500  1
  H  409  1  0.40884600  0.60497700  0.13502600  1
  H  410  1  0.44272600  0.58653500  0.15277400  1
  H  412  1  0.47649600  0.64223000  0.15988200  1
  H  413  1  0.49109500  0.64143300  0.12170900  1
  H  414  1  0.52449800  0.62267600  0.13951400  1
  H  423  1  0.73711800  0.50737500  0.23732400  1
  H  427  1  0.70082600  0.38808100  0.24652100  1
  H  429  1  0.78166100  0.32874200  0.18896200  1
  H  430  1  0.74638200  0.29469000  0.17893300  1
  H  431  1  0.78162300  0.30875700  0.21408700  1
  H  433  1  0.70620600  0.30122000  0.23245300  1
  H  434  1  0.66707300  0.32940400  0.23293600  1
  H  435  1  0.70295900  0.34331300  0.26771500  1
  H  442  1  0.73713400  0.71874500  0.48366500  1
  H  448  1  0.73721300  0.75373100  0.27229300  1
  H  452  1  0.70088300  0.74451200  0.14378200  1
  H  454  1  0.78168100  0.77695300  0.09689700  1
  H  456  1  0.70626600  0.75858700  0.07099200  1
  H  457  1  0.66713300  0.75809900  0.09868900  1
  H  458  1  0.70301900  0.72332400  0.07782300  1
  H  466  1  0.23713700  0.47919100  0.75818600  1
  H  470  1  0.20082500  0.59848700  0.74898300  1
  H  472  1  0.28166600  0.65782900  0.80655000  1
  H  473  1  0.24638500  0.69188100  0.81657600  1
  H  474  1  0.28162200  0.67781400  0.78142400  1
  H  476  1  0.20620700  0.68535000  0.76305500  1
  H  477  1  0.16707400  0.65716200  0.76256600  1
  H  478  1  0.20295400  0.64325500  0.72779100  1
  H  487  1  0.23717500  0.26782400  0.51184500  1
  H  491  1  0.20085600  0.13931400  0.39255700  1
  H  493  1  0.28169400  0.13754400  0.33321900  1
  H  494  1  0.24641300  0.11351400  0.29916100  1
  H  495  1  0.28165000  0.09243200  0.31323400  1
  H  497  1  0.20623900  0.06652800  0.30569400  1
  H  498  1  0.16710600  0.09422400  0.33387600  1
  H  499  1  0.20299200  0.07335700  0.34778500  1
  H  508  1  0.23717500  0.23285100  0.72323000  1
  H  512  1  0.20088500  0.24205500  0.85172700  1
  H  514  1  0.28171900  0.18449200  0.85350500  1
  H  515  1  0.24644200  0.17446500  0.87753000  1
  H  516  1  0.28168500  0.20961800  0.89861500  1
  H  518  1  0.20626700  0.22798200  0.92451600  1
  H  519  1  0.16713400  0.22846900  0.89681600  1
  H  520  1  0.20302100  0.26324600  0.91768600  1
  C  1  1  0.70895300  0.91253600  0.45772400  1
  C  2  1  0.72335500  0.94628000  0.47435200  1
  C  3  1  0.76769200  0.94628700  0.47435000  1
  C  4  1  0.78209000  0.91254200  0.45771700  1
  C  5  1  0.79693100  0.97332300  0.48771200  1
  C  6  1  0.84067900  0.96623300  0.48420500  1
  C  7  1  0.85642900  0.93224800  0.46724500  1
  C  8  1  0.82596500  0.90536900  0.45392000  1
  C  9  1  0.66507900  0.90534400  0.45391800  1
  C  10  1  0.63458100  0.93219000  0.46725900  1
  C  11  1  0.65036000  0.96618700  0.48420700  1
  C  12  1  0.69410900  0.97330200  0.48771100  1
  C  19  1  0.74551500  0.88888100  0.44621100  1
  C  20  1  0.89996700  0.92483300  0.46404900  1
  C  21  1  0.59100200  0.92474200  0.46411000  1
  C  28  1  0.00511400  0.96039000  0.48747700  1
  C  29  1  0.96254900  0.96894800  0.48591100  1
  C  32  1  0.52750800  0.96812900  0.48671800  1
  C  34  1  0.48483500  0.95951500  0.48896100  1
  C  36  1  0.48697100  0.90906800  0.49143700  1
  C  42  1  0.69962100  0.90101900  0.66325300  1
  C  46  1  0.74543600  0.86513900  0.40893500  1
  C  47  1  0.74531700  0.83154200  0.40256800  1
  C  48  1  0.74547300  0.83128000  0.43275200  1
  C  49  1  0.74551500  0.86489100  0.45970000  1
  C  50  1  0.74548800  0.87110700  0.49358600  1
  C  51  1  0.74547800  0.84336000  0.50024300  1
  C  52  1  0.74565900  0.80982700  0.47169000  1
  C  53  1  0.74555000  0.80332000  0.43803000  1
  C  54  1  0.74554100  0.80365000  0.36953400  1
  C  55  1  0.74625500  0.81060000  0.34287300  1
  C  56  1  0.74553800  0.84372700  0.34719600  1
  C  57  1  0.74531300  0.87163800  0.38135000  1
  C  58  1  0.74552800  0.84781200  0.31856900  1
  C  59  1  0.74559300  0.84954800  0.53382400  1
  C  61  1  0.43326400  0.86189000  0.45879900  1
  C  64  1  0.49179800  0.85597100  0.49404800  1
  C  68  1  0.74515100  0.79789200  0.54284300  1
  C  69  1  0.74703700  0.79382800  0.57195000  1
  C  71  1  0.72386300  0.84542300  0.61702300  1
  C  74  1  0.76165100  0.87170000  0.67404600  1
  C  78  1  0.74499500  0.79310400  0.25836700  1
  C  83  1  0.74540500  0.58210700  0.45842700  1
  C  84  1  0.74529400  0.58847400  0.43119500  1
  C  85  1  0.74544000  0.55828900  0.40075200  1
  C  86  1  0.74548300  0.53134000  0.40741400  1
  C  87  1  0.74545700  0.49745300  0.37974500  1
  C  88  1  0.74544500  0.49079400  0.34533900  1
  C  89  1  0.74563000  0.51934900  0.34036000  1
  C  90  1  0.74551600  0.55300900  0.36751400  1
  C  91  1  0.74551500  0.62150700  0.43633900  1
  C  92  1  0.74626400  0.64816700  0.46995000  1
  C  93  1  0.74550500  0.64384800  0.49875700  1
  C  94  1  0.74528200  0.60969200  0.49251000  1
  C  95  1  0.70892300  0.53331600  0.45703600  1
  C  96  1  0.72332500  0.51668800  0.47415200  1
  C  97  1  0.76766200  0.51668900  0.47416000  1
  C  98  1  0.78206000  0.53332400  0.45704800  1
  C  99  1  0.79690000  0.50332600  0.48783100  1
  C  100  1  0.84064900  0.50683200  0.48425100  1
  C  101  1  0.85639700  0.52379300  0.46722800  1
  C  102  1  0.82593600  0.53711900  0.45367100  1
  C  103  1  0.66505000  0.53712100  0.45364800  1
  C  104  1  0.63455300  0.52378000  0.46715500  1
  C  105  1  0.65032800  0.50683000  0.48420300  1
  C  106  1  0.69408000  0.50332900  0.48781500  1
  C  119  1  0.74548500  0.54483100  0.44489300  1
  C  120  1  0.89989400  0.52696800  0.46302900  1
  C  121  1  0.59097400  0.52692800  0.46285400  1
  C  122  1  0.74548900  0.67247000  0.53147200  1
  C  123  1  0.74556300  0.45720800  0.31794500  1
  C  134  1  0.74538100  0.53261300  0.12588800  1
  C  135  1  0.74525700  0.55984500  0.15948400  1
  C  136  1  0.74541100  0.59029000  0.15975100  1
  C  137  1  0.74545700  0.58362800  0.12614000  1
  C  138  1  0.74543200  0.61129800  0.11992800  1
  C  139  1  0.74542500  0.64570100  0.14767600  1
  C  140  1  0.74559800  0.65068000  0.18121000  1
  C  141  1  0.74548700  0.62352500  0.18771400  1
  C  142  1  0.74550700  0.55471200  0.18737900  1
  C  143  1  0.74623500  0.52110500  0.18043400  1
  C  144  1  0.74548500  0.49229700  0.14730800  1
  C  145  1  0.74526200  0.49852800  0.11938600  1
  C  146  1  0.70889600  0.53400400  0.07849700  1
  C  147  1  0.72329400  0.51688600  0.04475400  1
  C  148  1  0.76763200  0.51688000  0.04474900  1
  C  149  1  0.78203500  0.53399300  0.07849300  1
  C  150  1  0.79686800  0.50320800  0.01771500  1
  C  151  1  0.84061700  0.50678900  0.02480500  1
  C  152  1  0.85636800  0.52380800  0.05878700  1
  C  153  1  0.82591100  0.53737100  0.08566900  1
  C  154  1  0.66502200  0.53739300  0.08569400  1
  C  155  1  0.63452400  0.52388400  0.05884600  1
  C  156  1  0.65029400  0.50683500  0.02484800  1
  C  157  1  0.69404400  0.50322500  0.01773400  1
  C  170  1  0.74546100  0.54615000  0.10215100  1
  C  171  1  0.89980200  0.52797600  0.06609800  1
  C  172  1  0.59094900  0.52818700  0.06629700  1
  C  173  1  0.74546700  0.45959600  0.14325100  1
  C  174  1  0.74555800  0.67309400  0.14148900  1
  C  179  1  0.24540700  0.40446300  0.53708000  1
  C  180  1  0.24529300  0.39809700  0.56431200  1
  C  181  1  0.24544200  0.42828200  0.59475700  1
  C  182  1  0.24548600  0.45523000  0.58809300  1
  C  183  1  0.24546100  0.48911600  0.61576200  1
  C  184  1  0.24544500  0.49577600  0.65016800  1
  C  185  1  0.24562500  0.46722100  0.65514700  1
  C  186  1  0.24551700  0.43356000  0.62799300  1
  C  187  1  0.24551400  0.36506200  0.55916800  1
  C  188  1  0.24626200  0.33840300  0.52555500  1
  C  189  1  0.24550800  0.34272200  0.49674900  1
  C  190  1  0.24528100  0.37687700  0.50299500  1
  C  191  1  0.20892400  0.45325400  0.53847000  1
  C  192  1  0.22332400  0.46988200  0.52135500  1
  C  193  1  0.26766300  0.46987800  0.52134500  1
  C  194  1  0.28206300  0.45324700  0.53846000  1
  C  195  1  0.29689900  0.48324400  0.50767600  1
  C  196  1  0.34064500  0.47973800  0.51125700  1
  C  197  1  0.35639500  0.46278000  0.52828200  1
  C  198  1  0.32593900  0.44945100  0.54183600  1
  C  199  1  0.16505200  0.44945300  0.54186300  1
  C  200  1  0.13455400  0.46279400  0.52835600  1
  C  201  1  0.15032700  0.47974000  0.51130500  1
  C  202  1  0.19407600  0.48324100  0.50769300  1
  C  215  1  0.24548900  0.44174100  0.55061500  1
  C  216  1  0.39982900  0.45963200  0.53244500  1
  C  217  1  0.09097800  0.45964500  0.53265600  1
  C  218  1  0.24549500  0.31410200  0.46403700  1
  C  219  1  0.24556800  0.52936000  0.67756200  1
  C  224  1  0.24544200  0.12142000  0.58656100  1
  C  225  1  0.24531500  0.15501800  0.59292700  1
  C  226  1  0.24547000  0.15528500  0.56274800  1
  C  227  1  0.24551700  0.12167400  0.53579900  1
  C  228  1  0.24548900  0.11546100  0.50191600  1
  C  229  1  0.24547600  0.14321000  0.49526200  1
  C  230  1  0.24565300  0.17674200  0.52381600  1
  C  231  1  0.24554900  0.18324700  0.55747400  1
  C  232  1  0.24556800  0.18291000  0.62595500  1
  C  233  1  0.24626500  0.17597000  0.65261800  1
  C  234  1  0.24554600  0.14284000  0.64829600  1
  C  235  1  0.24532200  0.11491900  0.61414400  1
  C  236  1  0.20895600  0.07403100  0.53777800  1
  C  237  1  0.22335200  0.04028700  0.52115300  1
  C  238  1  0.26769200  0.04028000  0.52115500  1
  C  239  1  0.28209200  0.07402600  0.53778500  1
  C  240  1  0.29692700  0.01324700  0.50779300  1
  C  241  1  0.34067600  0.02033600  0.51130400  1
  C  242  1  0.35642700  0.05431900  0.52826300  1
  C  243  1  0.32596700  0.08120100  0.54158900  1
  C  244  1  0.16508000  0.08122500  0.54158300  1
  C  245  1  0.13458300  0.05437900  0.52824300  1
  C  246  1  0.15035500  0.02038100  0.51130000  1
  C  247  1  0.19410400  0.01326600  0.50779600  1
  C  258  1  0.24551700  0.09768300  0.54928700  1
  C  259  1  0.39988900  0.06166100  0.53142400  1
  C  260  1  0.09100700  0.06182800  0.53139800  1
  C  261  1  0.24552400  0.13878300  0.67694200  1
  C  262  1  0.24559300  0.13702300  0.46168100  1
  C  267  1  0.24537500  0.45395600  0.86961500  1
  C  268  1  0.24526500  0.42672400  0.83602000  1
  C  269  1  0.24540700  0.39628100  0.83575400  1
  C  270  1  0.24545100  0.40294300  0.86936500  1
  C  271  1  0.24542900  0.37527200  0.87557900  1
  C  272  1  0.24542300  0.34086800  0.84782900  1
  C  273  1  0.24559900  0.33589200  0.81429900  1
  C  274  1  0.24548600  0.36304600  0.80779400  1
  C  275  1  0.24548600  0.43186100  0.80812600  1
  C  276  1  0.24623700  0.46546700  0.81507200  1
  C  277  1  0.24548300  0.49427600  0.84819900  1
  C  278  1  0.24525900  0.48804200  0.87611800  1
  C  279  1  0.20889200  0.45256600  0.91701100  1
  C  280  1  0.22329600  0.46968300  0.95075100  1
  C  281  1  0.26763200  0.46968900  0.95075800  1
  C  282  1  0.28202900  0.45257800  0.91701500  1
  C  283  1  0.29687400  0.48336100  0.97779200  1
  C  284  1  0.34062000  0.47978400  0.97070600  1
  C  285  1  0.35635700  0.46276600  0.93672600  1
  C  286  1  0.32590400  0.44920100  0.90983700  1
  C  287  1  0.16501700  0.44918000  0.90981400  1
  C  288  1  0.13452300  0.46268400  0.93666000  1
  C  289  1  0.15029800  0.47973400  0.97065800  1
  C  290  1  0.19405100  0.48334600  0.97777100  1
  C  303  1  0.24545400  0.44042000  0.89335400  1
  C  304  1  0.39975000  0.45863100  0.92945500  1
  C  305  1  0.09094400  0.45838300  0.92921100  1
  C  306  1  0.24546700  0.52698000  0.85226200  1
  C  307  1  0.24555800  0.31347400  0.85402100  1
  C  312  1  0.02748100  0.48224800  0.51187200  1
  C  314  1  0.00508000  0.50355500  0.47513100  1
  C  315  1  0.96247900  0.50511300  0.48528400  1
  C  317  1  0.98480800  0.48449300  0.52273000  1
  C  320  1  0.98693900  0.48696700  0.57565300  1
  C  323  1  0.93323300  0.45433200  0.59019400  1
  C  327  1  0.99176900  0.48958000  0.63136200  1
  C  333  1  0.02751000  0.01844200  0.50879200  1
  C  335  1  0.98483600  0.02705500  0.50654700  1
  C  337  1  0.98696900  0.07750300  0.50407200  1
  C  340  1  0.93326500  0.12467900  0.53670700  1
  C  344  1  0.99179800  0.13059900  0.50146100  1
  C  349  1  0.02745000  0.47916700  0.97260000  1
  C  351  1  0.00504800  0.51590700  0.03064600  1
  C  352  1  0.96238700  0.50572400  0.02199200  1
  C  354  1  0.98477700  0.46830900  0.96398500  1
  C  357  1  0.98690900  0.41538700  0.91353700  1
  C  360  1  0.93320300  0.40084300  0.86635700  1
  C  364  1  0.99173800  0.35967800  0.86044100  1
  C  370  1  0.52748300  0.50431200  0.48362900  1
  C  372  1  0.50507800  0.48301200  0.52037300  1
  C  373  1  0.46241400  0.48148600  0.51019200  1
  C  375  1  0.48481000  0.50207600  0.47277600  1
  C  378  1  0.48693900  0.49960500  0.41985700  1
  C  381  1  0.43323200  0.53223800  0.40531200  1
  C  385  1  0.49176700  0.49699300  0.36414800  1
  C  392  1  0.50511000  0.02618200  0.50803300  1
  C  393  1  0.46246800  0.01754900  0.50954600  1
  C  396  1  0.52744800  0.50740300  0.02290900  1
  C  398  1  0.50503700  0.47066700  0.96486600  1
  C  399  1  0.46233900  0.48085300  0.97355800  1
  C  401  1  0.48477800  0.51826200  0.03152200  1
  C  404  1  0.48691100  0.57118400  0.08197200  1
  C  407  1  0.43320400  0.58572500  0.12914600  1
  C  411  1  0.49173800  0.62689200  0.13506700  1
  C  417  1  0.74512900  0.44817100  0.25726900  1
  C  419  1  0.74138000  0.48292300  0.23131700  1
  C  420  1  0.74490500  0.45409200  0.19795900  1
  C  422  1  0.74701100  0.41907300  0.22409000  1
  C  425  1  0.72383600  0.37400400  0.23061700  1
  C  428  1  0.76162000  0.31698700  0.19987800  1
  C  432  1  0.69959000  0.32778000  0.23999000  1
  C  439  1  0.74138600  0.73718400  0.50812200  1
  C  440  1  0.74497800  0.73266900  0.53696300  1
  C  444  1  0.74517800  0.73376700  0.19314300  1
  C  446  1  0.74139000  0.75974900  0.25384800  1
  C  447  1  0.74706600  0.76694000  0.19720900  1
  C  450  1  0.72389300  0.76041900  0.14561300  1
  C  453  1  0.76168100  0.79116100  0.11933700  1
  C  455  1  0.69964900  0.75105000  0.09001500  1
  C  460  1  0.24511700  0.53839500  0.73823900  1
  C  462  1  0.24136200  0.50365000  0.76419700  1
  C  463  1  0.24490800  0.53248200  0.79755500  1
  C  465  1  0.24701300  0.56749400  0.77141600  1
  C  468  1  0.22383500  0.61256200  0.76488800  1
  C  471  1  0.26162100  0.66958300  0.79563100  1
  C  475  1  0.19958800  0.65879000  0.75551800  1
  C  481  1  0.24515400  0.18867800  0.45266400  1
  C  483  1  0.24135600  0.24938400  0.48738200  1
  C  484  1  0.24496500  0.25390000  0.45854300  1
  C  486  1  0.24703800  0.19274200  0.42355800  1
  C  489  1  0.22386400  0.14114700  0.37848300  1
  C  492  1  0.26165000  0.11487000  0.32146200  1
  C  496  1  0.19961900  0.08555100  0.33225300  1
  C  502  1  0.24518300  0.25280000  0.80238200  1
  C  504  1  0.24144100  0.22684700  0.74167700  1
  C  505  1  0.24498100  0.19349100  0.73715200  1
  C  507  1  0.24707000  0.21962200  0.79830300  1
  C  510  1  0.22389200  0.22614600  0.84989600  1
  C  513  1  0.26168100  0.19540900  0.87617600  1
  C  517  1  0.19964800  0.23552100  0.90549500  1
  N  27  1  0.03530600  0.98516700  0.49890700  1
  N  31  1  0.93084100  0.94642400  0.47475300  1
  N  33  1  0.45470000  0.98441500  0.49995200  1
  N  35  1  0.47134000  0.92887400  0.48150200  1
  N  37  1  0.47021700  0.87705000  0.48179100  1
  N  40  1  0.56035900  0.94656200  0.47544800  1
  N  70  1  0.74831500  0.81930600  0.60357400  1
  N  72  1  0.72854800  0.87133300  0.65060000  1
  N  77  1  0.74550100  0.82849300  0.54525500  1
  N  79  1  0.74740900  0.79470100  0.22921400  1
  N  82  1  0.74531200  0.82340300  0.28710200  1
  N  313  1  0.03527800  0.49213100  0.48848100  1
  N  316  1  0.95467400  0.49549300  0.50882700  1
  N  319  1  0.97131100  0.47702900  0.54590800  1
  N  321  1  0.97018600  0.47732300  0.59802600  1
  N  331  1  0.06032000  0.47097600  0.52217700  1
  N  332  1  0.93089000  0.51631700  0.47385400  1
  N  334  1  0.95470300  0.00215100  0.49555000  1
  N  336  1  0.97134100  0.05769600  0.51400800  1
  N  338  1  0.97021600  0.10952100  0.51371700  1
  N  348  1  0.06035800  0.04001000  0.52006100  1
  N  350  1  0.03524900  0.50256000  0.00587500  1
  N  353  1  0.95464300  0.48220700  0.98888200  1
  N  356  1  0.97127900  0.44512700  0.93334200  1
  N  358  1  0.97015600  0.39301300  0.88151900  1
  N  368  1  0.06028800  0.46886200  0.95102200  1
  N  369  1  0.93098400  0.51724700  0.04479900  1
  N  371  1  0.53527900  0.49443600  0.50702700  1
  N  374  1  0.45467200  0.49108100  0.48667900  1
  N  377  1  0.47131200  0.50954000  0.44959700  1
  N  379  1  0.47018500  0.50924600  0.39748100  1
  N  389  1  0.56032200  0.51559000  0.47333100  1
  N  390  1  0.43101400  0.47020300  0.52171700  1
  N  391  1  0.53530400  0.00140700  0.49660700  1
  N  395  1  0.43099200  0.04028500  0.52080700  1
  N  397  1  0.53524800  0.48401400  0.98963400  1
  N  400  1  0.45463700  0.50436100  0.00663000  1
  N  403  1  0.47128000  0.54144300  0.06216300  1
  N  405  1  0.47015700  0.59355700  0.11398800  1
  N  415  1  0.56029600  0.51770500  0.04448100  1
  N  416  1  0.43108700  0.46926200  0.95060700  1
  N  418  1  0.74178900  0.47855000  0.25868200  1
  N  421  1  0.74733500  0.42333000  0.19633700  1
  N  424  1  0.74828900  0.38744800  0.21794100  1
  N  426  1  0.72852100  0.34043100  0.22296000  1
  N  436  1  0.74547500  0.44575800  0.28545800  1
  N  437  1  0.74523500  0.45258700  0.16769300  1
  N  438  1  0.74180900  0.76891300  0.51247300  1
  N  441  1  0.74737900  0.76182700  0.56771100  1
  N  443  1  0.74528200  0.70394100  0.53854300  1
  N  445  1  0.74184600  0.73237200  0.22211900  1
  N  449  1  0.74834800  0.77308700  0.17173200  1
  N  451  1  0.72857900  0.76808200  0.11970100  1
  N  459  1  0.74549800  0.70557900  0.16254100  1
  N  461  1  0.24179100  0.50801600  0.73682900  1
  N  464  1  0.24733800  0.56324000  0.79917000  1
  N  467  1  0.24829100  0.59911900  0.77756300  1
  N  469  1  0.22852100  0.64613700  0.77254800  1
  N  479  1  0.24547300  0.54080700  0.71005000  1
  N  480  1  0.24524000  0.53400100  0.82783000  1
  N  482  1  0.24181600  0.21765600  0.48303500  1
  N  485  1  0.24737900  0.22474400  0.42779700  1
  N  488  1  0.24831900  0.16726400  0.39193300  1
  N  490  1  0.22854900  0.11523600  0.34490700  1
  N  500  1  0.24550200  0.15807800  0.45025300  1
  N  501  1  0.24528100  0.28263100  0.45696600  1
  N  503  1  0.24184500  0.25421200  0.77341400  1
  N  506  1  0.24739800  0.19186700  0.76629100  1
  N  509  1  0.24834400  0.21347300  0.82378100  1
  N  511  1  0.22858100  0.21849000  0.87581200  1
  N  521  1  0.24549800  0.28098700  0.83298200  1
  N  522  1  0.24530000  0.16322000  0.70839200  1
