# generated using pymatgen
data_CuH15C18I(NO)2
_symmetry_space_group_name_H-M   'P 1'
_cell_length_a   12.75946000
_cell_length_b   12.75755000
_cell_length_c   61.93751000
_cell_angle_alpha   90.01357000
_cell_angle_beta   89.99821000
_cell_angle_gamma   89.93084000
_symmetry_Int_Tables_number   1
_chemical_formula_structural   CuH15C18I(NO)2
_chemical_formula_sum   'Cu16 H240 C288 I16 N32 O32'
_cell_volume   10082.14611274
_cell_formula_units_Z   16
loop_
 _symmetry_equiv_pos_site_id
 _symmetry_equiv_pos_as_xyz
  1  'x, y, z'
loop_
 _atom_site_type_symbol
 _atom_site_label
 _atom_site_symmetry_multiplicity
 _atom_site_fract_x
 _atom_site_fract_y
 _atom_site_fract_z
 _atom_site_occupancy
  Cu  Cu0  1  0.04986000  0.03110000  0.07441000  1
  Cu  Cu1  1  0.05524000  0.00277000  0.11489000  1
  Cu  Cu2  1  0.94982000  0.97017000  0.57451000  1
  Cu  Cu3  1  0.94477000  0.99777000  0.61500000  1
  Cu  Cu4  1  0.53164000  0.44724000  0.32436000  1
  Cu  Cu5  1  0.50483000  0.44453000  0.36486000  1
  Cu  Cu6  1  0.46801000  0.55262000  0.82461000  1
  Cu  Cu7  1  0.49551000  0.55538000  0.86506000  1
  Cu  Cu8  1  0.55271000  0.46817000  0.17547000  1
  Cu  Cu9  1  0.55579000  0.49552000  0.13493000  1
  Cu  Cu10  1  0.44757000  0.53151000  0.67548000  1
  Cu  Cu11  1  0.44480000  0.50408000  0.63491000  1
  Cu  Cu12  1  0.03019000  0.05028000  0.92540000  1
  Cu  Cu13  1  0.00364000  0.05586000  0.88494000  1
  Cu  Cu14  1  0.96972000  0.94984000  0.42543000  1
  Cu  Cu15  1  0.99652000  0.94442000  0.38497000  1
  H  H16  1  0.51354000  0.05619000  0.89555000  1
  H  H17  1  0.37689000  0.19781000  0.89327000  1
  H  H18  1  0.37197000  0.35885000  0.87022000  1
  H  H19  1  0.62826000  0.48605000  0.90150000  1
  H  H20  1  0.64434000  0.33105000  0.92603000  1
  H  H21  1  0.64737000  0.91140000  0.88776000  1
  H  H22  1  0.62884000  0.74975000  0.86497000  1
  H  H23  1  0.40421000  0.62645000  0.90565000  1
  H  H24  1  0.41471000  0.78034000  0.93056000  1
  H  H25  1  0.40325000  0.32471000  0.94397000  1
  H  H26  1  0.43511000  0.35749000  0.97130000  1
  H  H27  1  0.36702000  0.23750000  0.96544000  1
  H  H28  1  0.68091000  0.80853000  0.93896000  1
  H  H29  1  0.65563000  0.74681000  0.96451000  1
  H  H30  1  0.71740000  0.87376000  0.96346000  1
  H  H31  1  0.55638000  0.06157000  0.04420000  1
  H  H32  1  0.82106000  0.92833000  0.01048000  1
  H  H33  1  0.97399000  0.92126000  0.03537000  1
  H  H34  1  0.86364000  0.17165000  0.07139000  1
  H  H35  1  0.70216000  0.18599000  0.04842000  1
  H  H36  1  0.42099000  0.93223000  0.05091000  1
  H  H37  1  0.25808000  0.92562000  0.07344000  1
  H  H38  1  0.11660000  0.15685000  0.03677000  1
  H  H39  1  0.27099000  0.17083000  0.01234000  1
  H  H40  1  0.71902000  0.19565000  0.96586000  1
  H  H41  1  0.84396000  0.13295000  0.96376000  1
  H  H42  1  0.80424000  0.19129000  0.98899000  1
  H  H43  1  0.37534000  0.90273000  0.97148000  1
  H  H44  1  0.25162000  0.96604000  0.96712000  1
  H  H45  1  0.28579000  0.92035000  0.99360000  1
  H  H46  1  0.48643000  0.94582000  0.39529000  1
  H  H47  1  0.62257000  0.80306000  0.39307000  1
  H  H48  1  0.63067000  0.64091000  0.37045000  1
  H  H49  1  0.37150000  0.51443000  0.40077000  1
  H  H50  1  0.35300000  0.67019000  0.42512000  1
  H  H51  1  0.35152000  0.08964000  0.38794000  1
  H  H52  1  0.37063000  0.25081000  0.36505000  1
  H  H53  1  0.59721000  0.37289000  0.40549000  1
  H  H54  1  0.58651000  0.21887000  0.43038000  1
  H  H55  1  0.59522000  0.67705000  0.44394000  1
  H  H56  1  0.55774000  0.64163000  0.47094000  1
  H  H57  1  0.62549000  0.76305000  0.46606000  1
  H  H58  1  0.32020000  0.19269000  0.43905000  1
  H  H59  1  0.34463000  0.25284000  0.46479000  1
  H  H60  1  0.28283000  0.12582000  0.46333000  1
  H  H61  1  0.44346000  0.94034000  0.54416000  1
  H  H62  1  0.17720000  0.07000000  0.51005000  1
  H  H63  1  0.02418000  0.07760000  0.53503000  1
  H  H64  1  0.13706000  0.83094000  0.57168000  1
  H  H65  1  0.29857000  0.81661000  0.54880000  1
  H  H66  1  0.57814000  0.06582000  0.55091000  1
  H  H67  1  0.74103000  0.07350000  0.57340000  1
  H  H68  1  0.88398000  0.84356000  0.53670000  1
  H  H69  1  0.72981000  0.82844000  0.51230000  1
  H  H70  1  0.28011000  0.80419000  0.46588000  1
  H  H71  1  0.15512000  0.86741000  0.46369000  1
  H  H72  1  0.19460000  0.80886000  0.48893000  1
  H  H73  1  0.62608000  0.09300000  0.47174000  1
  H  H74  1  0.74913000  0.02876000  0.46719000  1
  H  H75  1  0.71546000  0.07319000  0.49383000  1
  H  H76  1  0.55457000  0.98728000  0.14524000  1
  H  H77  1  0.69673000  0.12286000  0.14284000  1
  H  H78  1  0.85853000  0.12896000  0.12008000  1
  H  H79  1  0.98539000  0.87135000  0.15108000  1
  H  H80  1  0.83000000  0.85480000  0.17550000  1
  H  H81  1  0.41147000  0.85159000  0.13758000  1
  H  H82  1  0.24881000  0.86858000  0.11508000  1
  H  H83  1  0.12646000  0.09512000  0.15570000  1
  H  H84  1  0.28085000  0.08432000  0.18046000  1
  H  H85  1  0.82138000  0.09640000  0.19369000  1
  H  H86  1  0.85708000  0.06099000  0.22080000  1
  H  H87  1  0.73561000  0.12800000  0.21579000  1
  H  H88  1  0.30901000  0.81851000  0.18868000  1
  H  H89  1  0.24777000  0.84279000  0.21434000  1
  H  H90  1  0.37431000  0.77967000  0.21301000  1
  H  H91  1  0.55836000  0.94131000  0.29404000  1
  H  H92  1  0.43089000  0.67594000  0.26016000  1
  H  H93  1  0.42283000  0.52328000  0.28517000  1
  H  H94  1  0.66952000  0.63576000  0.32187000  1
  H  H95  1  0.68373000  0.79720000  0.29902000  1
  H  H96  1  0.43246000  0.07697000  0.30079000  1
  H  H97  1  0.42638000  0.24009000  0.32328000  1
  H  H98  1  0.65778000  0.38026000  0.28649000  1
  H  H99  1  0.67014000  0.22598000  0.26194000  1
  H  H100  1  0.69792000  0.78125000  0.21570000  1
  H  H101  1  0.63724000  0.65543000  0.21324000  1
  H  H102  1  0.69555000  0.69420000  0.23850000  1
  H  H103  1  0.40530000  0.12397000  0.22180000  1
  H  H104  1  0.46983000  0.24646000  0.21705000  1
  H  H105  1  0.42562000  0.21401000  0.24375000  1
  H  H106  1  0.44442000  0.01202000  0.64552000  1
  H  H107  1  0.30119000  0.87551000  0.64346000  1
  H  H108  1  0.13963000  0.87058000  0.62058000  1
  H  H109  1  0.01536000  0.13061000  0.65111000  1
  H  H110  1  0.17043000  0.14614000  0.67563000  1
  H  H111  1  0.58753000  0.14733000  0.63759000  1
  H  H112  1  0.74958000  0.12913000  0.61485000  1
  H  H113  1  0.87389000  0.90535000  0.65569000  1
  H  H114  1  0.71953000  0.91578000  0.68052000  1
  H  H115  1  0.17704000  0.90664000  0.69389000  1
  H  H116  1  0.14247000  0.93983000  0.72115000  1
  H  H117  1  0.26283000  0.87115000  0.71572000  1
  H  H118  1  0.69147000  0.18262000  0.68867000  1
  H  H119  1  0.75286000  0.15851000  0.71431000  1
  H  H120  1  0.62631000  0.22148000  0.71304000  1
  H  H121  1  0.44212000  0.05837000  0.79419000  1
  H  H122  1  0.56900000  0.32518000  0.76015000  1
  H  H123  1  0.57606000  0.47827000  0.78504000  1
  H  H124  1  0.33124000  0.36447000  0.82201000  1
  H  H125  1  0.31704000  0.20301000  0.79914000  1
  H  H126  1  0.56821000  0.92229000  0.80089000  1
  H  H127  1  0.57415000  0.75917000  0.82334000  1
  H  H128  1  0.34226000  0.61956000  0.78668000  1
  H  H129  1  0.33004000  0.77350000  0.76208000  1
  H  H130  1  0.30354000  0.21915000  0.71543000  1
  H  H131  1  0.36311000  0.34576000  0.71373000  1
  H  H132  1  0.30414000  0.30347000  0.73870000  1
  H  H133  1  0.59429000  0.87661000  0.72162000  1
  H  H134  1  0.52993000  0.75374000  0.71694000  1
  H  H135  1  0.57515000  0.78635000  0.74357000  1
  H  H136  1  0.01257000  0.44398000  0.35441000  1
  H  H137  1  0.87584000  0.30192000  0.35645000  1
  H  H138  1  0.86954000  0.14042000  0.37931000  1
  H  H139  1  0.12893000  0.01419000  0.34884000  1
  H  H140  1  0.14558000  0.16924000  0.32430000  1
  H  H141  1  0.14791000  0.58763000  0.36234000  1
  H  H142  1  0.12900000  0.74950000  0.38504000  1
  H  H143  1  0.90351000  0.87198000  0.34427000  1
  H  H144  1  0.91457000  0.71727000  0.31952000  1
  H  H145  1  0.90620000  0.17741000  0.30607000  1
  H  H146  1  0.93932000  0.14213000  0.27886000  1
  H  H147  1  0.87084000  0.26288000  0.28417000  1
  H  H148  1  0.18232000  0.69066000  0.31129000  1
  H  H149  1  0.15793000  0.75264000  0.28572000  1
  H  H150  1  0.22062000  0.62596000  0.28683000  1
  H  H151  1  0.05853000  0.44216000  0.20577000  1
  H  H152  1  0.32539000  0.56889000  0.23985000  1
  H  H153  1  0.47793000  0.57627000  0.21481000  1
  H  H154  1  0.36396000  0.33027000  0.17805000  1
  H  H155  1  0.20252000  0.31709000  0.20092000  1
  H  H156  1  0.92252000  0.56864000  0.19921000  1
  H  H157  1  0.75976000  0.57472000  0.17668000  1
  H  H158  1  0.62001000  0.34211000  0.21323000  1
  H  H159  1  0.77423000  0.32916000  0.23774000  1
  H  H160  1  0.21883000  0.30315000  0.28441000  1
  H  H161  1  0.34513000  0.36340000  0.28637000  1
  H  H162  1  0.30396000  0.30453000  0.26131000  1
  H  H163  1  0.87636000  0.59453000  0.27827000  1
  H  H164  1  0.75388000  0.52991000  0.28297000  1
  H  H165  1  0.78648000  0.57486000  0.25629000  1
  H  H166  1  0.98830000  0.55577000  0.85440000  1
  H  H167  1  0.12507000  0.69885000  0.85646000  1
  H  H168  1  0.13124000  0.86052000  0.87920000  1
  H  H169  1  0.87001000  0.98501000  0.84921000  1
  H  H170  1  0.85353000  0.82999000  0.82461000  1
  H  H171  1  0.85432000  0.41327000  0.86259000  1
  H  H172  1  0.87284000  0.25122000  0.88525000  1
  H  H173  1  0.09509000  0.12677000  0.84405000  1
  H  H174  1  0.08409000  0.28113000  0.81926000  1
  H  H175  1  0.09268000  0.82421000  0.80614000  1
  H  H176  1  0.06072000  0.85721000  0.77873000  1
  H  H177  1  0.12928000  0.73719000  0.78459000  1
  H  H178  1  0.81564000  0.30847000  0.81098000  1
  H  H179  1  0.84175000  0.24683000  0.78548000  1
  H  H180  1  0.77833000  0.37313000  0.78647000  1
  H  H181  1  0.94193000  0.55824000  0.70576000  1
  H  H182  1  0.67591000  0.43043000  0.73975000  1
  H  H183  1  0.52268000  0.42293000  0.71488000  1
  H  H184  1  0.63519000  0.66900000  0.67806000  1
  H  H185  1  0.79688000  0.68339000  0.70091000  1
  H  H186  1  0.07703000  0.43354000  0.69888000  1
  H  H187  1  0.24043000  0.42693000  0.67650000  1
  H  H188  1  0.38121000  0.65702000  0.71350000  1
  H  H189  1  0.22721000  0.66916000  0.73810000  1
  H  H190  1  0.78100000  0.69654000  0.78439000  1
  H  H191  1  0.65460000  0.63652000  0.78633000  1
  H  H192  1  0.69594000  0.69520000  0.76126000  1
  H  H193  1  0.12401000  0.40622000  0.77852000  1
  H  H194  1  0.24714000  0.47053000  0.78275000  1
  H  H195  1  0.21262000  0.42484000  0.75625000  1
  H  H196  1  0.05626000  0.51459000  0.10446000  1
  H  H197  1  0.19723000  0.37858000  0.10688000  1
  H  H198  1  0.35910000  0.37077000  0.12946000  1
  H  H199  1  0.48672000  0.62824000  0.09864000  1
  H  H200  1  0.33224000  0.64470000  0.07396000  1
  H  H201  1  0.91086000  0.65003000  0.11188000  1
  H  H202  1  0.74961000  0.63142000  0.13473000  1
  H  H203  1  0.62891000  0.40226000  0.09463000  1
  H  H204  1  0.78312000  0.41252000  0.06981000  1
  H  H205  1  0.32502000  0.40448000  0.05593000  1
  H  H206  1  0.35838000  0.43810000  0.02867000  1
  H  H207  1  0.23884000  0.36863000  0.03421000  1
  H  H208  1  0.80705000  0.68030000  0.06087000  1
  H  H209  1  0.74691000  0.65450000  0.03517000  1
  H  H210  1  0.87337000  0.71725000  0.03650000  1
  H  H211  1  0.05754000  0.55637000  0.95580000  1
  H  H212  1  0.93219000  0.82441000  0.99020000  1
  H  H213  1  0.92468000  0.97746000  0.96522000  1
  H  H214  1  0.16803000  0.86185000  0.92794000  1
  H  H215  1  0.18142000  0.69985000  0.95070000  1
  H  H216  1  0.93158000  0.42084000  0.94923000  1
  H  H217  1  0.92422000  0.25755000  0.92687000  1
  H  H218  1  0.15917000  0.11807000  0.96286000  1
  H  H219  1  0.17303000  0.27235000  0.98731000  1
  H  H220  1  0.19587000  0.71916000  0.03412000  1
  H  H221  1  0.13327000  0.84428000  0.03642000  1
  H  H222  1  0.19176000  0.80535000  0.01117000  1
  H  H223  1  0.90672000  0.37336000  0.02828000  1
  H  H224  1  0.97170000  0.25065000  0.03282000  1
  H  H225  1  0.92687000  0.28388000  0.00622000  1
  H  H226  1  0.94434000  0.48727000  0.60443000  1
  H  H227  1  0.80309000  0.62179000  0.60681000  1
  H  H228  1  0.64158000  0.62836000  0.62963000  1
  H  H229  1  0.51397000  0.37147000  0.59870000  1
  H  H230  1  0.66923000  0.35428000  0.57419000  1
  H  H231  1  0.08830000  0.35273000  0.61210000  1
  H  H232  1  0.25016000  0.37068000  0.63488000  1
  H  H233  1  0.37311000  0.59626000  0.59436000  1
  H  H234  1  0.21911000  0.58560000  0.56943000  1
  H  H235  1  0.67466000  0.59273000  0.55572000  1
  H  H236  1  0.64240000  0.55895000  0.52838000  1
  H  H237  1  0.76201000  0.62821000  0.53416000  1
  H  H238  1  0.19146000  0.31946000  0.56090000  1
  H  H239  1  0.25311000  0.34478000  0.53534000  1
  H  H240  1  0.12588000  0.28314000  0.53641000  1
  H  H241  1  0.94055000  0.44347000  0.45577000  1
  H  H242  1  0.06931000  0.17659000  0.48991000  1
  H  H243  1  0.07685000  0.02392000  0.46489000  1
  H  H244  1  0.82981000  0.13651000  0.42836000  1
  H  H245  1  0.81678000  0.29908000  0.45110000  1
  H  H246  1  0.06898000  0.57930000  0.44922000  1
  H  H247  1  0.07615000  0.74279000  0.42683000  1
  H  H248  1  0.84141000  0.88192000  0.46282000  1
  H  H249  1  0.82836000  0.72814000  0.48745000  1
  H  H250  1  0.80529000  0.28015000  0.53458000  1
  H  H251  1  0.86708000  0.15436000  0.53601000  1
  H  H252  1  0.80736000  0.19716000  0.51112000  1
  H  H253  1  0.09739000  0.62475000  0.52833000  1
  H  H254  1  0.03322000  0.74776000  0.53307000  1
  H  H255  1  0.07842000  0.71540000  0.50643000  1
  C  C256  1  0.54165000  0.05507000  0.95773000  1
  C  C257  1  0.52948000  0.15044000  0.94665000  1
  C  C258  1  0.52161000  0.15181000  0.92400000  1
  C  C259  1  0.52192000  0.05571000  0.91303000  1
  C  C260  1  0.53243000  0.95930000  0.92362000  1
  C  C261  1  0.54455000  0.96034000  0.94620000  1
  C  C262  1  0.51317000  0.24946000  0.91131000  1
  C  C263  1  0.43570000  0.25894000  0.89534000  1
  C  C264  1  0.43191000  0.34829000  0.88257000  1
  C  C265  1  0.57443000  0.42010000  0.90027000  1
  C  C266  1  0.58310000  0.33367000  0.91384000  1
  C  C267  1  0.52939000  0.86157000  0.91080000  1
  C  C268  1  0.59065000  0.85112000  0.89206000  1
  C  C269  1  0.58129000  0.76167000  0.87939000  1
  C  C270  1  0.45687000  0.69164000  0.90236000  1
  C  C271  1  0.46280000  0.77764000  0.91608000  1
  C  C272  1  0.42665000  0.29300000  0.95975000  1
  C  C273  1  0.65941000  0.82181000  0.95593000  1
  C  C274  1  0.54723000  0.05485000  0.98166000  1
  C  C275  1  0.64396000  0.05385000  0.99246000  1
  C  C276  1  0.64823000  0.05746000  0.01518000  1
  C  C277  1  0.55367000  0.05952000  0.02665000  1
  C  C278  1  0.45589000  0.05790000  0.01639000  1
  C  C279  1  0.45380000  0.05668000  0.99365000  1
  C  C280  1  0.74707000  0.05711000  0.02753000  1
  C  C281  1  0.82731000  0.98396000  0.02370000  1
  C  C282  1  0.91306000  0.98023000  0.03750000  1
  C  C283  1  0.84982000  0.11891000  0.05781000  1
  C  C284  1  0.76093000  0.12642000  0.04495000  1
  C  C285  1  0.36022000  0.05305000  0.02966000  1
  C  C286  1  0.35539000  0.98400000  0.04733000  1
  C  C287  1  0.26565000  0.98004000  0.05997000  1
  C  C288  1  0.18544000  0.10789000  0.03926000  1
  C  C289  1  0.27187000  0.11594000  0.02574000  1
  C  C290  1  0.77777000  0.14891000  0.97452000  1
  C  C291  1  0.31607000  0.95487000  0.97857000  1
  C  C292  1  0.45710000  0.94425000  0.45754000  1
  C  C293  1  0.46735000  0.84947000  0.44615000  1
  C  C294  1  0.47594000  0.84890000  0.42352000  1
  C  C295  1  0.47718000  0.94534000  0.41275000  1
  C  C296  1  0.46706000  0.04117000  0.42357000  1
  C  C297  1  0.45507000  0.03954000  0.44616000  1
  C  C298  1  0.48507000  0.75147000  0.41077000  1
  C  C299  1  0.56381000  0.74184000  0.39506000  1
  C  C300  1  0.56923000  0.65192000  0.38247000  1
  C  C301  1  0.42527000  0.58044000  0.39970000  1
  C  C302  1  0.41520000  0.66717000  0.41314000  1
  C  C303  1  0.47026000  0.13904000  0.41083000  1
  C  C304  1  0.40862000  0.14972000  0.39215000  1
  C  C305  1  0.41843000  0.23890000  0.37943000  1
  C  C306  1  0.54390000  0.30818000  0.40225000  1
  C  C307  1  0.53785000  0.22227000  0.41599000  1
  C  C308  1  0.56822000  0.70692000  0.45964000  1
  C  C309  1  0.34101000  0.17832000  0.45602000  1
  C  C310  1  0.45216000  0.94336000  0.48152000  1
  C  C311  1  0.35554000  0.94576000  0.49239000  1
  C  C312  1  0.35135000  0.94316000  0.51514000  1
  C  C313  1  0.44600000  0.94092000  0.52659000  1
  C  C314  1  0.54373000  0.94074000  0.51629000  1
  C  C315  1  0.54559000  0.94043000  0.49354000  1
  C  C316  1  0.25260000  0.94368000  0.52753000  1
  C  C317  1  0.17164000  0.01576000  0.52352000  1
  C  C318  1  0.08582000  0.01958000  0.53730000  1
  C  C319  1  0.15040000  0.88307000  0.55799000  1
  C  C320  1  0.23938000  0.87552000  0.54516000  1
  C  C321  1  0.63967000  0.94602000  0.52952000  1
  C  C322  1  0.64413000  0.01471000  0.54727000  1
  C  C323  1  0.73392000  0.01933000  0.55988000  1
  C  C324  1  0.81488000  0.89219000  0.53917000  1
  C  C325  1  0.72844000  0.88357000  0.52565000  1
  C  C326  1  0.22124000  0.85111000  0.47446000  1
  C  C327  1  0.68492000  0.04002000  0.47870000  1
  C  C328  1  0.55610000  0.95544000  0.20745000  1
  C  C329  1  0.65055000  0.96785000  0.19612000  1
  C  C330  1  0.65116000  0.97714000  0.17351000  1
  C  C331  1  0.55486000  0.97751000  0.16269000  1
  C  C332  1  0.45914000  0.96598000  0.17346000  1
  C  C333  1  0.46104000  0.95310000  0.19604000  1
  C  C334  1  0.74855000  0.98620000  0.16081000  1
  C  C335  1  0.75800000  0.06410000  0.14494000  1
  C  C336  1  0.84765000  0.06838000  0.13228000  1
  C  C337  1  0.91937000  0.92524000  0.14987000  1
  C  C338  1  0.83281000  0.91621000  0.16335000  1
  C  C339  1  0.36129000  0.96911000  0.16070000  1
  C  C340  1  0.35074000  0.90778000  0.14198000  1
  C  C341  1  0.26086000  0.91665000  0.12943000  1
  C  C342  1  0.19131000  0.04186000  0.15237000  1
  C  C343  1  0.27763000  0.03609000  0.16600000  1
  C  C344  1  0.79180000  0.07041000  0.20947000  1
  C  C345  1  0.32259000  0.83869000  0.20570000  1
  C  C346  1  0.55682000  0.94979000  0.23144000  1
  C  C347  1  0.55548000  0.85319000  0.24234000  1
  C  C348  1  0.55775000  0.84918000  0.26509000  1
  C  C349  1  0.55830000  0.94387000  0.27649000  1
  C  C350  1  0.55767000  0.04143000  0.26619000  1
  C  C351  1  0.55839000  0.04316000  0.24346000  1
  C  C352  1  0.55740000  0.75078000  0.27758000  1
  C  C353  1  0.48535000  0.67002000  0.27358000  1
  C  C354  1  0.48128000  0.58442000  0.28741000  1
  C  C355  1  0.61755000  0.64903000  0.30814000  1
  C  C356  1  0.62511000  0.73795000  0.29531000  1
  C  C357  1  0.55264000  0.13736000  0.27938000  1
  C  C358  1  0.48414000  0.14240000  0.29714000  1
  C  C359  1  0.48044000  0.23223000  0.30974000  1
  C  C360  1  0.60823000  0.31187000  0.28896000  1
  C  C361  1  0.61557000  0.22550000  0.27540000  1
  C  C362  1  0.65226000  0.72115000  0.22418000  1
  C  C363  1  0.45855000  0.18273000  0.22866000  1
  C  C364  1  0.44462000  0.04484000  0.70765000  1
  C  C365  1  0.34967000  0.03213000  0.69651000  1
  C  C366  1  0.34830000  0.02265000  0.67388000  1
  C  C367  1  0.44446000  0.02205000  0.66297000  1
  C  C368  1  0.54059000  0.03389000  0.67358000  1
  C  C369  1  0.53937000  0.04754000  0.69614000  1
  C  C370  1  0.25082000  0.01360000  0.66117000  1
  C  C371  1  0.24062000  0.93516000  0.64541000  1
  C  C372  1  0.15106000  0.93145000  0.63270000  1
  C  C373  1  0.08075000  0.07597000  0.65000000  1
  C  C374  1  0.16716000  0.08441000  0.66355000  1
  C  C375  1  0.63832000  0.03054000  0.66077000  1
  C  C376  1  0.64841000  0.09121000  0.64195000  1
  C  C377  1  0.73795000  0.08181000  0.62930000  1
  C  C378  1  0.80854000  0.95798000  0.65237000  1
  C  C379  1  0.72231000  0.96383000  0.66604000  1
  C  C380  1  0.20745000  0.93037000  0.70975000  1
  C  C381  1  0.67797000  0.16245000  0.70569000  1
  C  C382  1  0.44407000  0.05023000  0.73161000  1
  C  C383  1  0.44537000  0.14684000  0.74248000  1
  C  C384  1  0.44303000  0.15086000  0.76524000  1
  C  C385  1  0.44217000  0.05604000  0.77663000  1
  C  C386  1  0.44261000  0.95838000  0.76632000  1
  C  C387  1  0.44194000  0.95673000  0.74359000  1
  C  C388  1  0.44322000  0.24947000  0.77768000  1
  C  C389  1  0.51473000  0.33071000  0.77362000  1
  C  C390  1  0.51836000  0.41658000  0.78740000  1
  C  C391  1  0.38297000  0.35133000  0.80825000  1
  C  C392  1  0.37555000  0.26234000  0.79542000  1
  C  C393  1  0.44754000  0.86235000  0.77952000  1
  C  C394  1  0.51622000  0.85706000  0.79725000  1
  C  C395  1  0.51979000  0.76724000  0.80987000  1
  C  C396  1  0.39177000  0.68790000  0.78915000  1
  C  C397  1  0.38453000  0.77420000  0.77556000  1
  C  C398  1  0.34816000  0.27866000  0.72432000  1
  C  C399  1  0.54153000  0.81755000  0.72854000  1
  C  C400  1  0.04482000  0.44427000  0.29230000  1
  C  C401  1  0.03217000  0.34932000  0.30343000  1
  C  C402  1  0.02285000  0.34785000  0.32605000  1
  C  C403  1  0.02259000  0.44398000  0.33697000  1
  C  C404  1  0.03421000  0.54010000  0.32637000  1
  C  C405  1  0.04728000  0.53899000  0.30380000  1
  C  C406  1  0.01346000  0.25036000  0.33873000  1
  C  C407  1  0.93503000  0.24090000  0.35450000  1
  C  C408  1  0.93057000  0.15139000  0.36721000  1
  C  C409  1  0.07467000  0.07996000  0.34993000  1
  C  C410  1  0.08376000  0.16625000  0.33636000  1
  C  C411  1  0.03049000  0.63764000  0.33920000  1
  C  C412  1  0.09143000  0.64814000  0.35797000  1
  C  C413  1  0.08166000  0.73768000  0.37060000  1
  C  C414  1  0.95689000  0.80726000  0.34759000  1
  C  C415  1  0.96309000  0.72102000  0.33393000  1
  C  C416  1  0.92998000  0.20747000  0.29018000  1
  C  C417  1  0.16183000  0.67755000  0.29427000  1
  C  C418  1  0.05017000  0.44388000  0.26835000  1
  C  C419  1  0.14677000  0.44525000  0.25749000  1
  C  C420  1  0.15089000  0.44311000  0.23474000  1
  C  C421  1  0.05615000  0.44225000  0.22333000  1
  C  C422  1  0.95854000  0.44247000  0.23365000  1
  C  C423  1  0.95675000  0.44181000  0.25637000  1
  C  C424  1  0.24943000  0.44332000  0.22230000  1
  C  C425  1  0.33071000  0.51473000  0.22636000  1
  C  C426  1  0.41637000  0.51828000  0.21253000  1
  C  C427  1  0.35106000  0.38239000  0.19177000  1
  C  C428  1  0.26208000  0.37542000  0.20460000  1
  C  C429  1  0.86258000  0.44754000  0.22047000  1
  C  C430  1  0.85734000  0.51661000  0.20281000  1
  C  C431  1  0.76764000  0.52031000  0.19016000  1
  C  C432  1  0.68824000  0.39188000  0.21081000  1
  C  C433  1  0.77458000  0.38431000  0.22438000  1
  C  C434  1  0.27849000  0.34828000  0.27568000  1
  C  C435  1  0.81757000  0.54147000  0.27136000  1
  C  C436  1  0.95483000  0.55559000  0.79232000  1
  C  C437  1  0.96769000  0.65058000  0.80347000  1
  C  C438  1  0.97732000  0.65207000  0.82610000  1
  C  C439  1  0.97796000  0.55583000  0.83697000  1
  C  C440  1  0.96583000  0.45971000  0.82635000  1
  C  C441  1  0.95195000  0.46078000  0.80381000  1
  C  C442  1  0.98668000  0.74952000  0.83883000  1
  C  C443  1  0.06550000  0.75952000  0.85452000  1
  C  C444  1  0.06984000  0.84918000  0.86720000  1
  C  C445  1  0.92485000  0.91969000  0.85012000  1
  C  C446  1  0.91588000  0.83332000  0.83655000  1
  C  C447  1  0.96981000  0.36216000  0.83918000  1
  C  C448  1  0.91002000  0.35223000  0.85811000  1
  C  C449  1  0.91977000  0.26274000  0.87074000  1
  C  C450  1  0.04263000  0.19208000  0.84747000  1
  C  C451  1  0.03641000  0.27826000  0.83380000  1
  C  C452  1  0.06971000  0.79285000  0.79030000  1
  C  C453  1  0.83714000  0.32192000  0.79403000  1
  C  C454  1  0.94972000  0.55614000  0.76837000  1
  C  C455  1  0.85323000  0.55479000  0.75747000  1
  C  C456  1  0.84935000  0.55713000  0.73472000  1
  C  C457  1  0.94416000  0.55812000  0.72332000  1
  C  C458  1  0.04172000  0.55784000  0.73366000  1
  C  C459  1  0.04325000  0.55833000  0.75640000  1
  C  C460  1  0.75083000  0.55675000  0.72226000  1
  C  C461  1  0.66992000  0.48494000  0.72633000  1
  C  C462  1  0.58402000  0.48109000  0.71258000  1
  C  C463  1  0.64866000  0.61706000  0.69177000  1
  C  C464  1  0.73775000  0.62460000  0.70457000  1
  C  C465  1  0.13779000  0.55283000  0.72048000  1
  C  C466  1  0.14262000  0.48484000  0.70263000  1
  C  C467  1  0.23257000  0.48091000  0.69004000  1
  C  C468  1  0.31264000  0.60787000  0.71095000  1
  C  C469  1  0.22631000  0.61515000  0.72454000  1
  C  C470  1  0.72130000  0.65154000  0.77565000  1
  C  C471  1  0.18256000  0.45875000  0.77136000  1
  C  C472  1  0.05564000  0.54264000  0.04227000  1
  C  C473  1  0.15089000  0.53063000  0.05340000  1
  C  C474  1  0.15229000  0.52318000  0.07605000  1
  C  C475  1  0.05615000  0.52322000  0.08699000  1
  C  C476  1  0.95990000  0.53352000  0.07636000  1
  C  C477  1  0.96077000  0.54546000  0.05377000  1
  C  C478  1  0.24977000  0.51438000  0.08876000  1
  C  C479  1  0.25873000  0.43689000  0.10474000  1
  C  C480  1  0.34852000  0.43179000  0.11734000  1
  C  C481  1  0.42073000  0.57446000  0.09979000  1
  C  C482  1  0.33446000  0.58364000  0.08620000  1
  C  C483  1  0.86230000  0.53005000  0.08919000  1
  C  C484  1  0.85107000  0.59250000  0.10774000  1
  C  C485  1  0.76173000  0.58298000  0.12043000  1
  C  C486  1  0.69334000  0.45605000  0.09781000  1
  C  C487  1  0.77948000  0.46177000  0.08412000  1
  C  C488  1  0.29377000  0.42825000  0.04014000  1
  C  C489  1  0.82137000  0.65896000  0.04393000  1
  C  C490  1  0.05600000  0.54802000  0.01833000  1
  C  C491  1  0.05386000  0.64475000  0.00751000  1
  C  C492  1  0.05627000  0.64889000  0.98476000  1
  C  C493  1  0.05757000  0.55410000  0.97336000  1
  C  C494  1  0.05786000  0.45637000  0.98363000  1
  C  C495  1  0.05869000  0.45454000  0.00635000  1
  C  C496  1  0.05623000  0.74748000  0.97233000  1
  C  C497  1  0.98554000  0.82940000  0.97657000  1
  C  C498  1  0.98195000  0.91525000  0.96280000  1
  C  C499  1  0.11650000  0.84898000  0.94175000  1
  C  C500  1  0.12354000  0.75980000  0.95453000  1
  C  C501  1  0.05308000  0.36054000  0.97038000  1
  C  C502  1  0.98344000  0.35532000  0.95281000  1
  C  C503  1  0.97918000  0.26540000  0.94024000  1
  C  C504  1  0.10891000  0.18617000  0.96058000  1
  C  C505  1  0.11699000  0.27265000  0.97411000  1
  C  C506  1  0.14918000  0.77834000  0.02557000  1
  C  C507  1  0.96007000  0.31481000  0.02131000  1
  C  C508  1  0.94499000  0.45729000  0.54226000  1
  C  C509  1  0.84964000  0.46805000  0.55340000  1
  C  C510  1  0.84834000  0.47675000  0.57604000  1
  C  C511  1  0.94450000  0.47786000  0.58696000  1
  C  C512  1  0.04076000  0.46765000  0.57633000  1
  C  C513  1  0.03979000  0.45536000  0.55376000  1
  C  C514  1  0.75091000  0.48552000  0.58877000  1
  C  C515  1  0.74181000  0.56317000  0.60473000  1
  C  C516  1  0.65225000  0.56775000  0.61743000  1
  C  C517  1  0.58004000  0.42514000  0.59986000  1
  C  C518  1  0.66648000  0.41587000  0.58631000  1
  C  C519  1  0.13835000  0.47075000  0.58914000  1
  C  C520  1  0.14875000  0.40936000  0.60786000  1
  C  C521  1  0.23824000  0.41857000  0.62052000  1
  C  C522  1  0.30804000  0.54346000  0.59764000  1
  C  C523  1  0.22201000  0.53768000  0.58393000  1
  C  C524  1  0.70652000  0.56881000  0.53998000  1
  C  C525  1  0.17816000  0.34088000  0.54394000  1
  C  C526  1  0.94506000  0.45210000  0.51833000  1
  C  C527  1  0.94635000  0.35540000  0.50749000  1
  C  C528  1  0.94340000  0.35128000  0.48476000  1
  C  C529  1  0.94186000  0.44601000  0.47333000  1
  C  C530  1  0.94296000  0.54373000  0.48363000  1
  C  C531  1  0.94358000  0.54567000  0.50636000  1
  C  C532  1  0.94337000  0.25249000  0.47239000  1
  C  C533  1  0.01513000  0.17127000  0.47643000  1
  C  C534  1  0.01884000  0.08554000  0.46263000  1
  C  C535  1  0.88230000  0.15024000  0.44197000  1
  C  C536  1  0.87527000  0.23948000  0.45474000  1
  C  C537  1  0.94774000  0.63963000  0.47039000  1
  C  C538  1  0.01702000  0.64477000  0.45277000  1
  C  C539  1  0.02112000  0.73464000  0.44018000  1
  C  C540  1  0.89154000  0.81375000  0.46056000  1
  C  C541  1  0.88394000  0.72755000  0.47416000  1
  C  C542  1  0.85097000  0.22178000  0.52557000  1
  C  C543  1  0.04466000  0.68407000  0.52144000  1
  I  I544  1  0.05360000  0.20170000  0.09949000  1
  I  I545  1  0.05004000  0.83335000  0.08903000  1
  I  I546  1  0.94667000  0.79922000  0.59948000  1
  I  I547  1  0.95064000  0.16781000  0.58921000  1
  I  I548  1  0.70248000  0.44617000  0.34927000  1
  I  I549  1  0.33397000  0.45016000  0.33914000  1
  I  I550  1  0.29719000  0.55373000  0.84961000  1
  I  I551  1  0.66546000  0.54909000  0.83934000  1
  I  I552  1  0.55374000  0.29805000  0.15032000  1
  I  I553  1  0.54964000  0.66620000  0.16062000  1
  I  I554  1  0.44673000  0.70213000  0.65055000  1
  I  I555  1  0.45075000  0.33385000  0.66080000  1
  I  I556  1  0.20181000  0.05261000  0.90053000  1
  I  I557  1  0.83309000  0.04944000  0.91050000  1
  I  I558  1  0.79845000  0.94689000  0.40072000  1
  I  I559  1  0.16712000  0.95020000  0.41072000  1
  N  N560  1  0.50047000  0.42829000  0.88469000  1
  N  N561  1  0.51422000  0.68296000  0.88406000  1
  N  N562  1  0.92526000  0.04613000  0.05446000  1
  N  N563  1  0.18078000  0.04063000  0.05611000  1
  N  N564  1  0.50069000  0.57183000  0.38442000  1
  N  N565  1  0.48596000  0.31733000  0.38404000  1
  N  N566  1  0.07425000  0.95484000  0.55445000  1
  N  N567  1  0.81936000  0.95963000  0.55598000  1
  N  N568  1  0.92760000  0.99956000  0.13437000  1
  N  N569  1  0.18209000  0.98383000  0.13416000  1
  N  N570  1  0.54597000  0.57289000  0.30458000  1
  N  N571  1  0.54125000  0.31681000  0.30586000  1
  N  N572  1  0.07180000  0.00120000  0.63460000  1
  N  N573  1  0.81724000  0.01543000  0.63409000  1
  N  N574  1  0.45395000  0.42790000  0.80461000  1
  N  N575  1  0.45871000  0.68282000  0.80606000  1
  N  N576  1  0.99977000  0.07161000  0.36531000  1
  N  N577  1  0.01455000  0.81645000  0.36585000  1
  N  N578  1  0.42749000  0.45369000  0.19533000  1
  N  N579  1  0.68322000  0.45916000  0.19395000  1
  N  N580  1  0.00019000  0.92858000  0.86538000  1
  N  N581  1  0.98582000  0.18333000  0.86584000  1
  N  N582  1  0.57241000  0.54572000  0.69541000  1
  N  N583  1  0.31740000  0.54122000  0.69399000  1
  N  N584  1  0.42880000  0.50004000  0.11528000  1
  N  N585  1  0.68369000  0.51482000  0.11591000  1
  N  N586  1  0.04577000  0.92592000  0.94547000  1
  N  N587  1  0.04047000  0.18085000  0.94394000  1
  N  N588  1  0.57189000  0.49960000  0.61534000  1
  N  N589  1  0.31700000  0.48567000  0.61588000  1
  N  N590  1  0.95389000  0.07393000  0.44552000  1
  N  N591  1  0.95977000  0.81909000  0.44390000  1
  O  O592  1  0.52839000  0.24213000  0.95874000  1
  O  O593  1  0.55562000  0.86791000  0.95775000  1
  O  O594  1  0.73541000  0.04765000  0.98054000  1
  O  O595  1  0.35935000  0.05810000  0.98265000  1
  O  O596  1  0.46622000  0.75674000  0.45782000  1
  O  O597  1  0.44474000  0.13201000  0.45774000  1
  O  O598  1  0.26415000  0.95228000  0.48048000  1
  O  O599  1  0.64020000  0.93721000  0.48259000  1
  O  O600  1  0.74279000  0.96819000  0.20789000  1
  O  O601  1  0.36931000  0.94192000  0.20774000  1
  O  O602  1  0.55039000  0.76159000  0.23048000  1
  O  O603  1  0.56115000  0.13772000  0.23254000  1
  O  O604  1  0.25852000  0.03172000  0.70868000  1
  O  O605  1  0.63159000  0.05894000  0.70769000  1
  O  O606  1  0.45009000  0.23837000  0.73058000  1
  O  O607  1  0.43894000  0.86230000  0.73261000  1
  O  O608  1  0.03154000  0.25820000  0.29126000  1
  O  O609  1  0.05839000  0.63114000  0.29224000  1
  O  O610  1  0.23817000  0.45015000  0.26943000  1
  O  O611  1  0.86232000  0.43884000  0.26736000  1
  O  O612  1  0.96839000  0.74161000  0.79128000  1
  O  O613  1  0.94069000  0.36853000  0.79225000  1
  O  O614  1  0.76171000  0.54973000  0.76938000  1
  O  O615  1  0.13767000  0.56129000  0.76738000  1
  O  O616  1  0.24239000  0.52954000  0.04129000  1
  O  O617  1  0.86809000  0.55544000  0.04227000  1
  O  O618  1  0.04784000  0.73608000  0.01947000  1
  O  O619  1  0.06254000  0.36010000  0.01737000  1
  O  O620  1  0.75793000  0.46749000  0.54133000  1
  O  O621  1  0.13231000  0.44475000  0.54224000  1
  O  O622  1  0.95225000  0.26388000  0.51940000  1
  O  O623  1  0.94171000  0.64029000  0.51732000  1
