# generated using pymatgen
data_Li2H24C12ClO6
_symmetry_space_group_name_H-M   'P 1'
_cell_length_a   10.77859000
_cell_length_b   11.40721000
_cell_length_c   10.77986000
_cell_angle_alpha   111.24223000
_cell_angle_beta   99.95011000
_cell_angle_gamma   111.25740000
_symmetry_Int_Tables_number   1
_chemical_formula_structural   Li2H24C12ClO6
_chemical_formula_sum   'Li4 H48 C24 Cl2 O12'
_cell_volume   1078.43330511
_cell_formula_units_Z   2
loop_
 _symmetry_equiv_pos_site_id
 _symmetry_equiv_pos_as_xyz
  1  'x, y, z'
loop_
 _atom_site_type_symbol
 _atom_site_label
 _atom_site_symmetry_multiplicity
 _atom_site_fract_x
 _atom_site_fract_y
 _atom_site_fract_z
 _atom_site_occupancy
  Li  Li0  1  0.37640000  0.07257000  0.22518000  1
  Li  Li1  1  0.77487000  0.42719000  0.62319000  1
  Li  Li2  1  0.62360000  0.92743000  0.77482000  1
  Li  Li3  1  0.22513000  0.57281000  0.37681000  1
  H  H4  1  0.16866000  0.09535000  0.03715000  1
  H  H5  1  0.04798000  0.12818000  0.12449000  1
  H  H6  1  0.11168000  0.17364000  0.37657000  1
  H  H7  1  0.27408000  0.17288000  0.45102000  1
  H  H8  1  0.11343000  0.84462000  0.18927000  1
  H  H9  1  0.18544000  0.84329000  0.35222000  1
  H  H10  1  0.43616000  0.88494000  0.41722000  1
  H  H11  1  0.52852000  0.92539000  0.30380000  1
  H  H12  1  0.57689000  0.24713000  0.15210000  1
  H  H13  1  0.53886000  0.16682000  0.96345000  1
  H  H14  1  0.33744000  0.91671000  0.82289000  1
  H  H15  1  0.24912000  0.84604000  0.92614000  1
  H  H16  1  0.96317000  0.40547000  0.83176000  1
  H  H17  1  0.87542000  0.37230000  0.95210000  1
  H  H18  1  0.62376000  0.32678000  0.88843000  1
  H  H19  1  0.54902000  0.32745000  0.72605000  1
  H  H20  1  0.81126000  0.65483000  0.88618000  1
  H  H21  1  0.64787000  0.65584000  0.81450000  1
  H  H22  1  0.58279000  0.61446000  0.56326000  1
  H  H23  1  0.69664000  0.57446000  0.47126000  1
  H  H24  1  0.84828000  0.25281000  0.42321000  1
  H  H25  1  0.03692000  0.33350000  0.46118000  1
  H  H26  1  0.17718000  0.58355000  0.66266000  1
  H  H27  1  0.07371000  0.65390000  0.75087000  1
  H  H28  1  0.83133000  0.90465000  0.96285000  1
  H  H29  1  0.95201000  0.87182000  0.87551000  1
  H  H30  1  0.88832000  0.82636000  0.62343000  1
  H  H31  1  0.72591000  0.82712000  0.54898000  1
  H  H32  1  0.88657000  0.15538000  0.81074000  1
  H  H33  1  0.81455000  0.15671000  0.64778000  1
  H  H34  1  0.56384000  0.11506000  0.58278000  1
  H  H35  1  0.47148000  0.07461000  0.69620000  1
  H  H36  1  0.42311000  0.75287000  0.84790000  1
  H  H37  1  0.46114000  0.83319000  0.03655000  1
  H  H38  1  0.66255000  0.08329000  0.17712000  1
  H  H39  1  0.75087000  0.15396000  0.07386000  1
  H  H40  1  0.03682000  0.59453000  0.16824000  1
  H  H41  1  0.12458000  0.62770000  0.04790000  1
  H  H42  1  0.37623000  0.67322000  0.11157000  1
  H  H43  1  0.45097000  0.67255000  0.27395000  1
  H  H44  1  0.18873000  0.34518000  0.11382000  1
  H  H45  1  0.35213000  0.34416000  0.18550000  1
  H  H46  1  0.41720000  0.38554000  0.43674000  1
  H  H47  1  0.30335000  0.42554000  0.52874000  1
  H  H48  1  0.15171000  0.74719000  0.57679000  1
  H  H49  1  0.96307000  0.66650000  0.53882000  1
  H  H50  1  0.82281000  0.41645000  0.33734000  1
  H  H51  1  0.92629000  0.34610000  0.24913000  1
  C  C52  1  0.16044000  0.15809000  0.13784000  1
  C  C53  1  0.22156000  0.20272000  0.37915000  1
  C  C54  1  0.18450000  0.81461000  0.24275000  1
  C  C55  1  0.42570000  0.85917000  0.30626000  1
  C  C56  1  0.54449000  0.14744000  0.05639000  1
  C  C57  1  0.35303000  0.91150000  0.92409000  1
  C  C58  1  0.86225000  0.34246000  0.83975000  1
  C  C59  1  0.62111000  0.29769000  0.77856000  1
  C  C60  1  0.75729000  0.68471000  0.81526000  1
  C  C61  1  0.69380000  0.64036000  0.57397000  1
  C  C62  1  0.94387000  0.35260000  0.45544000  1
  C  C63  1  0.07591000  0.58852000  0.64701000  1
  C  C64  1  0.83955000  0.84191000  0.86216000  1
  C  C65  1  0.77844000  0.79728000  0.62085000  1
  C  C66  1  0.81549000  0.18539000  0.75726000  1
  C  C67  1  0.57429000  0.14083000  0.69374000  1
  C  C68  1  0.45550000  0.85256000  0.94361000  1
  C  C69  1  0.64696000  0.08850000  0.07592000  1
  C  C70  1  0.13774000  0.65754000  0.16025000  1
  C  C71  1  0.37888000  0.70231000  0.22144000  1
  C  C72  1  0.24271000  0.31529000  0.18475000  1
  C  C73  1  0.30620000  0.35964000  0.42603000  1
  C  C74  1  0.05612000  0.64741000  0.54456000  1
  C  C75  1  0.92408000  0.41148000  0.35299000  1
  Cl  Cl76  1  0.58529000  0.24994000  0.41459000  1
  Cl  Cl77  1  0.41470000  0.75007000  0.58541000  1
  O  O78  1  0.21725000  0.11794000  0.23882000  1
  O  O79  1  0.32505000  0.89894000  0.24797000  1
  O  O80  1  0.40189000  0.05262000  0.04035000  1
  O  O81  1  0.76142000  0.38274000  0.78286000  1
  O  O82  1  0.75211000  0.60064000  0.67465000  1
  O  O83  1  0.95961000  0.44740000  0.59792000  1
  O  O84  1  0.78274000  0.88206000  0.76118000  1
  O  O85  1  0.67495000  0.10106000  0.75203000  1
  O  O86  1  0.59811000  0.94739000  0.95965000  1
  O  O87  1  0.23858000  0.61726000  0.21715000  1
  O  O88  1  0.24788000  0.39936000  0.32535000  1
  O  O89  1  0.04038000  0.55260000  0.40208000  1
