# generated using pymatgen
data_H27C41N6
_symmetry_space_group_name_H-M   'P 1'
_cell_length_a   9.79286667
_cell_length_b   34.34320000
_cell_length_c   34.34310000
_cell_angle_alpha   89.83100000
_cell_angle_beta   90.00000000
_cell_angle_gamma   90.00000000
_symmetry_Int_Tables_number   1
_chemical_formula_structural   H27C41N6
_chemical_formula_sum   'H54 C82 N12'
_cell_volume   11550.16546046
_cell_formula_units_Z   2
loop_
 _symmetry_equiv_pos_site_id
 _symmetry_equiv_pos_as_xyz
  1  'x, y, z'
loop_
 _atom_site_type_symbol
 _atom_site_label
 _atom_site_symmetry_multiplicity
 _atom_site_fract_x
 _atom_site_fract_y
 _atom_site_fract_z
 _atom_site_occupancy
  C  1  1  0.88097200  0.98468900  0.21814900  1
  C  2  1  0.87721300  0.98369600  0.17705100  1
  C  3  1  0.93038500  0.96859000  0.30484900  1
  C  4  1  0.94011700  0.96982600  0.34591400  1
  C  5  1  0.88238400  0.19592900  0.01355000  1
  C  6  1  0.87822400  0.15483800  0.01473300  1
  C  7  1  0.94334200  0.32346500  0.02847800  1
  C  8  1  0.93316200  0.28240600  0.02963500  1
  C  9  1  0.88119400  0.99138300  0.84353100  1
  C  10  1  0.88605000  0.99054900  0.80244500  1
  C  11  1  0.93882900  0.00261100  0.67452300  1
  C  12  1  0.93370200  0.00588600  0.71553900  1
  C  13  1  0.88222100  0.82101800  0.00497600  1
  C  14  1  0.88704700  0.77993000  0.00608200  1
  C  15  1  0.94049300  0.69317900  0.99147400  1
  C  16  1  0.94584900  0.65213900  0.99469100  1
  C  33  1  0.96621600  0.98951000  0.46951500  1
  C  35  1  0.84766100  0.98666700  0.49261100  1
  C  41  1  0.85011100  0.47007700  0.01145800  1
  C  54  1  0.23816700  0.99895200  0.54509600  1
  C  56  1  0.24030100  0.52301500  0.00004300  1
  C  58  1  0.99532600  0.88772700  0.08393900  1
  C  59  1  0.99515800  0.91641500  0.11207600  1
  C  60  1  0.99388200  0.95267100  0.09350100  1
  C  62  1  0.99546400  0.90557200  0.04730600  1
  C  63  1  0.99661300  0.88534000  0.01104200  1
  C  64  1  0.99684700  0.90404100  0.97397100  1
  C  66  1  0.99738900  0.95007100  0.92712600  1
  C  67  1  0.99992533  0.91365000  0.90913900  1
  C  68  1  0.00013633  0.88541400  0.93787900  1
  C  69  1  0.99696200  0.98679800  0.90775000  1
  C  70  1  0.99556100  0.02342800  0.92724500  1
  C  72  1  0.99482700  0.07050000  0.97342000  1
  C  73  1  0.99511200  0.08836200  0.93679600  1
  C  74  1  0.99619400  0.05967900  0.90866200  1
  C  75  1  0.99446400  0.09071500  0.00967800  1
  C  76  1  0.99399800  0.07203700  0.04675100  1
  C  78  1  0.99414300  0.02603500  0.09361400  1
  C  79  1  0.99485200  0.06248100  0.11158000  1
  C  80  1  0.99549400  0.09070300  0.08282800  1
  C  81  1  0.99397700  0.98931100  0.11300600  1
  C  82  1  0.99709800  0.98940200  0.15482500  1
  C  83  1  0.12077500  0.99581300  0.17496800  1
  C  84  1  0.12395200  0.99691500  0.21599200  1
  C  85  1  0.00416900  0.99170800  0.23872300  1
  C  86  1  0.00835200  0.99380300  0.28070500  1
  C  87  1  0.02825800  0.99650500  0.36468900  1
  C  88  1  0.10401900  0.02224600  0.34075700  1
  C  89  1  0.09358200  0.02107400  0.29986400  1
  C  90  1  0.99773200  0.13252500  0.00886900  1
  C  91  1  0.12144800  0.15256600  0.00209600  1
  C  92  1  0.12503300  0.19358800  0.00082600  1
  C  93  1  0.00566100  0.21641200  0.00626600  1
  C  94  1  0.01031700  0.25840000  0.00423000  1
  C  95  1  0.09525800  0.27769600  0.97687100  1
  C  96  1  0.10613700  0.31859200  0.97577300  1
  C  97  1  0.03115900  0.34237200  0.00169700  1
  C  98  1  0.00118700  0.98678400  0.86595400  1
  C  99  1  0.01055200  0.98485600  0.78209100  1
  C  100  1  0.13040500  0.98081700  0.80501600  1
  C  101  1  0.12611400  0.98176100  0.84604000  1
  C  102  1  0.01519200  0.98211500  0.74016400  1
  C  103  1  0.10148100  0.95475700  0.72156400  1
  C  104  1  0.10646800  0.95138300  0.68071400  1
  C  105  1  0.02525100  0.97515000  0.65612400  1
  C  106  1  0.00069300  0.84351600  0.01180700  1
  C  107  1  0.12416500  0.82362300  0.01939700  1
  C  108  1  0.12838300  0.78259600  0.02068100  1
  C  109  1  0.00995900  0.75963700  0.01431900  1
  C  110  1  0.01431000  0.71770900  0.01714400  1
  C  111  1  0.02469500  0.63362700  0.02399100  1
  C  112  1  0.09795100  0.65815000  0.04970700  1
  C  113  1  0.09286200  0.69902400  0.04637900  1
  C  132  1  0.05035600  0.99656700  0.40490200  1
  C  133  1  0.05346600  0.38256900  0.00168800  1
  C  134  1  0.03275100  0.97023300  0.61561700  1
  C  135  1  0.03284500  0.59306600  0.02869900  1
  C  141  1  0.10023900  0.99366900  0.52847000  1
  C  142  1  0.97993900  0.99049500  0.55140300  1
  C  144  1  0.96896100  0.44710800  0.00880500  1
  C  146  1  0.10246100  0.50619600  0.00499300  1
  C  147  1  0.98185300  0.52900100  0.00798900  1
  H  17  1  0.89104800  0.63585000  0.97529900  1
  H  18  1  0.88349400  0.70503300  0.96947800  1
  H  19  1  0.79802200  0.76493200  0.00195000  1
  H  20  1  0.79097800  0.83448400  0.99948100  1
  H  21  1  0.78889200  0.99489800  0.85704400  1
  H  22  1  0.79607700  0.99286200  0.78750100  1
  H  23  1  0.78681000  0.14123700  0.01962700  1
  H  24  1  0.79279300  0.21078900  0.01712400  1
  H  25  1  0.87236100  0.27011100  0.05052700  1
  H  26  1  0.88929300  0.33942100  0.04832800  1
  H  27  1  0.78575000  0.97916800  0.16337800  1
  H  28  1  0.79107900  0.98135900  0.23294000  1
  H  29  1  0.88538700  0.95012600  0.36198400  1
  H  30  1  0.86913500  0.94781500  0.29266000  1
  H  31  1  0.87076400  0.02650100  0.72730000  1
  H  32  1  0.87791800  0.02050600  0.65817100  1
  H  36  1  0.75318500  0.98453200  0.48016900  1
  H  37  1  0.31424200  0.00327600  0.52223600  1
  H  38  1  0.26731500  0.97326300  0.56187700  1
  H  42  1  0.75567000  0.45753300  0.01344500  1
  H  43  1  0.31681600  0.50026300  0.99588800  1
  H  44  1  0.26845800  0.53966700  0.02580200  1
  H  46  1  0.22048900  0.76957500  0.02596900  1
  H  47  1  0.21215900  0.83895200  0.02422400  1
  H  48  1  0.21509000  0.97851200  0.86135100  1
  H  49  1  0.22351400  0.97741800  0.79197700  1
  H  50  1  0.21016500  0.13735800  0.99800200  1
  H  51  1  0.21755800  0.20668900  0.99642700  1
  H  52  1  0.21640500  0.00115600  0.22916100  1
  H  53  1  0.20969600  0.99989300  0.15982800  1
  H  55  1  0.23951400  0.02438800  0.56405800  1
  H  57  1  0.24209900  0.54213300  0.97461700  1
  H  114  1  0.15615700  0.64643200  0.07157000  1
  H  115  1  0.14564000  0.71510700  0.06638400  1
  H  116  1  0.99590800  0.85855000  0.08984900  1
  H  117  1  0.99596000  0.91110100  0.14136700  1
  H  118  1  0.99385600  0.96403000  0.03482300  1
  H  119  1  0.99464200  0.01204400  0.98591800  1
  H  120  1  0.00277600  0.85612600  0.93277200  1
  H  121  1  0.00177600  0.90803000  0.87994000  1
  H  122  1  0.99732400  0.06499500  0.87937200  1
  H  123  1  0.99493700  0.11754000  0.93089300  1
  H  124  1  0.99530200  0.06813700  0.14077500  1
  H  125  1  0.99683800  0.12000100  0.08791600  1
  H  126  1  0.17108700  0.33088300  0.95585600  1
  H  127  1  0.15108800  0.26207100  0.95718700  1
  H  128  1  0.14998000  0.04063800  0.28413200  1
  H  129  1  0.16923800  0.04208900  0.35294000  1
  H  130  1  0.16018000  0.93609200  0.73769800  1
  H  131  1  0.17038300  0.93088900  0.66907000  1
  H  136  1  0.14352000  0.00356900  0.41416400  1
  H  137  1  0.08489700  0.58286300  0.05147200  1
  H  138  1  0.08583600  0.94763300  0.60560400  1
  H  139  1  0.14662000  0.39187200  0.99466800  1
  N  34  1  0.85896900  0.98767300  0.53209500  1
  N  39  1  0.95728000  0.98953200  0.43056900  1
  N  40  1  0.86101800  0.50957500  0.01056300  1
  N  45  1  0.96031300  0.40816600  0.00872600  1
  N  61  1  0.99397900  0.94442800  0.05479800  1
  N  65  1  0.99537800  0.94268600  0.96590200  1
  N  71  1  0.99458000  0.03164700  0.96594300  1
  N  77  1  0.99335500  0.03339400  0.05483200  1
  N  140  1  0.08689800  0.99306100  0.48893900  1
  N  143  1  0.97578600  0.99279100  0.59028800  1
  N  145  1  0.08954900  0.46665000  0.00551200  1
  N  148  1  0.97731500  0.56790000  0.00582000  1
