# generated using pymatgen
data_H28C53(N2O)4
_symmetry_space_group_name_H-M   'P 1'
_cell_length_a   33.20020000
_cell_length_b   45.11950000
_cell_length_c   45.11950000
_cell_angle_alpha   90.00000000
_cell_angle_beta   90.00000000
_cell_angle_gamma   90.00000000
_symmetry_Int_Tables_number   1
_chemical_formula_structural   H28C53(N2O)4
_chemical_formula_sum   'H224 C424 N64 O32'
_cell_volume   67587.94725816
_cell_formula_units_Z   8
loop_
 _symmetry_equiv_pos_site_id
 _symmetry_equiv_pos_as_xyz
  1  'x, y, z'
loop_
 _atom_site_type_symbol
 _atom_site_label
 _atom_site_symmetry_multiplicity
 _atom_site_fract_x
 _atom_site_fract_y
 _atom_site_fract_z
 _atom_site_occupancy
  H  26  1  0.93132700  0.93590500  0.39359200  1
  H  27  1  0.98034200  0.94643300  0.35628500  1
  H  28  1  0.90282400  0.02671500  0.39901600  1
  H  29  1  0.95157400  0.03740000  0.36194500  1
  H  30  1  0.02511700  0.05431300  0.35326200  1
  H  31  1  0.08045200  0.06513000  0.38506600  1
  H  32  1  0.11080000  0.97446500  0.38734900  1
  H  33  1  0.05572400  0.96354800  0.35558700  1
  H  34  1  0.07015500  0.98766400  0.29855400  1
  H  35  1  0.08228200  0.95347400  0.25968400  1
  H  36  1  0.96167300  0.92468400  0.26421600  1
  H  37  1  0.94922100  0.95902200  0.30324400  1
  H  38  1  0.92399500  0.01295800  0.30779100  1
  H  39  1  0.04423300  0.04123400  0.29663700  1
  H  40  1  0.02243800  0.07652300  0.26065400  1
  H  45  1  0.90256800  0.04834600  0.27234100  1
  H  71  1  0.43091100  0.06272200  0.60551000  1
  H  72  1  0.47990700  0.05231800  0.64285700  1
  H  73  1  0.40347700  0.97176800  0.59957200  1
  H  74  1  0.45222100  0.96120300  0.63669100  1
  H  75  1  0.52589800  0.94450900  0.64582900  1
  H  76  1  0.58143700  0.93400800  0.61411100  1
  H  77  1  0.61062100  0.02487900  0.61167500  1
  H  78  1  0.55536800  0.03547100  0.64336200  1
  H  79  1  0.57011800  0.01142100  0.70042200  1
  H  80  1  0.58189200  0.04563100  0.73933000  1
  H  81  1  0.46096500  0.07370600  0.73486800  1
  H  82  1  0.44887700  0.03934200  0.69580500  1
  H  83  1  0.42399200  0.98536300  0.69082500  1
  H  84  1  0.54442200  0.95775600  0.70250100  1
  H  85  1  0.52270800  0.92239700  0.73843900  1
  H  90  1  0.40265800  0.94989700  0.72622000  1
  H  116  1  0.18092900  0.60547000  0.93606500  1
  H  117  1  0.22994800  0.64279900  0.94647500  1
  H  118  1  0.15326200  0.59970300  0.02699100  1
  H  119  1  0.20202900  0.63679800  0.03756000  1
  H  120  1  0.27573600  0.64566700  0.05422800  1
  H  121  1  0.33120300  0.61388300  0.06472800  1
  H  122  1  0.36058300  0.61162000  0.97388700  1
  H  123  1  0.30540200  0.64337400  0.96329700  1
  H  124  1  0.32010100  0.70041100  0.98749500  1
  H  125  1  0.33199200  0.73935000  0.95334600  1
  H  126  1  0.21117500  0.73489700  0.92502500  1
  H  127  1  0.19897000  0.69580100  0.95933200  1
  H  128  1  0.17407400  0.69100500  0.01334600  1
  H  129  1  0.29448100  0.70232100  0.04112900  1
  H  130  1  0.27287300  0.73829700  0.07648400  1
  H  135  1  0.15282400  0.72643700  0.04880200  1
  H  161  1  0.68153000  0.39367400  0.06273500  1
  H  162  1  0.73053600  0.35636700  0.05220300  1
  H  163  1  0.65261400  0.39880500  0.97198100  1
  H  164  1  0.70136700  0.36174100  0.96128900  1
  H  165  1  0.77499900  0.35337000  0.94446500  1
  H  166  1  0.83034200  0.38518400  0.93368900  1
  H  167  1  0.86095700  0.38707900  0.02431500  1
  H  168  1  0.80587600  0.35531400  0.03519000  1
  H  169  1  0.82000800  0.29830600  0.01092200  1
  H  170  1  0.83209800  0.25946200  0.04515500  1
  H  171  1  0.71162900  0.26434900  0.07420500  1
  H  172  1  0.69921300  0.30333700  0.03981500  1
  H  173  1  0.67406000  0.30756500  0.98585100  1
  H  174  1  0.79424000  0.29672100  0.95732400  1
  H  175  1  0.77246600  0.26074700  0.92202000  1
  H  180  1  0.65265000  0.27212000  0.95044700  1
  H  187  1  0.92587800  0.08863800  0.18702000  1
  H  192  1  0.88403800  0.15699400  0.24286600  1
  H  197  1  0.83936300  0.16177200  0.07355900  1
  H  198  1  0.80211700  0.22585400  0.13594200  1
  H  203  1  0.90452300  0.10703200  0.26259400  1
  H  204  1  0.80491800  0.20579200  0.05674900  1
  H  211  1  0.42598000  0.91004700  0.81177300  1
  H  216  1  0.38458800  0.84140300  0.75610100  1
  H  221  1  0.33895600  0.83732100  0.92528700  1
  H  222  1  0.30216700  0.77294300  0.86306600  1
  H  227  1  0.40497400  0.89132600  0.73622900  1
  H  228  1  0.30485400  0.79310300  0.94219300  1
  H  235  1  0.17600200  0.81178200  0.08872000  1
  H  240  1  0.13512200  0.75610300  0.15752500  1
  H  245  1  0.08910600  0.92523400  0.16162400  1
  H  246  1  0.05283400  0.86301000  0.22616200  1
  H  251  1  0.15519300  0.73625800  0.10747500  1
  H  252  1  0.05544500  0.94210900  0.20603300  1
  H  259  1  0.67591200  0.18698100  0.91005600  1
  H  264  1  0.63394300  0.24280600  0.84172900  1
  H  269  1  0.58896700  0.07353500  0.83718100  1
  H  270  1  0.55160300  0.13589400  0.77311300  1
  H  275  1  0.65453300  0.26254100  0.89167600  1
  H  276  1  0.55448800  0.05671800  0.79316900  1
  H  283  1  0.64369600  0.97353200  0.53430500  1
  H  288  1  0.74709900  0.98554900  0.58728700  1
  H  293  1  0.76801100  0.96938500  0.41631900  1
  H  294  1  0.86399300  0.98177700  0.47630800  1
  H  299  1  0.67987900  0.99206500  0.60832400  1
  H  300  1  0.83472200  0.98880700  0.39978500  1
  H  307  1  0.14378300  0.02661600  0.46463300  1
  H  312  1  0.24686400  0.01332100  0.41161100  1
  H  317  1  0.26832600  0.02958500  0.58254600  1
  H  318  1  0.36398000  0.01606900  0.52251700  1
  H  323  1  0.17952000  0.00747100  0.39064000  1
  H  324  1  0.33490200  0.00943700  0.59899100  1
  H  331  1  0.89375500  0.46457900  0.97224200  1
  H  336  1  0.99688100  0.41159400  0.98548000  1
  H  341  1  0.01821000  0.58254200  0.96922800  1
  H  342  1  0.11392200  0.52255000  0.98269000  1
  H  347  1  0.92955600  0.39058900  0.99133400  1
  H  348  1  0.08478100  0.59901400  0.98933700  1
  H  355  1  0.39361900  0.53415200  0.02532100  1
  H  360  1  0.49697000  0.58716500  0.01320100  1
  H  365  1  0.51801000  0.41621500  0.02942800  1
  H  366  1  0.61394000  0.47622900  0.01692000  1
  H  371  1  0.42980200  0.60812500  0.00667600  1
  H  372  1  0.58468700  0.39967600  0.00998600  1
  H  398  1  0.93132700  0.93590500  0.70387900  1
  H  399  1  0.98034200  0.94643300  0.66657200  1
  H  400  1  0.90282400  0.02671500  0.70930300  1
  H  401  1  0.95157400  0.03740000  0.67223200  1
  H  402  1  0.02511700  0.05431300  0.66354900  1
  H  403  1  0.08045200  0.06513000  0.69535300  1
  H  404  1  0.11080000  0.97446500  0.69763600  1
  H  405  1  0.05572400  0.96354800  0.66587400  1
  H  406  1  0.07015500  0.98766400  0.60884100  1
  H  407  1  0.08228200  0.95347400  0.56997100  1
  H  408  1  0.96167300  0.92468400  0.57450300  1
  H  409  1  0.94922100  0.95902200  0.61353100  1
  H  410  1  0.92399500  0.01295800  0.61807800  1
  H  411  1  0.04423300  0.04123400  0.60692400  1
  H  412  1  0.02243800  0.07652300  0.57094100  1
  H  417  1  0.90256800  0.04834600  0.58262800  1
  H  443  1  0.43091100  0.06272200  0.91579700  1
  H  444  1  0.47990700  0.05231800  0.95314400  1
  H  445  1  0.40347700  0.97176800  0.90985900  1
  H  446  1  0.45222100  0.96120300  0.94697800  1
  H  447  1  0.52589800  0.94450900  0.95611600  1
  H  448  1  0.58143700  0.93400800  0.92439800  1
  H  449  1  0.61062100  0.02487900  0.92196200  1
  H  450  1  0.55536800  0.03547100  0.95364900  1
  H  451  1  0.57011800  0.01142100  0.01070910  1
  H  452  1  0.58189200  0.04563100  0.04961710  1
  H  453  1  0.46096500  0.07370600  0.04515510  1
  H  454  1  0.44887700  0.03934200  0.00609213  1
  H  455  1  0.42399200  0.98536300  0.00111213  1
  H  456  1  0.54442200  0.95775600  0.01278810  1
  H  457  1  0.52270800  0.92239700  0.04872610  1
  H  462  1  0.40265800  0.94989700  0.03650710  1
  H  488  1  0.18092900  0.60547000  0.24635200  1
  H  489  1  0.22994800  0.64279900  0.25676200  1
  H  490  1  0.15326200  0.59970300  0.33727800  1
  H  491  1  0.20202900  0.63679800  0.34784700  1
  H  492  1  0.27573600  0.64566700  0.36451500  1
  H  493  1  0.33120300  0.61388300  0.37501500  1
  H  494  1  0.36058300  0.61162000  0.28417400  1
  H  495  1  0.30540200  0.64337400  0.27358400  1
  H  496  1  0.32010100  0.70041100  0.29778200  1
  H  497  1  0.33199200  0.73935000  0.26363300  1
  H  498  1  0.21117500  0.73489700  0.23531200  1
  H  499  1  0.19897000  0.69580100  0.26961900  1
  H  500  1  0.17407400  0.69100500  0.32363300  1
  H  501  1  0.29448100  0.70232100  0.35141600  1
  H  502  1  0.27287300  0.73829700  0.38677100  1
  H  507  1  0.15282400  0.72643700  0.35908900  1
  H  533  1  0.68153000  0.39367400  0.37302200  1
  H  534  1  0.73053600  0.35636700  0.36249000  1
  H  535  1  0.65261400  0.39880500  0.28226800  1
  H  536  1  0.70136700  0.36174100  0.27157600  1
  H  537  1  0.77499900  0.35337000  0.25475200  1
  H  538  1  0.83034200  0.38518400  0.24397600  1
  H  539  1  0.86095700  0.38707900  0.33460200  1
  H  540  1  0.80587600  0.35531400  0.34547700  1
  H  541  1  0.82000800  0.29830600  0.32120900  1
  H  542  1  0.83209800  0.25946200  0.35544200  1
  H  543  1  0.71162900  0.26434900  0.38449200  1
  H  544  1  0.69921300  0.30333700  0.35010200  1
  H  545  1  0.67406000  0.30756500  0.29613800  1
  H  546  1  0.79424000  0.29672100  0.26761100  1
  H  547  1  0.77246600  0.26074700  0.23230700  1
  H  552  1  0.65265000  0.27212000  0.26073400  1
  H  559  1  0.92587800  0.08863800  0.49730700  1
  H  564  1  0.88403800  0.15699400  0.55315300  1
  H  569  1  0.83936300  0.16177200  0.38384600  1
  H  570  1  0.80211700  0.22585400  0.44622900  1
  H  575  1  0.90452300  0.10703200  0.57288100  1
  H  576  1  0.80491800  0.20579200  0.36703600  1
  H  583  1  0.42598000  0.91004700  0.12206000  1
  H  588  1  0.38458800  0.84140300  0.06638810  1
  H  593  1  0.33895600  0.83732100  0.23557400  1
  H  594  1  0.30216700  0.77294300  0.17335300  1
  H  599  1  0.40497400  0.89132600  0.04651610  1
  H  600  1  0.30485400  0.79310300  0.25248000  1
  H  607  1  0.17600200  0.81178200  0.39900700  1
  H  612  1  0.13512200  0.75610300  0.46781200  1
  H  617  1  0.08910600  0.92523400  0.47191100  1
  H  618  1  0.05283400  0.86301000  0.53644900  1
  H  623  1  0.15519300  0.73625800  0.41776200  1
  H  624  1  0.05544500  0.94210900  0.51632000  1
  H  631  1  0.67591200  0.18698100  0.22034300  1
  H  636  1  0.63394300  0.24280600  0.15201600  1
  H  641  1  0.58896700  0.07353500  0.14746800  1
  H  642  1  0.55160300  0.13589400  0.08340010  1
  H  647  1  0.65453300  0.26254100  0.20196300  1
  H  648  1  0.55448800  0.05671800  0.10345600  1
  H  655  1  0.64369600  0.97353200  0.84459200  1
  H  660  1  0.74709900  0.98554900  0.89757400  1
  H  665  1  0.76801100  0.96938500  0.72660600  1
  H  666  1  0.86399300  0.98177700  0.78659500  1
  H  671  1  0.67987900  0.99206500  0.91861100  1
  H  672  1  0.83472200  0.98880700  0.71007200  1
  H  679  1  0.14378300  0.02661600  0.77492000  1
  H  684  1  0.24686400  0.01332100  0.72189800  1
  H  689  1  0.26832600  0.02958500  0.89283300  1
  H  690  1  0.36398000  0.01606900  0.83280400  1
  H  695  1  0.17952000  0.00747100  0.70092700  1
  H  696  1  0.33490200  0.00943700  0.90927800  1
  H  703  1  0.89375500  0.46457900  0.28252900  1
  H  708  1  0.99688100  0.41159400  0.29576700  1
  H  713  1  0.01821000  0.58254200  0.27951500  1
  H  714  1  0.11392200  0.52255000  0.29297700  1
  H  719  1  0.92955600  0.39058900  0.30162100  1
  H  720  1  0.08478100  0.59901400  0.29962400  1
  H  727  1  0.39361900  0.53415200  0.33560800  1
  H  732  1  0.49697000  0.58716500  0.32348800  1
  H  737  1  0.51801000  0.41621500  0.33971500  1
  H  738  1  0.61394000  0.47622900  0.32720700  1
  H  743  1  0.42980200  0.60812500  0.31696300  1
  H  744  1  0.58468700  0.39967600  0.32027300  1
  C  1  1  0.96026000  0.06691800  0.26449100  1
  C  2  1  0.00140200  0.06386600  0.27137000  1
  C  3  1  0.01401900  0.04315000  0.29278500  1
  C  4  1  0.98618500  0.02485400  0.30828300  1
  C  5  1  0.94520900  0.02701400  0.29933200  1
  C  6  1  0.93232700  0.04781800  0.27824300  1
  C  7  1  0.00012300  0.00032200  0.32931600  1
  C  8  1  0.00898800  0.97581300  0.30684900  1
  C  9  1  0.97792000  0.95748600  0.29521800  1
  C  10  1  0.98498000  0.93736200  0.27196000  1
  C  11  1  0.02309100  0.93582300  0.25838000  1
  C  12  1  0.05431500  0.95405300  0.26919600  1
  C  13  1  0.04709400  0.97392200  0.29255400  1
  C  14  1  0.03620900  0.00801900  0.34882700  1
  C  15  1  0.96895600  0.99278800  0.35306700  1
  C  16  1  0.96351900  0.96361200  0.36429900  1
  C  17  1  0.93498300  0.95729100  0.38652200  1
  C  18  1  0.91121500  0.98013900  0.39858600  1
  C  19  1  0.91843800  0.00957300  0.38959000  1
  C  20  1  0.94722700  0.01571000  0.36765000  1
  C  21  1  0.04357400  0.03723400  0.35929500  1
  C  22  1  0.07594700  0.04370400  0.37837100  1
  C  23  1  0.10198700  0.02106400  0.38807400  1
  C  24  1  0.09359500  0.99158900  0.37956100  1
  C  25  1  0.06100200  0.98526600  0.36075100  1
  C  46  1  0.46046200  0.93162800  0.73431200  1
  C  47  1  0.50162400  0.93491300  0.72761000  1
  C  48  1  0.51419600  0.95566400  0.70621300  1
  C  49  1  0.48630200  0.97380300  0.69058800  1
  C  50  1  0.44528100  0.97141800  0.69936500  1
  C  51  1  0.43244700  0.95055800  0.72041600  1
  C  52  1  0.50017500  0.99841700  0.66962800  1
  C  53  1  0.50882600  0.02292000  0.69214800  1
  C  54  1  0.47756400  0.04104900  0.70381700  1
  C  55  1  0.48441900  0.06119700  0.72708900  1
  C  56  1  0.52251300  0.06293800  0.74066600  1
  C  57  1  0.55392200  0.04489100  0.72983100  1
  C  58  1  0.54690100  0.02500800  0.70645300  1
  C  59  1  0.53639500  0.99088200  0.65019100  1
  C  60  1  0.46905800  0.00587300  0.64581800  1
  C  61  1  0.46332300  0.03507000  0.63472100  1
  C  62  1  0.43481400  0.04132200  0.61246200  1
  C  63  1  0.41134400  0.01838800  0.60024800  1
  C  64  1  0.41887700  0.98895600  0.60910500  1
  C  65  1  0.44765400  0.98289000  0.63107300  1
  C  66  1  0.54415100  0.96170100  0.63978300  1
  C  67  1  0.57664500  0.95541600  0.62075400  1
  C  68  1  0.60238900  0.97821800  0.61100000  1
  C  69  1  0.59361500  0.00764800  0.61946100  1
  C  70  1  0.56091600  0.01378100  0.63823600  1
  C  91  1  0.21063300  0.73436700  0.06713900  1
  C  92  1  0.25176500  0.72753700  0.06393200  1
  C  93  1  0.26427100  0.70611800  0.04318100  1
  C  94  1  0.23634900  0.69057000  0.02499500  1
  C  95  1  0.19537500  0.69948700  0.02731900  1
  C  96  1  0.18258700  0.72055300  0.04817900  1
  C  97  1  0.25016400  0.66961300  0.00036600  1
  C  98  1  0.25885300  0.69212600  0.97586800  1
  C  99  1  0.22765800  0.70382900  0.95770100  1
  C  100  1  0.23457500  0.72712400  0.93759400  1
  C  101  1  0.27267800  0.74069500  0.93592300  1
  C  102  1  0.30402600  0.72984200  0.95401500  1
  C  103  1  0.29693600  0.70644400  0.97386200  1
  C  104  1  0.28633600  0.65012000  0.00787500  1
  C  105  1  0.21897200  0.64586200  0.99289600  1
  C  106  1  0.21330200  0.63471000  0.96371400  1
  C  107  1  0.18477600  0.61246200  0.95745700  1
  C  108  1  0.16122900  0.60030300  0.98037800  1
  C  109  1  0.16870500  0.60920400  0.00980600  1
  C  110  1  0.19749400  0.63116400  0.01587300  1
  C  111  1  0.29401000  0.63963700  0.03704200  1
  C  112  1  0.32646500  0.62057200  0.04332700  1
  C  113  1  0.35225100  0.61085100  0.02053700  1
  C  114  1  0.34355000  0.61938200  0.99111400  1
  C  115  1  0.31089300  0.63819600  0.98498200  1
  C  136  1  0.71031000  0.26443300  0.93175000  1
  C  137  1  0.75143300  0.27139000  0.93474000  1
  C  138  1  0.76403500  0.29280700  0.95546000  1
  C  139  1  0.73620400  0.30821000  0.97383800  1
  C  140  1  0.69526200  0.29916300  0.97174800  1
  C  141  1  0.68238500  0.27809700  0.95091900  1
  C  142  1  0.75011400  0.32923900  0.99838000  1
  C  143  1  0.75893000  0.30676500  0.02289200  1
  C  144  1  0.72788200  0.29524300  0.04130500  1
  C  145  1  0.73491800  0.27200400  0.06145500  1
  C  146  1  0.77297200  0.25833400  0.06293900  1
  C  147  1  0.80415900  0.26902100  0.04459600  1
  C  148  1  0.79697200  0.29237200  0.02471700  1
  C  149  1  0.78621900  0.34874300  0.99072200  1
  C  150  1  0.71894500  0.35299600  0.00588500  1
  C  151  1  0.71363200  0.36432100  0.03503800  1
  C  152  1  0.68510500  0.38654900  0.04136200  1
  C  153  1  0.66120500  0.39851500  0.01853800  1
  C  154  1  0.66831900  0.38944100  0.98911300  1
  C  155  1  0.69710200  0.36750000  0.98297400  1
  C  156  1  0.79351100  0.35932800  0.96154000  1
  C  157  1  0.82589400  0.37840400  0.95509500  1
  C  158  1  0.85200500  0.38800700  0.97773200  1
  C  159  1  0.84368000  0.37938400  0.00718600  1
  C  160  1  0.81109200  0.36056000  0.01348600  1
  C  181  1  0.90856800  0.12038400  0.21911000  1
  C  182  1  0.88824300  0.14768700  0.22242700  1
  C  184  1  0.87508600  0.15082800  0.17048300  1
  C  185  1  0.89563100  0.12369000  0.16537300  1
  C  186  1  0.91226400  0.10877100  0.19007300  1
  C  188  1  0.85648400  0.16592400  0.14678300  1
  C  189  1  0.81676100  0.20679300  0.13014600  1
  C  190  1  0.81721900  0.19651500  0.10052100  1
  C  191  1  0.83848100  0.16991500  0.09474500  1
  C  194  1  0.85830900  0.15419400  0.11760700  1
  C  195  1  0.87931500  0.12738500  0.11252400  1
  C  196  1  0.89777900  0.11223000  0.13622700  1
  C  201  1  0.92023600  0.10445000  0.24394100  1
  C  202  1  0.79824900  0.21155600  0.07750000  1
  C  205  1  0.40891400  0.87814600  0.77976900  1
  C  206  1  0.38867900  0.85080000  0.77651100  1
  C  208  1  0.37525100  0.84786200  0.82843100  1
  C  209  1  0.39571500  0.87504500  0.83348400  1
  C  210  1  0.41244100  0.88988100  0.80876800  1
  C  212  1  0.35654000  0.83285300  0.85214100  1
  C  213  1  0.31675700  0.79203400  0.86882600  1
  C  214  1  0.31702600  0.80244200  0.89840700  1
  C  215  1  0.33822700  0.82907800  0.90413700  1
  C  218  1  0.35817600  0.84471000  0.88127100  1
  C  219  1  0.37910700  0.87156100  0.88629900  1
  C  220  1  0.39767600  0.88663400  0.86258900  1
  C  225  1  0.42062700  0.89400100  0.75489700  1
  C  226  1  0.29790000  0.78752800  0.92144200  1
  C  229  1  0.15918900  0.77978000  0.12069700  1
  C  230  1  0.13911000  0.77651500  0.14810400  1
  C  232  1  0.12558600  0.82842000  0.15104800  1
  C  233  1  0.14588100  0.83348000  0.12379800  1
  C  234  1  0.16258100  0.80877400  0.10892900  1
  C  236  1  0.10690600  0.85211700  0.16609900  1
  C  237  1  0.06731000  0.86877900  0.20702300  1
  C  238  1  0.06744900  0.89835400  0.19659600  1
  C  239  1  0.08848500  0.90409000  0.16988900  1
  C  242  1  0.10840300  0.88124000  0.15421400  1
  C  243  1  0.12916900  0.88627700  0.12729400  1
  C  244  1  0.14770800  0.86257800  0.11218300  1
  C  249  1  0.17087600  0.75491500  0.10482500  1
  C  250  1  0.04831200  0.92137300  0.21153400  1
  C  253  1  0.65855400  0.21906000  0.87831600  1
  C  254  1  0.63815400  0.22237200  0.85104200  1
  C  256  1  0.62490100  0.17043600  0.84796800  1
  C  257  1  0.64552700  0.16533000  0.87507400  1
  C  258  1  0.66224700  0.19002900  0.88994300  1
  C  260  1  0.60620500  0.14673900  0.83292600  1
  C  261  1  0.56630400  0.13010200  0.79215200  1
  C  262  1  0.56674700  0.10048600  0.80245300  1
  C  263  1  0.58809400  0.09471500  0.82901800  1
  C  266  1  0.60801800  0.11757200  0.84467900  1
  C  267  1  0.62910800  0.11249400  0.87145400  1
  C  268  1  0.64766300  0.13619200  0.88655400  1
  C  273  1  0.67028300  0.24389700  0.89421600  1
  C  274  1  0.54768100  0.07746500  0.78747500  1
  C  277  1  0.69090000  0.97938800  0.56526100  1
  C  278  1  0.73326800  0.98150000  0.56744000  1
  C  280  1  0.74151100  0.97441400  0.51535100  1
  C  281  1  0.69921000  0.97179700  0.51142800  1
  C  282  1  0.67433400  0.97439400  0.53675900  1
  C  284  1  0.76752900  0.97347000  0.49066600  1
  C  285  1  0.83434200  0.97792300  0.47157000  1
  C  286  1  0.82067700  0.97520300  0.44201900  1
  C  287  1  0.77887600  0.97095000  0.43751600  1
  C  290  1  0.75166800  0.96997500  0.46163600  1
  C  291  1  0.70959300  0.96666200  0.45786800  1
  C  292  1  0.68358100  0.96755700  0.48256100  1
  C  297  1  0.66683700  0.98470500  0.58985800  1
  C  298  1  0.84616800  0.97972500  0.41809200  1
  C  301  1  0.19081700  0.02012500  0.43365900  1
  C  302  1  0.23313400  0.01751000  0.43146700  1
  C  304  1  0.24157500  0.02452800  0.48354500  1
  C  305  1  0.19934200  0.02764300  0.48748800  1
  C  306  1  0.17439200  0.02534400  0.46216600  1
  C  308  1  0.26764100  0.02524000  0.50821200  1
  C  309  1  0.33439900  0.02020500  0.52726200  1
  C  310  1  0.32083000  0.02318100  0.55681000  1
  C  311  1  0.27911600  0.02782000  0.56134500  1
  C  314  1  0.25188900  0.02897900  0.53724400  1
  C  315  1  0.20988700  0.03274500  0.54103400  1
  C  316  1  0.18383200  0.03209700  0.51635800  1
  C  321  1  0.16664900  0.01523500  0.40901800  1
  C  322  1  0.34632100  0.01860400  0.58071500  1
  C  325  1  0.94081500  0.43362200  0.97870500  1
  C  326  1  0.98313400  0.43144500  0.98130300  1
  C  328  1  0.99153400  0.48352900  0.97429200  1
  C  329  1  0.94929700  0.48745400  0.97119800  1
  C  330  1  0.92436600  0.46212400  0.97350100  1
  C  332  1  0.01758400  0.50820600  0.97357000  1
  C  333  1  0.08433300  0.52728400  0.97857000  1
  C  334  1  0.07074100  0.55682600  0.97560200  1
  C  335  1  0.02901700  0.56134500  0.97098600  1
  C  338  1  0.00180700  0.53723100  0.96984000  1
  C  339  1  0.95979700  0.54100500  0.96609600  1
  C  340  1  0.93376100  0.51632000  0.96675500  1
  C  345  1  0.91666400  0.40896900  0.98359200  1
  C  346  1  0.09621600  0.58074400  0.98017200  1
  C  349  1  0.44079300  0.56512600  0.01940900  1
  C  350  1  0.48315700  0.56731600  0.01727100  1
  C  352  1  0.49144300  0.51523600  0.02437500  1
  C  353  1  0.44915100  0.51129800  0.02702800  1
  C  354  1  0.42425700  0.53661900  0.02443500  1
  C  356  1  0.51747900  0.49055900  0.02530900  1
  C  357  1  0.58429500  0.47148100  0.02080200  1
  C  358  1  0.57065100  0.44192900  0.02354700  1
  C  359  1  0.52886200  0.43741200  0.02784200  1
  C  362  1  0.50164200  0.46152500  0.02883100  1
  C  363  1  0.45957300  0.45774400  0.03218300  1
  C  364  1  0.43354600  0.48242800  0.03129600  1
  C  369  1  0.41668200  0.58971200  0.01409400  1
  C  370  1  0.59614800  0.41800500  0.01901900  1
  C  373  1  0.96026000  0.06691800  0.57477800  1
  C  374  1  0.00140200  0.06386600  0.58165700  1
  C  375  1  0.01401900  0.04315000  0.60307200  1
  C  376  1  0.98618500  0.02485400  0.61857000  1
  C  377  1  0.94520900  0.02701400  0.60961900  1
  C  378  1  0.93232700  0.04781800  0.58853000  1
  C  379  1  0.00012300  0.00032200  0.63960300  1
  C  380  1  0.00898800  0.97581300  0.61713600  1
  C  381  1  0.97792000  0.95748600  0.60550500  1
  C  382  1  0.98498000  0.93736200  0.58224700  1
  C  383  1  0.02309100  0.93582300  0.56866700  1
  C  384  1  0.05431500  0.95405300  0.57948300  1
  C  385  1  0.04709400  0.97392200  0.60284100  1
  C  386  1  0.03620900  0.00801900  0.65911400  1
  C  387  1  0.96895600  0.99278800  0.66335400  1
  C  388  1  0.96351900  0.96361200  0.67458600  1
  C  389  1  0.93498300  0.95729100  0.69680900  1
  C  390  1  0.91121500  0.98013900  0.70887300  1
  C  391  1  0.91843800  0.00957300  0.69987700  1
  C  392  1  0.94722700  0.01571000  0.67793700  1
  C  393  1  0.04357400  0.03723400  0.66958200  1
  C  394  1  0.07594700  0.04370400  0.68865800  1
  C  395  1  0.10198700  0.02106400  0.69836100  1
  C  396  1  0.09359500  0.99158900  0.68984800  1
  C  397  1  0.06100200  0.98526600  0.67103800  1
  C  418  1  0.46046200  0.93162800  0.04459910  1
  C  419  1  0.50162400  0.93491300  0.03789710  1
  C  420  1  0.51419600  0.95566400  0.01650010  1
  C  421  1  0.48630200  0.97380300  0.00087513  1
  C  422  1  0.44528100  0.97141800  0.00965213  1
  C  423  1  0.43244700  0.95055800  0.03070310  1
  C  424  1  0.50017500  0.99841700  0.97991500  1
  C  425  1  0.50882600  0.02292000  0.00243513  1
  C  426  1  0.47756400  0.04104900  0.01410410  1
  C  427  1  0.48441900  0.06119700  0.03737610  1
  C  428  1  0.52251300  0.06293800  0.05095310  1
  C  429  1  0.55392200  0.04489100  0.04011810  1
  C  430  1  0.54690100  0.02500800  0.01674010  1
  C  431  1  0.53639500  0.99088200  0.96047800  1
  C  432  1  0.46905800  0.00587300  0.95610500  1
  C  433  1  0.46332300  0.03507000  0.94500800  1
  C  434  1  0.43481400  0.04132200  0.92274900  1
  C  435  1  0.41134400  0.01838800  0.91053500  1
  C  436  1  0.41887700  0.98895600  0.91939200  1
  C  437  1  0.44765400  0.98289000  0.94136000  1
  C  438  1  0.54415100  0.96170100  0.95007000  1
  C  439  1  0.57664500  0.95541600  0.93104100  1
  C  440  1  0.60238900  0.97821800  0.92128700  1
  C  441  1  0.59361500  0.00764800  0.92974800  1
  C  442  1  0.56091600  0.01378100  0.94852300  1
  C  463  1  0.21063300  0.73436700  0.37742600  1
  C  464  1  0.25176500  0.72753700  0.37421900  1
  C  465  1  0.26427100  0.70611800  0.35346800  1
  C  466  1  0.23634900  0.69057000  0.33528200  1
  C  467  1  0.19537500  0.69948700  0.33760600  1
  C  468  1  0.18258700  0.72055300  0.35846600  1
  C  469  1  0.25016400  0.66961300  0.31065300  1
  C  470  1  0.25885300  0.69212600  0.28615500  1
  C  471  1  0.22765800  0.70382900  0.26798800  1
  C  472  1  0.23457500  0.72712400  0.24788100  1
  C  473  1  0.27267800  0.74069500  0.24621000  1
  C  474  1  0.30402600  0.72984200  0.26430200  1
  C  475  1  0.29693600  0.70644400  0.28414900  1
  C  476  1  0.28633600  0.65012000  0.31816200  1
  C  477  1  0.21897200  0.64586200  0.30318300  1
  C  478  1  0.21330200  0.63471000  0.27400100  1
  C  479  1  0.18477600  0.61246200  0.26774400  1
  C  480  1  0.16122900  0.60030300  0.29066500  1
  C  481  1  0.16870500  0.60920400  0.32009300  1
  C  482  1  0.19749400  0.63116400  0.32616000  1
  C  483  1  0.29401000  0.63963700  0.34732900  1
  C  484  1  0.32646500  0.62057200  0.35361400  1
  C  485  1  0.35225100  0.61085100  0.33082400  1
  C  486  1  0.34355000  0.61938200  0.30140100  1
  C  487  1  0.31089300  0.63819600  0.29526900  1
  C  508  1  0.71031000  0.26443300  0.24203700  1
  C  509  1  0.75143300  0.27139000  0.24502700  1
  C  510  1  0.76403500  0.29280700  0.26574700  1
  C  511  1  0.73620400  0.30821000  0.28412500  1
  C  512  1  0.69526200  0.29916300  0.28203500  1
  C  513  1  0.68238500  0.27809700  0.26120600  1
  C  514  1  0.75011400  0.32923900  0.30866700  1
  C  515  1  0.75893000  0.30676500  0.33317900  1
  C  516  1  0.72788200  0.29524300  0.35159200  1
  C  517  1  0.73491800  0.27200400  0.37174200  1
  C  518  1  0.77297200  0.25833400  0.37322600  1
  C  519  1  0.80415900  0.26902100  0.35488300  1
  C  520  1  0.79697200  0.29237200  0.33500400  1
  C  521  1  0.78621900  0.34874300  0.30100900  1
  C  522  1  0.71894500  0.35299600  0.31617200  1
  C  523  1  0.71363200  0.36432100  0.34532500  1
  C  524  1  0.68510500  0.38654900  0.35164900  1
  C  525  1  0.66120500  0.39851500  0.32882500  1
  C  526  1  0.66831900  0.38944100  0.29940000  1
  C  527  1  0.69710200  0.36750000  0.29326100  1
  C  528  1  0.79351100  0.35932800  0.27182700  1
  C  529  1  0.82589400  0.37840400  0.26538200  1
  C  530  1  0.85200500  0.38800700  0.28801900  1
  C  531  1  0.84368000  0.37938400  0.31747300  1
  C  532  1  0.81109200  0.36056000  0.32377300  1
  C  553  1  0.90856800  0.12038400  0.52939700  1
  C  554  1  0.88824300  0.14768700  0.53271400  1
  C  556  1  0.87508600  0.15082800  0.48077000  1
  C  557  1  0.89563100  0.12369000  0.47566000  1
  C  558  1  0.91226400  0.10877100  0.50036000  1
  C  560  1  0.85648400  0.16592400  0.45707000  1
  C  561  1  0.81676100  0.20679300  0.44043300  1
  C  562  1  0.81721900  0.19651500  0.41080800  1
  C  563  1  0.83848100  0.16991500  0.40503200  1
  C  566  1  0.85830900  0.15419400  0.42789400  1
  C  567  1  0.87931500  0.12738500  0.42281100  1
  C  568  1  0.89777900  0.11223000  0.44651400  1
  C  573  1  0.92023600  0.10445000  0.55422800  1
  C  574  1  0.79824900  0.21155600  0.38778700  1
  C  577  1  0.40891400  0.87814600  0.09005610  1
  C  578  1  0.38867900  0.85080000  0.08679810  1
  C  580  1  0.37525100  0.84786200  0.13871800  1
  C  581  1  0.39571500  0.87504500  0.14377100  1
  C  582  1  0.41244100  0.88988100  0.11905500  1
  C  584  1  0.35654000  0.83285300  0.16242800  1
  C  585  1  0.31675700  0.79203400  0.17911300  1
  C  586  1  0.31702600  0.80244200  0.20869400  1
  C  587  1  0.33822700  0.82907800  0.21442400  1
  C  590  1  0.35817600  0.84471000  0.19155800  1
  C  591  1  0.37910700  0.87156100  0.19658600  1
  C  592  1  0.39767600  0.88663400  0.17287600  1
  C  597  1  0.42062700  0.89400100  0.06518410  1
  C  598  1  0.29790000  0.78752800  0.23172900  1
  C  601  1  0.15918900  0.77978000  0.43098400  1
  C  602  1  0.13911000  0.77651500  0.45839100  1
  C  604  1  0.12558600  0.82842000  0.46133500  1
  C  605  1  0.14588100  0.83348000  0.43408500  1
  C  606  1  0.16258100  0.80877400  0.41921600  1
  C  608  1  0.10690600  0.85211700  0.47638600  1
  C  609  1  0.06731000  0.86877900  0.51731000  1
  C  610  1  0.06744900  0.89835400  0.50688300  1
  C  611  1  0.08848500  0.90409000  0.48017600  1
  C  614  1  0.10840300  0.88124000  0.46450100  1
  C  615  1  0.12916900  0.88627700  0.43758100  1
  C  616  1  0.14770800  0.86257800  0.42247000  1
  C  621  1  0.17087600  0.75491500  0.41511200  1
  C  622  1  0.04831200  0.92137300  0.52182100  1
  C  625  1  0.65855400  0.21906000  0.18860300  1
  C  626  1  0.63815400  0.22237200  0.16132900  1
  C  628  1  0.62490100  0.17043600  0.15825500  1
  C  629  1  0.64552700  0.16533000  0.18536100  1
  C  630  1  0.66224700  0.19002900  0.20023000  1
  C  632  1  0.60620500  0.14673900  0.14321300  1
  C  633  1  0.56630400  0.13010200  0.10243900  1
  C  634  1  0.56674700  0.10048600  0.11274000  1
  C  635  1  0.58809400  0.09471500  0.13930500  1
  C  638  1  0.60801800  0.11757200  0.15496600  1
  C  639  1  0.62910800  0.11249400  0.18174100  1
  C  640  1  0.64766300  0.13619200  0.19684100  1
  C  645  1  0.67028300  0.24389700  0.20450300  1
  C  646  1  0.54768100  0.07746500  0.09776210  1
  C  649  1  0.69090000  0.97938800  0.87554800  1
  C  650  1  0.73326800  0.98150000  0.87772700  1
  C  652  1  0.74151100  0.97441400  0.82563800  1
  C  653  1  0.69921000  0.97179700  0.82171500  1
  C  654  1  0.67433400  0.97439400  0.84704600  1
  C  656  1  0.76752900  0.97347000  0.80095300  1
  C  657  1  0.83434200  0.97792300  0.78185700  1
  C  658  1  0.82067700  0.97520300  0.75230600  1
  C  659  1  0.77887600  0.97095000  0.74780300  1
  C  662  1  0.75166800  0.96997500  0.77192300  1
  C  663  1  0.70959300  0.96666200  0.76815500  1
  C  664  1  0.68358100  0.96755700  0.79284800  1
  C  669  1  0.66683700  0.98470500  0.90014500  1
  C  670  1  0.84616800  0.97972500  0.72837900  1
  C  673  1  0.19081700  0.02012500  0.74394600  1
  C  674  1  0.23313400  0.01751000  0.74175400  1
  C  676  1  0.24157500  0.02452800  0.79383200  1
  C  677  1  0.19934200  0.02764300  0.79777500  1
  C  678  1  0.17439200  0.02534400  0.77245300  1
  C  680  1  0.26764100  0.02524000  0.81849900  1
  C  681  1  0.33439900  0.02020500  0.83754900  1
  C  682  1  0.32083000  0.02318100  0.86709700  1
  C  683  1  0.27911600  0.02782000  0.87163200  1
  C  686  1  0.25188900  0.02897900  0.84753100  1
  C  687  1  0.20988700  0.03274500  0.85132100  1
  C  688  1  0.18383200  0.03209700  0.82664500  1
  C  693  1  0.16664900  0.01523500  0.71930500  1
  C  694  1  0.34632100  0.01860400  0.89100200  1
  C  697  1  0.94081500  0.43362200  0.28899200  1
  C  698  1  0.98313400  0.43144500  0.29159000  1
  C  700  1  0.99153400  0.48352900  0.28457900  1
  C  701  1  0.94929700  0.48745400  0.28148500  1
  C  702  1  0.92436600  0.46212400  0.28378800  1
  C  704  1  0.01758400  0.50820600  0.28385700  1
  C  705  1  0.08433300  0.52728400  0.28885700  1
  C  706  1  0.07074100  0.55682600  0.28588900  1
  C  707  1  0.02901700  0.56134500  0.28127300  1
  C  710  1  0.00180700  0.53723100  0.28012700  1
  C  711  1  0.95979700  0.54100500  0.27638300  1
  C  712  1  0.93376100  0.51632000  0.27704200  1
  C  717  1  0.91666400  0.40896900  0.29387900  1
  C  718  1  0.09621600  0.58074400  0.29045900  1
  C  721  1  0.44079300  0.56512600  0.32969600  1
  C  722  1  0.48315700  0.56731600  0.32755800  1
  C  724  1  0.49144300  0.51523600  0.33466200  1
  C  725  1  0.44915100  0.51129800  0.33731500  1
  C  726  1  0.42425700  0.53661900  0.33472200  1
  C  728  1  0.51747900  0.49055900  0.33559600  1
  C  729  1  0.58429500  0.47148100  0.33108900  1
  C  730  1  0.57065100  0.44192900  0.33383400  1
  C  731  1  0.52886200  0.43741200  0.33812900  1
  C  734  1  0.50164200  0.46152500  0.33911800  1
  C  735  1  0.45957300  0.45774400  0.34247000  1
  C  736  1  0.43354600  0.48242800  0.34158300  1
  C  741  1  0.41668200  0.58971200  0.32438100  1
  C  742  1  0.59614800  0.41800500  0.32930600  1
  N  41  1  0.88419100  0.97430400  0.41941700  1
  N  42  1  0.13199600  0.02815500  0.40623200  1
  N  43  1  0.94881200  0.08521000  0.24308300  1
  N  44  1  0.02847500  0.91716400  0.23598000  1
  N  86  1  0.38430200  0.02417800  0.57941700  1
  N  87  1  0.63256300  0.97127800  0.59292100  1
  N  88  1  0.44906400  0.91335400  0.75575300  1
  N  89  1  0.52772900  0.08161500  0.76307300  1
  N  131  1  0.13419800  0.57946300  0.97459400  1
  N  132  1  0.38238700  0.59273900  0.02747400  1
  N  133  1  0.19928300  0.75579100  0.08545000  1
  N  134  1  0.27795100  0.76312200  0.91727500  1
  N  176  1  0.63418700  0.41935100  0.02437900  1
  N  177  1  0.88201700  0.40617700  0.97066700  1
  N  178  1  0.69887000  0.24302800  0.91345000  1
  N  179  1  0.77833700  0.23597300  0.08165200  1
  N  183  1  0.87241400  0.16161500  0.19853000  1
  N  193  1  0.83595100  0.19148200  0.15174800  1
  N  207  1  0.37275400  0.83695300  0.80042300  1
  N  217  1  0.33606500  0.80726000  0.84722100  1
  N  231  1  0.12321100  0.80041600  0.16198200  1
  N  241  1  0.08658500  0.84718800  0.19175500  1
  N  255  1  0.62224100  0.19847500  0.83716100  1
  N  265  1  0.58558800  0.15170000  0.80740500  1
  N  279  1  0.75658400  0.97908600  0.54294700  1
  N  289  1  0.80782100  0.97719800  0.49434700  1
  N  303  1  0.25652100  0.01966600  0.45594700  1
  N  313  1  0.30785700  0.02110600  0.50450700  1
  N  327  1  0.00650500  0.45593600  0.97914200  1
  N  337  1  0.05780600  0.50451800  0.97768100  1
  N  351  1  0.50649500  0.54283200  0.01967900  1
  N  361  1  0.55776200  0.49425000  0.02154200  1
  N  413  1  0.88419100  0.97430400  0.72970400  1
  N  414  1  0.13199600  0.02815500  0.71651900  1
  N  415  1  0.94881200  0.08521000  0.55337000  1
  N  416  1  0.02847500  0.91716400  0.54626700  1
  N  458  1  0.38430200  0.02417800  0.88970400  1
  N  459  1  0.63256300  0.97127800  0.90320800  1
  N  460  1  0.44906400  0.91335400  0.06604010  1
  N  461  1  0.52772900  0.08161500  0.07336010  1
  N  503  1  0.13419800  0.57946300  0.28488100  1
  N  504  1  0.38238700  0.59273900  0.33776100  1
  N  505  1  0.19928300  0.75579100  0.39573700  1
  N  506  1  0.27795100  0.76312200  0.22756200  1
  N  548  1  0.63418700  0.41935100  0.33466600  1
  N  549  1  0.88201700  0.40617700  0.28095400  1
  N  550  1  0.69887000  0.24302800  0.22373700  1
  N  551  1  0.77833700  0.23597300  0.39193900  1
  N  555  1  0.87241400  0.16161500  0.50881700  1
  N  565  1  0.83595100  0.19148200  0.46203500  1
  N  579  1  0.37275400  0.83695300  0.11071000  1
  N  589  1  0.33606500  0.80726000  0.15750800  1
  N  603  1  0.12321100  0.80041600  0.47226900  1
  N  613  1  0.08658500  0.84718800  0.50204200  1
  N  627  1  0.62224100  0.19847500  0.14744800  1
  N  637  1  0.58558800  0.15170000  0.11769200  1
  N  651  1  0.75658400  0.97908600  0.85323400  1
  N  661  1  0.80782100  0.97719800  0.80463400  1
  N  675  1  0.25652100  0.01966600  0.76623400  1
  N  685  1  0.30785700  0.02110600  0.81479400  1
  N  699  1  0.00650500  0.45593600  0.28942900  1
  N  709  1  0.05780600  0.50451800  0.28796800  1
  N  723  1  0.50649500  0.54283200  0.32996600  1
  N  733  1  0.55776200  0.49425000  0.33182900  1
  O  199  1  0.88162200  0.11551200  0.08499100  1
  O  200  1  0.91705600  0.08637400  0.13054900  1
  O  223  1  0.38123000  0.88356000  0.91378600  1
  O  224  1  0.41686500  0.91253600  0.86821200  1
  O  247  1  0.13115400  0.91375800  0.11527000  1
  O  248  1  0.16673500  0.86820500  0.08621700  1
  O  271  1  0.63140700  0.08496900  0.88334700  1
  O  272  1  0.66701800  0.13052000  0.91238100  1
  O  295  1  0.69338200  0.96324400  0.43052100  1
  O  296  1  0.64340000  0.96494200  0.47797500  1
  O  319  1  0.19378200  0.03640600  0.56838400  1
  O  320  1  0.14371900  0.03518000  0.52096100  1
  O  343  1  0.94367000  0.56835100  0.96244600  1
  O  344  1  0.89364300  0.52091000  0.96369200  1
  O  367  1  0.44338300  0.43039300  0.03562700  1
  O  368  1  0.39337200  0.47783100  0.03394600  1
  O  571  1  0.88162200  0.11551200  0.39527800  1
  O  572  1  0.91705600  0.08637400  0.44083600  1
  O  595  1  0.38123000  0.88356000  0.22407300  1
  O  596  1  0.41686500  0.91253600  0.17849900  1
  O  619  1  0.13115400  0.91375800  0.42555700  1
  O  620  1  0.16673500  0.86820500  0.39650400  1
  O  643  1  0.63140700  0.08496900  0.19363400  1
  O  644  1  0.66701800  0.13052000  0.22266800  1
  O  667  1  0.69338200  0.96324400  0.74080800  1
  O  668  1  0.64340000  0.96494200  0.78826200  1
  O  691  1  0.19378200  0.03640600  0.87867100  1
  O  692  1  0.14371900  0.03518000  0.83124800  1
  O  715  1  0.94367000  0.56835100  0.27273300  1
  O  716  1  0.89364300  0.52091000  0.27397900  1
  O  739  1  0.44338300  0.43039300  0.34591400  1
  O  740  1  0.39337200  0.47783100  0.34423300  1
