# generated using pymatgen
data_Cr3H18C30O13
_symmetry_space_group_name_H-M   'P 1'
_cell_length_a   10.97203000
_cell_length_b   10.97764000
_cell_length_c   18.81243000
_cell_angle_alpha   89.94177000
_cell_angle_beta   89.92516000
_cell_angle_gamma   60.05382000
_symmetry_Int_Tables_number   1
_chemical_formula_structural   Cr3H18C30O13
_chemical_formula_sum   'Cr6 H36 C60 O26'
_cell_volume   1963.38904948
_cell_formula_units_Z   2
loop_
 _symmetry_equiv_pos_site_id
 _symmetry_equiv_pos_as_xyz
  1  'x, y, z'
loop_
 _atom_site_type_symbol
 _atom_site_label
 _atom_site_symmetry_multiplicity
 _atom_site_fract_x
 _atom_site_fract_y
 _atom_site_fract_z
 _atom_site_occupancy
  Cr  Cr0  1  0.23084000  0.54157000  0.74931000  1
  Cr  Cr1  1  0.54157000  0.22759000  0.74931000  1
  Cr  Cr2  1  0.22759000  0.23084000  0.74931000  1
  Cr  Cr3  1  0.45843000  0.76916000  0.25069000  1
  Cr  Cr4  1  0.77241000  0.45843000  0.25069000  1
  Cr  Cr5  1  0.76916000  0.77241000  0.25069000  1
  H  H6  1  0.37119000  0.89920000  0.92051000  1
  H  H7  1  0.89873000  0.72919000  0.92022000  1
  H  H8  1  0.72937000  0.37154000  0.92028000  1
  H  H9  1  0.86420000  0.75393000  0.04825000  1
  H  H10  1  0.38155000  0.86423000  0.04851000  1
  H  H11  1  0.75404000  0.38177000  0.04826000  1
  H  H12  1  0.21462000  0.96143000  0.43844000  1
  H  H13  1  0.92489000  0.79116000  0.43139000  1
  H  H14  1  0.82162000  0.21329000  0.43848000  1
  H  H15  1  0.12155000  0.73132000  0.55362000  1
  H  H16  1  0.19942000  0.14711000  0.55980000  1
  H  H17  1  0.64019000  0.20557000  0.55701000  1
  H  H18  1  0.21511000  0.13153000  0.43409000  1
  H  H19  1  0.11679000  0.72819000  0.42655000  1
  H  H20  1  0.64742000  0.22109000  0.43181000  1
  H  H21  1  0.93205000  0.78363000  0.55729000  1
  H  H22  1  0.20330000  0.97501000  0.56503000  1
  H  H23  1  0.81499000  0.19675000  0.56480000  1
  H  H24  1  0.71675000  0.09773000  0.07361000  1
  H  H25  1  0.09910000  0.18572000  0.07423000  1
  H  H26  1  0.18566000  0.71564000  0.07408000  1
  H  H27  1  0.24474000  0.24985000  0.95464000  1
  H  H28  1  0.50651000  0.24414000  0.95461000  1
  H  H29  1  0.24945000  0.50570000  0.95492000  1
  H  H30  1  0.52021000  0.20775000  0.07995000  1
  H  H31  1  0.20881000  0.27276000  0.08003000  1
  H  H32  1  0.27226000  0.51916000  0.08026000  1
  H  H33  1  0.13689000  0.16053000  0.94867000  1
  H  H34  1  0.70349000  0.13606000  0.94809000  1
  H  H35  1  0.16056000  0.70261000  0.94857000  1
  H  H36  1  0.69971000  0.98155000  0.57064000  1
  H  H37  1  0.96147000  0.33736000  0.56864000  1
  H  H38  1  0.32951000  0.70659000  0.57352000  1
  H  H39  1  0.93644000  0.34392000  0.43912000  1
  H  H40  1  0.70717000  0.96707000  0.43992000  1
  H  H41  1  0.33922000  0.72004000  0.44264000  1
  C  C42  1  0.48025000  0.45837000  0.85252000  1
  C  C43  1  0.45840000  0.06127000  0.85251000  1
  C  C44  1  0.06125000  0.48023000  0.85251000  1
  C  C45  1  0.54828000  0.52316000  0.14451000  1
  C  C46  1  0.92873000  0.54824000  0.14452000  1
  C  C47  1  0.52321000  0.92861000  0.14448000  1
  C  C48  1  0.25498000  0.02806000  0.46071000  1
  C  C49  1  0.03101000  0.71771000  0.45186000  1
  C  C50  1  0.71345000  0.25646000  0.45984000  1
  C  C51  1  0.03628000  0.71674000  0.53208000  1
  C  C52  1  0.24704000  0.03746000  0.54078000  1
  C  C53  1  0.70925000  0.24649000  0.53967000  1
  C  C54  1  0.48311000  0.45847000  0.64720000  1
  C  C55  1  0.45828000  0.05904000  0.64698000  1
  C  C56  1  0.06400000  0.48019000  0.64527000  1
  C  C57  1  0.54690000  0.52282000  0.35635000  1
  C  C58  1  0.93908000  0.54183000  0.35352000  1
  C  C59  1  0.52126000  0.93342000  0.35556000  1
  C  C60  1  0.51470000  0.95533000  0.06867000  1
  C  C61  1  0.95583000  0.52992000  0.06874000  1
  C  C62  1  0.52997000  0.51444000  0.06872000  1
  C  C63  1  0.99184000  0.50247000  0.92094000  1
  C  C64  1  0.50543000  0.99184000  0.92089000  1
  C  C65  1  0.50261000  0.50535000  0.92092000  1
  C  C66  1  0.60139000  0.99752000  0.03609000  1
  C  C67  1  0.99821000  0.40103000  0.03638000  1
  C  C68  1  0.40111000  0.60089000  0.03628000  1
  C  C69  1  0.01807000  0.38695000  0.96362000  1
  C  C70  1  0.59525000  0.01762000  0.96334000  1
  C  C71  1  0.38709000  0.59484000  0.96354000  1
  C  C72  1  0.43775000  0.92531000  0.95186000  1
  C  C73  1  0.92516000  0.63660000  0.95174000  1
  C  C74  1  0.63675000  0.43786000  0.95175000  1
  C  C75  1  0.90882000  0.65000000  0.02531000  1
  C  C76  1  0.44107000  0.90869000  0.02541000  1
  C  C77  1  0.65010000  0.44109000  0.02530000  1
  C  C78  1  0.61282000  0.12481000  0.05080000  1
  C  C79  1  0.12584000  0.26270000  0.05113000  1
  C  C80  1  0.26251000  0.61189000  0.05115000  1
  C  C81  1  0.14891000  0.24729000  0.97149000  1
  C  C82  1  0.60475000  0.14818000  0.97118000  1
  C  C83  1  0.24716000  0.60396000  0.97154000  1
  C  C84  1  0.51154000  0.96527000  0.43074000  1
  C  C85  1  0.00510000  0.49643000  0.42237000  1
  C  C86  1  0.52697000  0.51598000  0.43201000  1
  C  C87  1  0.02860000  0.49222000  0.57068000  1
  C  C88  1  0.50059000  0.98653000  0.57923000  1
  C  C89  1  0.51545000  0.50129000  0.58006000  1
  C  C90  1  0.41071000  0.95178000  0.46944000  1
  C  C91  1  0.06500000  0.56749000  0.45565000  1
  C  C92  1  0.63938000  0.41165000  0.46997000  1
  C  C93  1  0.07427000  0.56620000  0.52829000  1
  C  C94  1  0.40512000  0.96084000  0.54197000  1
  C  C95  1  0.63510000  0.40414000  0.54238000  1
  C  C96  1  0.61824000  0.97328000  0.54260000  1
  C  C97  1  0.98842000  0.40363000  0.53751000  1
  C  C98  1  0.41549000  0.62289000  0.54457000  1
  C  C99  1  0.97793000  0.40475000  0.46340000  1
  C  C100  1  0.62206000  0.96600000  0.46814000  1
  C  C101  1  0.42022000  0.62954000  0.47017000  1
  O  O102  1  0.08852000  0.57265000  0.82901000  1
  O  O103  1  0.57265000  0.33883000  0.82901000  1
  O  O104  1  0.33883000  0.08852000  0.82901000  1
  O  O105  1  0.42735000  0.91148000  0.17099000  1
  O  O106  1  0.66117000  0.42735000  0.17099000  1
  O  O107  1  0.91148000  0.66117000  0.17099000  1
  O  O108  1  0.35966000  0.52897000  0.82432000  1
  O  O109  1  0.52897000  0.11137000  0.82432000  1
  O  O110  1  0.11137000  0.35966000  0.82432000  1
  O  O111  1  0.47103000  0.64034000  0.17568000  1
  O  O112  1  0.88863000  0.47103000  0.17568000  1
  O  O113  1  0.64034000  0.88863000  0.17568000  1
  O  O114  1  0.09002000  0.57245000  0.66847000  1
  O  O115  1  0.57245000  0.33753000  0.66847000  1
  O  O116  1  0.33753000  0.09002000  0.66847000  1
  O  O117  1  0.42755000  0.90998000  0.33153000  1
  O  O118  1  0.66247000  0.42755000  0.33153000  1
  O  O119  1  0.90998000  0.66247000  0.33153000  1
  O  O120  1  0.36105000  0.52878000  0.67550000  1
  O  O121  1  0.52878000  0.11017000  0.67550000  1
  O  O122  1  0.11017000  0.36105000  0.67550000  1
  O  O123  1  0.47122000  0.63895000  0.32450000  1
  O  O124  1  0.88983000  0.47122000  0.32450000  1
  O  O125  1  0.63895000  0.88983000  0.32450000  1
  O  O126  1  0.33333333  0.33333333  0.74944000  1
  O  O127  1  0.66666667  0.66666667  0.25056000  1
