# generated using pymatgen
data_CuH18C25(NO2)2
_symmetry_space_group_name_H-M   'P 1'
_cell_length_a   9.85960000
_cell_length_b   13.17887000
_cell_length_c   18.17216000
_cell_angle_alpha   89.73911000
_cell_angle_beta   89.82566000
_cell_angle_gamma   81.36709000
_symmetry_Int_Tables_number   1
_chemical_formula_structural   CuH18C25(NO2)2
_chemical_formula_sum   'Cu4 H72 C100 N8 O16'
_cell_volume   2334.47798652
_cell_formula_units_Z   4
loop_
 _symmetry_equiv_pos_site_id
 _symmetry_equiv_pos_as_xyz
  1  'x, y, z'
loop_
 _atom_site_type_symbol
 _atom_site_label
 _atom_site_symmetry_multiplicity
 _atom_site_fract_x
 _atom_site_fract_y
 _atom_site_fract_z
 _atom_site_occupancy
  Cu  Cu0  1  0.48842000  0.74746000  0.24898000  1
  Cu  Cu1  1  0.51155000  0.25255000  0.75102000  1
  Cu  Cu2  1  0.01047000  0.25300000  0.74915000  1
  Cu  Cu3  1  0.98951000  0.74701000  0.25084000  1
  H  H4  1  0.84128000  0.28411000  0.88566000  1
  H  H5  1  0.66445000  0.22348000  0.89490000  1
  H  H6  1  0.90345000  0.03535000  0.07140000  1
  H  H7  1  0.73766000  0.01380000  0.79182000  1
  H  H8  1  0.40181000  0.03448000  0.43077000  1
  H  H9  1  0.34553000  0.71831000  0.49139000  1
  H  H10  1  0.78084000  0.49880000  0.78679000  1
  H  H11  1  0.49327000  0.17807000  0.49387000  1
  H  H12  1  0.18454000  0.79284000  0.49238000  1
  H  H13  1  0.84622000  0.71547000  0.00728000  1
  H  H14  1  0.21916000  0.50118000  0.21321000  1
  H  H15  1  0.16810000  0.89177000  0.30871000  1
  H  H16  1  0.84764000  0.13175000  0.35197000  1
  H  H17  1  0.69440000  0.50218000  0.57866000  1
  H  H18  1  0.53280000  0.67711000  0.99952000  1
  H  H19  1  0.67007000  0.11121000  0.00511000  1
  H  H20  1  0.65713000  0.71910000  0.38591000  1
  H  H21  1  0.16287000  0.22450000  0.60321000  1
  H  H22  1  0.06681000  0.45908000  0.43510000  1
  H  H23  1  0.67851000  0.00794000  0.08770000  1
  H  H24  1  0.30560000  0.49781000  0.42134000  1
  H  H25  1  0.16958000  0.11171000  0.49371000  1
  H  H26  1  0.83183000  0.10824000  0.69127000  1
  H  H27  1  0.46721000  0.32287000  0.00047000  1
  H  H28  1  0.87049000  0.64337000  0.84650000  1
  H  H29  1  0.82345000  0.39623000  0.99655000  1
  H  H30  1  0.69466000  0.38644000  0.68377000  1
  H  H31  1  0.65113000  0.86776000  0.85257000  1
  H  H32  1  0.68472000  0.78905000  0.00789000  1
  H  H33  1  0.96843000  0.31957000  0.49954000  1
  H  H34  1  0.24168000  0.01427000  0.70731000  1
  H  H35  1  0.93318000  0.54094000  0.56487000  1
  H  H36  1  0.30528000  0.61356000  0.31623000  1
  H  H37  1  0.80395000  0.49856000  0.07776000  1
  H  H38  1  0.32545000  0.39411000  0.50318000  1
  H  H39  1  0.32148000  0.99205000  0.91230000  1
  H  H40  1  0.81550000  0.20718000  0.50765000  1
  H  H41  1  0.33552000  0.77652000  0.10507000  1
  H  H42  1  0.17655000  0.60377000  0.00345000  1
  H  H43  1  0.36947000  0.64216000  0.65209000  1
  H  H44  1  0.15232000  0.86816000  0.64804000  1
  H  H45  1  0.33051000  0.10971000  0.80937000  1
  H  H46  1  0.26233000  0.98620000  0.20818000  1
  H  H47  1  0.15377000  0.28452000  0.99271000  1
  H  H48  1  0.56383000  0.46252000  0.06531000  1
  H  H49  1  0.63053000  0.35784000  0.34793000  1
  H  H50  1  0.65450000  0.28170000  0.50861000  1
  H  H51  1  0.34279000  0.28095000  0.61408000  1
  H  H52  1  0.82409000  0.98996000  0.58968000  1
  H  H53  1  0.31527000  0.21094000  0.99210000  1
  H  H54  1  0.72158000  0.50231000  0.28821000  1
  H  H55  1  0.67456000  0.60589000  0.49679000  1
  H  H56  1  0.75808000  0.98577000  0.29266000  1
  H  H57  1  0.59797000  0.96567000  0.56926000  1
  H  H58  1  0.27843000  0.49768000  0.71179000  1
  H  H59  1  0.00571000  0.82127000  0.99248000  1
  H  H60  1  0.83711000  0.77548000  0.39680000  1
  H  H61  1  0.03160000  0.68047000  0.50046000  1
  H  H62  1  0.43617000  0.53746000  0.93468000  1
  H  H63  1  0.83040000  0.88828000  0.50630000  1
  H  H64  1  0.32992000  0.88880000  0.99487000  1
  H  H65  1  0.17589000  0.01003000  0.41032000  1
  H  H66  1  0.19604000  0.50144000  0.92224000  1
  H  H67  1  0.15872000  0.71588000  0.11434000  1
  H  H68  1  0.34887000  0.13224000  0.14743000  1
  H  H69  1  0.99428000  0.17872000  0.00752000  1
  H  H70  1  0.50675000  0.82200000  0.50619000  1
  H  H71  1  0.09655000  0.96464000  0.92860000  1
  H  H72  1  0.19651000  0.38697000  0.81662000  1
  H  H73  1  0.80349000  0.61303000  0.18337000  1
  H  H74  1  0.66946000  0.89027000  0.19062000  1
  H  H75  1  0.12951000  0.35662000  0.15350000  1
  C  C76  1  0.26519000  0.75440000  0.52894000  1
  C  C77  1  0.77598000  0.62022000  0.86686000  1
  C  C78  1  0.40552000  0.10647000  0.85304000  1
  C  C79  1  0.59794000  0.96016000  0.08776000  1
  C  C80  1  0.58553000  0.63909000  0.95208000  1
  C  C81  1  0.02949000  0.56301000  0.58292000  1
  C  C82  1  0.46797000  0.43929000  0.08338000  1
  C  C83  1  0.40870000  0.82963000  0.09804000  1
  C  C84  1  0.02143000  0.91161000  0.17491000  1
  C  C85  1  0.57476000  0.00068000  0.35919000  1
  C  C86  1  0.53204000  0.56070000  0.91661000  1
  C  C87  1  0.58339000  0.66734000  0.39655000  1
  C  C88  1  0.40205000  0.03982000  0.91223000  1
  C  C89  1  0.60265000  0.50852000  0.85749000  1
  C  C90  1  0.40695000  0.89347000  0.03685000  1
  C  C91  1  0.17807000  0.16559000  0.07289000  1
  C  C92  1  0.50064000  0.94305000  0.58527000  1
  C  C93  1  0.54421000  0.42120000  0.82349000  1
  C  C94  1  0.38929000  0.54235000  0.41656000  1
  C  C95  1  0.50102000  0.96352000  0.03118000  1
  C  C96  1  0.61070000  0.45766000  0.58343000  1
  C  C97  1  0.73484000  0.24557000  0.47107000  1
  C  C98  1  0.05172000  0.13785000  0.05242000  1
  C  C99  1  0.76512000  0.75219000  0.97049000  1
  C  C100  1  0.99535000  0.53580000  0.03149000  1
  C  C101  1  0.97050000  0.43701000  0.41707000  1
  C  C102  1  0.77717000  0.46146000  0.33386000  1
  C  C103  1  0.09631000  0.96146000  0.41140000  1
  C  C104  1  0.20695000  0.67196000  0.57156000  1
  C  C105  1  0.79759000  0.97131000  0.83530000  1
  C  C106  1  0.09978000  0.50908000  0.64141000  1
  C  C107  1  0.11170000  0.45773000  0.91685000  1
  C  C108  1  0.27407000  0.62041000  0.63223000  1
  C  C109  1  0.08375000  0.64198000  0.54789000  1
  C  C110  1  0.08397000  0.66531000  0.10331000  1
  C  C111  1  0.74887000  0.88869000  0.86939000  1
  C  C112  1  0.91627000  0.35803000  0.45211000  1
  C  C113  1  0.90759000  0.39787000  0.95803000  1
  C  C114  1  0.48067000  0.08878000  0.67380000  1
  C  C115  1  0.41447000  0.36090000  0.04791000  1
  C  C116  1  0.90671000  0.10531000  0.64733000  1
  C  C117  1  0.40863000  0.39628000  0.54192000  1
  C  C118  1  0.29954000  0.97116000  0.66345000  1
  C  C119  1  0.20240000  0.02869000  0.16470000  1
  C  C120  1  0.39736000  0.49147000  0.14251000  1
  C  C121  1  0.49917000  0.05703000  0.41472000  1
  C  C122  1  0.29184000  0.32996000  0.07215000  1
  C  C123  1  0.90022000  0.49092000  0.35858000  1
  C  C124  1  0.07712000  0.00063000  0.14253000  1
  C  C125  1  0.44948000  0.86265000  0.55110000  1
  C  C126  1  0.92287000  0.99936000  0.85747000  1
  C  C127  1  0.09241000  0.60213000  0.04197000  1
  C  C128  1  0.67678000  0.16501000  0.42760000  1
  C  C129  1  0.22402000  0.37977000  0.13314000  1
  C  C130  1  0.59304000  0.10653000  0.96314000  1
  C  C131  1  0.96016000  0.57794000  0.32478000  1
  C  C132  1  0.88583000  0.60762000  0.14317000  1
  C  C133  1  0.09324000  0.89470000  0.35266000  1
  C  C134  1  0.74981000  0.11119000  0.36976000  1
  C  C135  1  0.03983000  0.42207000  0.67520000  1
  C  C136  1  0.99907000  0.94257000  0.91269000  1
  C  C137  1  0.45580000  0.57879000  0.17651000  1
  C  C138  1  0.59136000  0.60373000  0.45806000  1
  C  C139  1  0.51941000  0.91119000  0.32633000  1
  C  C140  1  0.27464000  0.46104000  0.16735000  1
  C  C141  1  0.59128000  0.17036000  0.90194000  1
  C  C142  1  0.55041000  0.13740000  0.44892000  1
  C  C143  1  0.11417000  0.39238000  0.85683000  1
  C  C144  1  0.70029000  0.02889000  0.33653000  1
  C  C145  1  0.32317000  0.83496000  0.57242000  1
  C  C146  1  0.09285000  0.10670000  0.53612000  1
  C  C147  1  0.00093000  0.05742000  0.08731000  1
  C  C148  1  0.49536000  0.53622000  0.46846000  1
  C  C149  1  0.90365000  0.03854000  0.58859000  1
  C  C150  1  0.49897000  0.03648000  0.96881000  1
  C  C151  1  0.79308000  0.32802000  0.42844000  1
  C  C152  1  0.72536000  0.53895000  0.83264000  1
  C  C153  1  0.99942000  0.03615000  0.53118000  1
  C  C154  1  0.72594000  0.37958000  0.36778000  1
  C  C155  1  0.22282000  0.53854000  0.66614000  1
  C  C156  1  0.97856000  0.08838000  0.82509000  1
  C  C157  1  0.91602000  0.33468000  0.89669000  1
  C  C158  1  0.59446000  0.89351000  0.14695000  1
  C  C159  1  0.00464000  0.46420000  0.96850000  1
  C  C160  1  0.38702000  0.60821000  0.35650000  1
  C  C161  1  0.94827000  0.86214000  0.94758000  1
  C  C162  1  0.41656000  0.33269000  0.60344000  1
  C  C163  1  0.25010000  0.88880000  0.63023000  1
  C  C164  1  0.23488000  0.24780000  0.02951000  1
  C  C165  1  0.82192000  0.83440000  0.92710000  1
  C  C166  1  0.00056000  0.96385000  0.46882000  1
  C  C167  1  0.90920000  0.82947000  0.40299000  1
  C  C168  1  0.61295000  0.39179000  0.64349000  1
  C  C169  1  0.25113000  0.11131000  0.13061000  1
  C  C170  1  0.50463000  0.46379000  0.53153000  1
  C  C171  1  0.09076000  0.17052000  0.59701000  1
  C  C172  1  0.90712000  0.89330000  0.46389000  1
  C  C173  1  0.88830000  0.54227000  0.08315000  1
  C  C174  1  0.42510000  0.99939000  0.64082000  1
  C  C175  1  0.70816000  0.67003000  0.92784000  1
  N  N176  1  0.48482000  0.66800000  0.34517000  1
  N  N177  1  0.00066000  0.16943000  0.65298000  1
  N  N178  1  0.49930000  0.83031000  0.15345000  1
  N  N179  1  0.50066000  0.16968000  0.84654000  1
  N  N180  1  0.99929000  0.83058000  0.34701000  1
  N  N181  1  0.51513000  0.33202000  0.65482000  1
  N  N182  1  0.98414000  0.66687000  0.15440000  1
  N  N183  1  0.01586000  0.33312000  0.84560000  1
  O  O184  1  0.39325000  0.90661000  0.32646000  1
  O  O185  1  0.58273000  0.57961000  0.17759000  1
  O  O186  1  0.89463000  0.90994000  0.17491000  1
  O  O187  1  0.11062000  0.83796000  0.20192000  1
  O  O188  1  0.39094000  0.16079000  0.70226000  1
  O  O189  1  0.60908000  0.83927000  0.29770000  1
  O  O190  1  0.60686000  0.09316000  0.67389000  1
  O  O191  1  0.08746000  0.57683000  0.32337000  1
  O  O192  1  0.12750000  0.34652000  0.70108000  1
  O  O193  1  0.63161000  0.34566000  0.79736000  1
  O  O194  1  0.36840000  0.65433000  0.20264000  1
  O  O195  1  0.10537000  0.09003000  0.82508000  1
  O  O196  1  0.41728000  0.42037000  0.82241000  1
  O  O197  1  0.88939000  0.16204000  0.79808000  1
  O  O198  1  0.91253000  0.42322000  0.67660000  1
  O  O199  1  0.87247000  0.65349000  0.29891000  1
