# generated using pymatgen
data_H12C20N5O4
_symmetry_space_group_name_H-M   'P 1'
_cell_length_a   9.96880000
_cell_length_b   40.58040000
_cell_length_c   51.65420000
_cell_angle_alpha   89.74580000
_cell_angle_beta   89.34480000
_cell_angle_gamma   89.47830000
_symmetry_Int_Tables_number   1
_chemical_formula_structural   H12C20N5O4
_chemical_formula_sum   'H120 C200 N50 O40'
_cell_volume   20893.65259824
_cell_formula_units_Z   10
loop_
 _symmetry_equiv_pos_site_id
 _symmetry_equiv_pos_as_xyz
  1  'x, y, z'
loop_
 _atom_site_type_symbol
 _atom_site_label
 _atom_site_symmetry_multiplicity
 _atom_site_fract_x
 _atom_site_fract_y
 _atom_site_fract_z
 _atom_site_occupancy
  C  1  1  0.95367300  0.95467067  0.97849933  1
  C  2  1  0.98327400  0.93408433  0.00000933  1
  C  3  1  0.98609100  0.89928267  0.99843333  1
  C  4  1  0.96169600  0.88360167  0.97440233  1
  C  5  1  0.93107000  0.90364233  0.95253067  1
  C  6  1  0.92698700  0.93830100  0.95488167  1
  C  9  1  0.95363400  0.99036867  0.98052633  1
  C  10  1  0.92711300  0.00685867  0.00427000  1
  C  11  1  0.93122600  0.04150433  0.00661000  1
  C  12  1  0.96161000  0.06140333  0.98458867  1
  C  13  1  0.98577700  0.04562833  0.96044267  1
  C  14  1  0.98298600  0.01083133  0.95887933  1
  C  27  1  0.94237900  0.21442300  0.67999667  1
  C  28  1  0.98571900  0.21509933  0.70611467  1
  C  29  1  0.97615400  0.18718100  0.72251000  1
  C  30  1  0.92549000  0.15701800  0.71299367  1
  C  31  1  0.88344500  0.15589800  0.68687300  1
  C  32  1  0.88865700  0.18428400  0.67110867  1
  C  35  1  0.95389300  0.24261500  0.66287867  1
  C  36  1  0.94691600  0.27543733  0.67212667  1
  C  37  1  0.95848800  0.30285500  0.65533600  1
  C  38  1  0.97540700  0.29829500  0.62819900  1
  C  39  1  0.97856300  0.26564000  0.61836300  1
  C  40  1  0.97240200  0.23867900  0.63577500  1
  C  53  1  0.94524500  0.73105300  0.27914200  1
  C  54  1  0.98842400  0.73015800  0.25282400  1
  C  55  1  0.97869700  0.75809800  0.23645800  1
  C  56  1  0.92790500  0.78848400  0.24617400  1
  C  57  1  0.88598700  0.78981500  0.27248500  1
  C  58  1  0.89148100  0.76143200  0.28825700  1
  C  61  1  0.95698700  0.70283000  0.29621833  1
  C  62  1  0.94990400  0.67003200  0.28701700  1
  C  63  1  0.96165700  0.64257600  0.30376600  1
  C  64  1  0.97867700  0.64708000  0.33082367  1
  C  65  1  0.98190700  0.67972900  0.34062700  1
  C  66  1  0.97568700  0.70670733  0.32323267  1
  C  79  1  0.03672700  0.72417700  0.67386700  1
  C  80  1  0.97766400  0.73102567  0.69837900  1
  C  81  1  0.01683400  0.75870000  0.71311200  1
  C  82  1  0.11737300  0.78036100  0.70337000  1
  C  83  1  0.17997900  0.77280200  0.67929000  1
  C  84  1  0.14080300  0.74508567  0.66510600  1
  C  87  1  0.99529000  0.69745133  0.65774233  1
  C  88  1  0.97465400  0.66526333  0.66754300  1
  C  89  1  0.94828900  0.63856200  0.65085500  1
  C  90  1  0.93737900  0.64389867  0.62363800  1
  C  91  1  0.95928500  0.67603667  0.61349767  1
  C  92  1  0.98393500  0.70223300  0.63067533  1
  C  105  1  0.04239700  0.22098800  0.28457333  1
  C  106  1  0.98229400  0.21391200  0.26051000  1
  C  107  1  0.02419300  0.18644300  0.24543767  1
  C  108  1  0.12855400  0.16520200  0.25440567  1
  C  109  1  0.19194500  0.17298200  0.27803800  1
  C  110  1  0.14994900  0.20049667  0.29256100  1
  C  113  1  0.99781200  0.24742200  0.30105000  1
  C  114  1  0.97158400  0.27951400  0.29146267  1
  C  115  1  0.93916000  0.30589500  0.30832100  1
  C  116  1  0.92766700  0.30024867  0.33554433  1
  C  117  1  0.95715800  0.26832833  0.34551400  1
  C  118  1  0.98783600  0.24245200  0.32815600  1
  C  131  1  0.08869700  0.08416400  0.90017867  1
  C  132  1  0.21117100  0.09833300  0.89155767  1
  C  133  1  0.21030700  0.12083733  0.87049267  1
  C  134  1  0.09060200  0.12927533  0.85753467  1
  C  135  1  0.96936800  0.11536733  0.86662067  1
  C  136  1  0.96835400  0.09317800  0.88761167  1
  C  139  1  0.09246700  0.14980333  0.83500767  1
  C  140  1  0.17012900  0.14135600  0.81270700  1
  C  141  1  0.16124500  0.16120800  0.79015200  1
  C  142  1  0.07563800  0.18916500  0.78907800  1
  C  143  1  0.00091300  0.19764400  0.81147900  1
  C  144  1  0.00913400  0.17821400  0.83405833  1
  C  155  1  0.05227400  0.20517400  0.76576400  1
  C  156  1  0.08615900  0.06081933  0.91987367  1
  C  159  1  0.08951400  0.86044833  0.05824733  1
  C  160  1  0.21200500  0.84567867  0.06625067  1
  C  161  1  0.21127200  0.82319800  0.08733133  1
  C  162  1  0.09170500  0.81537733  0.10089400  1
  C  163  1  0.97044800  0.82988667  0.09241567  1
  C  164  1  0.96929500  0.85206333  0.07142367  1
  C  167  1  0.09374300  0.79484700  0.12341100  1
  C  168  1  0.17188900  0.80290700  0.14531500  1
  C  169  1  0.16307100  0.78312633  0.16792500  1
  C  170  1  0.07715800  0.75561300  0.16943467  1
  C  171  1  0.00196600  0.74750000  0.14741600  1
  C  172  1  0.01005200  0.76687400  0.12479000  1
  C  183  1  0.05424500  0.73969233  0.19286000  1
  C  184  1  0.08678000  0.88374767  0.03853533  1
  C  187  1  0.82693800  0.85965833  0.89536433  1
  C  188  1  0.70812300  0.85299167  0.88137500  1
  C  189  1  0.71675500  0.83583000  0.85753100  1
  C  190  1  0.84094900  0.82471600  0.84723100  1
  C  191  1  0.95818900  0.83146333  0.86126967  1
  C  192  1  0.95134400  0.84864033  0.88484267  1
  C  195  1  0.84795500  0.80649500  0.82363433  1
  C  196  1  0.79975500  0.81953100  0.79986267  1
  C  197  1  0.81347900  0.80067767  0.77690033  1
  C  198  1  0.87317700  0.76892800  0.77704400  1
  C  199  1  0.91862700  0.75605000  0.80084000  1
  C  200  1  0.90679600  0.77461100  0.82370700  1
  C  211  1  0.89633600  0.75166533  0.75428200  1
  C  212  1  0.82130700  0.87408733  0.91985700  1
  C  215  1  0.82806700  0.08591033  0.06435200  1
  C  216  1  0.70954900  0.09316033  0.07893900  1
  C  217  1  0.71871700  0.11021800  0.10276800  1
  C  218  1  0.84318600  0.12065067  0.11248000  1
  C  219  1  0.96013100  0.11333800  0.09784800  1
  C  220  1  0.95273300  0.09627600  0.07427500  1
  C  223  1  0.85076500  0.13879000  0.13606300  1
  C  224  1  0.80279500  0.12597200  0.16006667  1
  C  225  1  0.81715200  0.14471900  0.18297767  1
  C  226  1  0.87712500  0.17616500  0.18254933  1
  C  227  1  0.92229500  0.18884800  0.15853567  1
  C  228  1  0.90993100  0.17037300  0.13571800  1
  C  239  1  0.90032000  0.19335300  0.20518800  1
  C  240  1  0.82196500  0.07154567  0.03986933  1
  C  243  1  0.02190100  0.24552000  0.41238500  1
  C  244  1  0.13904800  0.24322100  0.42778133  1
  C  245  1  0.12660300  0.24338400  0.45513300  1
  C  246  1  0.00028900  0.24591200  0.46767300  1
  C  247  1  0.88472500  0.24807400  0.45215500  1
  C  248  1  0.89532700  0.24798400  0.42497400  1
  C  251  1  0.98996900  0.24514800  0.49525667  1
  C  252  1  0.05849300  0.26786133  0.51114367  1
  C  253  1  0.04641500  0.26533667  0.53846500  1
  C  254  1  0.96767700  0.24066700  0.55056800  1
  C  255  1  0.90036900  0.21832833  0.53439933  1
  C  256  1  0.91097400  0.22057100  0.50729600  1
  C  267  1  0.95263900  0.23814900  0.57739500  1
  C  268  1  0.03076000  0.24461200  0.38549800  1
  C  271  1  0.02206100  0.69900367  0.54642900  1
  C  272  1  0.13943000  0.70100467  0.53060000  1
  C  273  1  0.12745100  0.70096633  0.50329600  1
  C  274  1  0.00138800  0.69885967  0.49123167  1
  C  275  1  0.88560100  0.69696900  0.50717900  1
  C  276  1  0.89574000  0.69694600  0.53432133  1
  C  279  1  0.99151900  0.69977967  0.46369233  1
  C  280  1  0.06078600  0.67691633  0.44748433  1
  C  281  1  0.04925300  0.67962600  0.42021600  1
  C  282  1  0.97036100  0.70463300  0.40847900  1
  C  283  1  0.90233500  0.72712133  0.42496100  1
  C  284  1  0.91239300  0.72469900  0.45201967  1
  C  295  1  0.95588200  0.70734133  0.38171500  1
  C  296  1  0.03035200  0.69990600  0.57327400  1
  C  299  1  0.82714900  0.90088267  0.65678400  1
  C  300  1  0.70845400  0.91936600  0.65200133  1
  C  301  1  0.71555800  0.95421000  0.65103400  1
  C  302  1  0.83766200  0.97080700  0.65489700  1
  C  303  1  0.95466400  0.95185700  0.65952000  1
  C  304  1  0.94970900  0.91728133  0.66043500  1
  C  307  1  0.84280900  0.00584600  0.65526900  1
  C  308  1  0.76617600  0.02463267  0.67336033  1
  C  309  1  0.78537400  0.05910600  0.67471800  1
  C  310  1  0.88039900  0.07543300  0.65872567  1
  C  311  1  0.95320000  0.05641100  0.64042500  1
  C  312  1  0.93433900  0.02223400  0.63865200  1
  C  323  1  0.91878900  0.10769100  0.66348533  1
  C  324  1  0.82604000  0.86874100  0.65808567  1
  C  327  1  0.82582900  0.04491800  0.30300800  1
  C  328  1  0.70720700  0.02689300  0.30821900  1
  C  329  1  0.71463400  0.99202100  0.30915900  1
  C  330  1  0.83699400  0.97495333  0.30485333  1
  C  331  1  0.95390800  0.99345100  0.29980100  1
  C  332  1  0.94863000  0.02804600  0.29890467  1
  C  335  1  0.84249300  0.93989400  0.30448300  1
  C  336  1  0.76639800  0.92137900  0.28668500  1
  C  337  1  0.78602600  0.88683233  0.28527567  1
  C  338  1  0.88079600  0.87015100  0.30095500  1
  C  339  1  0.95299300  0.88891433  0.31898467  1
  C  340  1  0.93385300  0.92317200  0.32077900  1
  C  351  1  0.91920500  0.83766333  0.29621267  1
  C  352  1  0.82442400  0.07706500  0.30171667  1
  C  355  1  0.00690200  0.55697100  0.67880067  1
  C  356  1  0.10703600  0.53366200  0.67130200  1
  C  357  1  0.08119600  0.49956400  0.67409600  1
  C  358  1  0.95805500  0.48797833  0.68426800  1
  C  359  1  0.86091800  0.51150500  0.69228900  1
  C  360  1  0.88532100  0.54549200  0.68983367  1
  C  363  1  0.92880600  0.45359333  0.68375100  1
  C  364  1  0.01446600  0.42938000  0.69498500  1
  C  365  1  0.98808700  0.39547100  0.69112300  1
  C  366  1  0.87855300  0.38497300  0.67615867  1
  C  367  1  0.79213500  0.40933300  0.66579567  1
  C  368  1  0.81677500  0.44300433  0.66953200  1
  C  379  1  0.85913800  0.35209067  0.66987567  1
  C  380  1  0.02547200  0.59003867  0.67312500  1
  C  383  1  0.99446800  0.38795533  0.28096267  1
  C  384  1  0.09860700  0.41031200  0.28678100  1
  C  385  1  0.07550300  0.44462633  0.28392400  1
  C  386  1  0.95125800  0.45733700  0.27528400  1
  C  387  1  0.85028800  0.43469267  0.26875700  1
  C  388  1  0.87166200  0.40053033  0.27140900  1
  C  391  1  0.92461400  0.49198867  0.27599100  1
  C  392  1  0.00978100  0.51547800  0.26380267  1
  C  393  1  0.98545400  0.54962033  0.26767600  1
  C  394  1  0.87828900  0.56104100  0.28353300  1
  C  395  1  0.79250100  0.53742900  0.29493667  1
  C  396  1  0.81537900  0.50355700  0.29126200  1
  C  407  1  0.86026000  0.59412700  0.28958400  1
  C  408  1  0.00976700  0.35482400  0.28730100  1
  H  7  1  0.00533100  0.94443000  0.01744033  1
  H  16  1  0.00498300  0.00041500  0.94136600  1
  H  17  1  0.96048200  0.10606600  0.00310500  1
  H  18  1  0.99488600  0.10869467  0.97193167  1
  H  19  1  0.96058100  0.83893833  0.95589000  1
  H  20  1  0.99528000  0.83616567  0.98690767  1
  H  21  1  0.90212200  0.95168300  0.93878767  1
  H  22  1  0.90247300  0.99359267  0.02048233  1
  H  33  1  0.02886700  0.23583200  0.71332400  1
  H  42  1  0.98477800  0.21557400  0.62831933  1
  H  43  1  0.98629700  0.34728700  0.61828267  1
  H  44  1  0.99972400  0.32225100  0.59335800  1
  H  45  1  0.88147300  0.10892600  0.72226700  1
  H  46  1  0.94514400  0.12964300  0.74641367  1
  H  47  1  0.85266700  0.18243200  0.65271700  1
  H  48  1  0.93182100  0.27981667  0.69143400  1
  H  59  1  0.03165800  0.70923700  0.24543600  1
  H  68  1  0.98792200  0.72976700  0.33062600  1
  H  69  1  0.98922600  0.59804200  0.34071933  1
  H  70  1  0.00278900  0.62303300  0.36557233  1
  H  71  1  0.88397700  0.83677500  0.23707000  1
  H  72  1  0.94753200  0.81574100  0.21265000  1
  H  73  1  0.85552900  0.76345300  0.30680700  1
  H  74  1  0.93447400  0.66570500  0.26779000  1
  H  85  1  0.90200600  0.71637800  0.70520667  1
  H  94  1  0.99527100  0.72541500  0.62311800  1
  H  95  1  0.89139500  0.59630767  0.61393333  1
  H  96  1  0.89993900  0.62150500  0.58890800  1
  H  97  1  0.22298400  0.82260867  0.71015167  1
  H  98  1  0.11350500  0.81369100  0.73324100  1
  H  99  1  0.18947200  0.74011967  0.64793367  1
  H  100  1  0.98512900  0.66071200  0.68692233  1
  H  111  1  0.90394200  0.22822667  0.25428400  1
  H  120  1  0.00373600  0.21933500  0.33557633  1
  H  121  1  0.86720200  0.34707000  0.34551400  1
  H  122  1  0.88123300  0.32187500  0.37042200  1
  H  123  1  0.23955800  0.12342100  0.24677400  1
  H  124  1  0.12704300  0.13192800  0.22451367  1
  H  125  1  0.19901700  0.20561800  0.30940667  1
  H  126  1  0.98086400  0.28420600  0.27204200  1
  H  137  1  0.88101700  0.12041033  0.85742967  1
  H  138  1  0.87895100  0.08290733  0.89314567  1
  H  145  1  0.21385900  0.15414667  0.77391167  1
  H  146  1  0.93523200  0.21719600  0.81120067  1
  H  147  1  0.95106400  0.18466533  0.84974600  1
  H  148  1  0.29915500  0.13086333  0.86438700  1
  H  157  1  0.04753300  0.22958800  0.76461500  1
  H  158  1  0.15198200  0.04225133  0.91938767  1
  H  165  1  0.88218500  0.82527800  0.10204167  1
  H  166  1  0.87987800  0.86275167  0.06631100  1
  H  173  1  0.21624700  0.78988467  0.18388300  1
  H  174  1  0.93616500  0.72826567  0.14801900  1
  H  175  1  0.95170000  0.76070767  0.10939167  1
  H  176  1  0.30011300  0.81272233  0.09298967  1
  H  185  1  0.04791900  0.71532600  0.19402400  1
  H  186  1  0.15268500  0.90200867  0.03867167  1
  H  193  1  0.05006000  0.82376900  0.85445433  1
  H  194  1  0.03880900  0.85223400  0.89460267  1
  H  201  1  0.78130100  0.81064733  0.75978000  1
  H  202  1  0.96433600  0.73336300  0.80163000  1
  H  203  1  0.94210000  0.76454067  0.84054833  1
  H  204  1  0.63016100  0.83067733  0.84793500  1
  H  213  1  0.87767300  0.72768533  0.75345600  1
  H  214  1  0.74265400  0.86942767  0.93132033  1
  H  221  1  0.05218400  0.12053600  0.10422267  1
  H  222  1  0.04003000  0.09223167  0.06408900  1
  H  229  1  0.78501100  0.13491700  0.20025233  1
  H  230  1  0.96804300  0.21132600  0.15752633  1
  H  231  1  0.94500400  0.18029400  0.11870700  1
  H  232  1  0.63233500  0.11578200  0.11280400  1
  H  241  1  0.88121200  0.21739500  0.20609333  1
  H  242  1  0.74314900  0.07659533  0.02880767  1
  H  249  1  0.79146400  0.24987700  0.46056700  1
  H  250  1  0.80900000  0.24933000  0.41444267  1
  H  257  1  0.09606500  0.28203300  0.54955200  1
  H  258  1  0.84197600  0.20009133  0.54221967  1
  H  259  1  0.86166400  0.20361300  0.49638100  1
  H  260  1  0.21155300  0.24108900  0.46597900  1
  H  269  1  0.90549200  0.21871400  0.58481267  1
  H  270  1  0.10173300  0.23064767  0.37729400  1
  H  277  1  0.79252200  0.69548000  0.49911533  1
  H  278  1  0.80928600  0.69582300  0.54518400  1
  H  285  1  0.09945600  0.66282400  0.40889400  1
  H  286  1  0.84381700  0.74560200  0.41740967  1
  H  287  1  0.86257300  0.74176933  0.46317100  1
  H  288  1  0.21253500  0.70304300  0.49213200  1
  H  297  1  0.90901400  0.72702733  0.37450800  1
  H  298  1  0.10001300  0.71392300  0.58120800  1
  H  305  1  0.04431200  0.96312867  0.66283067  1
  H  306  1  0.03646600  0.90438300  0.66409300  1
  H  313  1  0.73454900  0.07191200  0.68883000  1
  H  314  1  0.02532600  0.06704000  0.62892167  1
  H  315  1  0.99203000  0.00918800  0.62567600  1
  H  316  1  0.62992300  0.96755400  0.64754400  1
  H  325  1  0.01361200  0.11385600  0.65958767  1
  H  326  1  0.82529700  0.84603067  0.65902467  1
  H  333  1  0.04375600  0.98183400  0.29617933  1
  H  334  1  0.03535000  0.04061100  0.29494633  1
  H  341  1  0.73524800  0.87419100  0.27141667  1
  H  342  1  0.02480000  0.87802067  0.33028000  1
  H  343  1  0.99106600  0.93601200  0.33355067  1
  H  344  1  0.62905900  0.97900800  0.31296767  1
  H  353  1  0.01313200  0.83084200  0.30023600  1
  H  354  1  0.82346100  0.09977800  0.30078700  1
  H  361  1  0.76991300  0.50401800  0.69943733  1
  H  362  1  0.81080100  0.56176800  0.69504800  1
  H  369  1  0.05196300  0.37831267  0.69894500  1
  H  370  1  0.71314500  0.40284700  0.65442700  1
  H  371  1  0.75535200  0.45979500  0.66057800  1
  H  372  1  0.15142400  0.48305800  0.66734200  1
  H  381  1  0.76736500  0.34467267  0.66529633  1
  H  382  1  0.02947500  0.59590167  0.65440100  1
  H  389  1  0.75845200  0.44298500  0.26273300  1
  H  390  1  0.79427700  0.38498867  0.26743267  1
  H  397  1  0.04870300  0.56626033  0.25909000  1
  H  398  1  0.71520800  0.54460300  0.30694900  1
  H  399  1  0.75429800  0.48732000  0.30087900  1
  H  400  1  0.14870000  0.46049300  0.28960567  1
  H  409  1  0.76883500  0.60230567  0.29445400  1
  H  410  1  0.00452000  0.35077433  0.30616700  1
  N  8  1  0.97122300  0.85012033  0.97229833  1
  N  15  1  0.97104400  0.09484700  0.98664767  1
  N  23  1  0.00538200  0.06401567  0.93927933  1
  N  24  1  0.91915300  0.05422933  0.03028400  1
  N  25  1  0.91869200  0.89098000  0.92892067  1
  N  26  1  0.00583600  0.88083233  0.01951967  1
  N  34  1  0.91771600  0.12956000  0.72842700  1
  N  41  1  0.98736600  0.32478700  0.61193167  1
  N  49  1  0.98791200  0.26128700  0.59277800  1
  N  50  1  0.96017800  0.33300800  0.66524200  1
  N  51  1  0.84508200  0.12737500  0.67709933  1
  N  52  1  0.01684900  0.18717000  0.74678400  1
  N  60  1  0.91998300  0.81595400  0.23075200  1
  N  67  1  0.99052000  0.62054400  0.34705100  1
  N  75  1  0.99096800  0.68403900  0.36617200  1
  N  76  1  0.96227500  0.61237867  0.29392167  1
  N  77  1  0.84738400  0.81852833  0.28235200  1
  N  78  1  0.01940300  0.75790667  0.21200600  1
  N  86  1  0.15479000  0.80769900  0.71677167  1
  N  93  1  0.90889400  0.61839100  0.60747700  1
  N  101  1  0.96030700  0.68067567  0.58784767  1
  N  102  1  0.93194600  0.60628800  0.66085500  1
  N  103  1  0.27138000  0.79037000  0.66971500  1
  N  104  1  0.96306700  0.76588433  0.73610800  1
  N  112  1  0.16878400  0.13805900  0.24068200  1
  N  119  1  0.89137600  0.32527500  0.35186700  1
  N  127  1  0.95888900  0.26365033  0.37115600  1
  N  128  1  0.91521300  0.33792867  0.29828300  1
  N  129  1  0.28646500  0.15576600  0.28691733  1
  N  130  1  0.96924200  0.17904800  0.22286700  1
  N  149  1  0.24930400  0.11217100  0.81263600  1
  N  150  1  0.33240700  0.08982333  0.90409567  1
  N  177  1  0.25143500  0.83167700  0.14497200  1
  N  178  1  0.33307100  0.85357900  0.05309633  1
  N  205  1  0.74371900  0.85171700  0.79920300  1
  N  206  1  0.58193700  0.86342567  0.89142700  1
  N  233  1  0.74629200  0.09408700  0.16097600  1
  N  234  1  0.58309600  0.08340933  0.06949300  1
  N  261  1  0.13449900  0.29339267  0.49950733  1
  N  262  1  0.26730700  0.24107400  0.41573133  1
  N  289  1  0.13696600  0.65106400  0.45876700  1
  N  290  1  0.26740700  0.70274700  0.54218400  1
  N  317  1  0.67860900  0.00855700  0.69104433  1
  N  318  1  0.58498700  0.90298800  0.64851400  1
  N  345  1  0.67896500  0.93777333  0.26932000  1
  N  346  1  0.58350700  0.04374900  0.31215600  1
  N  373  1  0.12435200  0.43945067  0.71008933  1
  N  374  1  0.22973600  0.54466467  0.66027800  1
  N  401  1  0.11684200  0.50447767  0.24768433  1
  N  402  1  0.22229200  0.39816900  0.29640167  1
  O  151  1  0.37085100  0.11829433  0.80827633  1
  O  152  1  0.41470600  0.07651800  0.88868200  1
  O  153  1  0.20974100  0.09196600  0.79607400  1
  O  154  1  0.38607500  0.11466733  0.91388800  1
  O  179  1  0.37296500  0.82492300  0.14872567  1
  O  180  1  0.41572800  0.86649033  0.06808867  1
  O  181  1  0.21240400  0.85210500  0.16171800  1
  O  182  1  0.38636100  0.82846300  0.04304667  1
  O  207  1  0.62470600  0.85140667  0.79145000  1
  O  208  1  0.50607900  0.83939100  0.89570000  1
  O  209  1  0.81086100  0.87055600  0.78479700  1
  O  210  1  0.52429800  0.88313900  0.87627367  1
  O  235  1  0.62740900  0.09502500  0.16932000  1
  O  236  1  0.50748200  0.10784900  0.06563200  1
  O  237  1  0.81335300  0.07487200  0.17503500  1
  O  238  1  0.52543000  0.06395700  0.08490000  1
  O  263  1  0.25542900  0.29182600  0.50606400  1
  O  264  1  0.33966400  0.26501200  0.42170667  1
  O  265  1  0.08835500  0.32132900  0.50537200  1
  O  266  1  0.32706000  0.21476700  0.42169933  1
  O  291  1  0.25801700  0.65224533  0.45177933  1
  O  292  1  0.34049400  0.67861600  0.53589400  1
  O  293  1  0.09140400  0.62331700  0.45297800  1
  O  294  1  0.32659900  0.72889800  0.53604167  1
  O  319  1  0.56008100  0.01892733  0.68888700  1
  O  320  1  0.53694700  0.90914500  0.62661500  1
  O  321  1  0.71477500  0.01228900  0.71406900  1
  O  322  1  0.50029400  0.91122400  0.66555667  1
  O  347  1  0.56050300  0.92785700  0.27192867  1
  O  348  1  0.53507000  0.03777700  0.33422933  1
  O  349  1  0.71557300  0.93387800  0.24616067  1
  O  350  1  0.49924000  0.03584300  0.29541900  1
  O  375  1  0.23399600  0.42914800  0.70082100  1
  O  376  1  0.32813800  0.53540200  0.67354233  1
  O  377  1  0.11326600  0.42929800  0.73302067  1
  O  378  1  0.24569700  0.53443200  0.63751067  1
  O  403  1  0.22822100  0.51408900  0.25578900  1
  O  404  1  0.31852300  0.40612167  0.28181467  1
  O  405  1  0.10278600  0.51448433  0.22481500  1
  O  406  1  0.24432700  0.40865300  0.31880100  1
