# generated using pymatgen
data_Zn5H6C20(NO2)8
_symmetry_space_group_name_H-M   'P 1'
_cell_length_a   13.63476000
_cell_length_b   15.03697000
_cell_length_c   15.32904000
_cell_angle_alpha   89.99133000
_cell_angle_beta   89.88830000
_cell_angle_gamma   89.95619000
_symmetry_Int_Tables_number   1
_chemical_formula_structural   Zn5H6C20(NO2)8
_chemical_formula_sum   'Zn20 H24 C80 N32 O64'
_cell_volume   3142.83681265
_cell_formula_units_Z   4
loop_
 _symmetry_equiv_pos_site_id
 _symmetry_equiv_pos_as_xyz
  1  'x, y, z'
loop_
 _atom_site_type_symbol
 _atom_site_label
 _atom_site_symmetry_multiplicity
 _atom_site_fract_x
 _atom_site_fract_y
 _atom_site_fract_z
 _atom_site_occupancy
  Zn  Zn1  1  0.39283000  0.68960000  0.47292000  1.0
  Zn  Zn2  1  0.36447000  0.28481000  0.42374000  1.0
  Zn  Zn3  1  0.10707000  0.18980000  0.52715000  1.0
  Zn  Zn4  1  0.13497000  0.78462000  0.57636000  1.0
  Zn  Zn5  1  0.60737000  0.80998000  0.97141000  1.0
  Zn  Zn6  1  0.63512000  0.21549000  0.92254000  1.0
  Zn  Zn7  1  0.89199000  0.31017000  0.02806000  1.0
  Zn  Zn8  1  0.86491000  0.71381000  0.07747000  1.0
  Zn  Zn9  1  0.60719000  0.31041000  0.52710000  1.0
  Zn  Zn10  1  0.63552000  0.71519000  0.57627000  1.0
  Zn  Zn11  1  0.89295000  0.81020000  0.47287000  1.0
  Zn  Zn12  1  0.86502000  0.21537000  0.42364000  1.0
  Zn  Zn13  1  0.39269000  0.19006000  0.02858000  1.0
  Zn  Zn14  1  0.36492000  0.78442000  0.07741000  1.0
  Zn  Zn15  1  0.10801000  0.68983000  0.97198000  1.0
  Zn  Zn16  1  0.13506000  0.28644000  0.92250000  1.0
  Zn  Zn17  1  0.00000000  0.50001000  0.50000000  1.0
  Zn  Zn18  1  0.50000000  0.99999000  0.50000000  1.0
  Zn  Zn19  1  0.00067000  0.00106000  0.00199000  1.0
  Zn  Zn20  1  0.50101000  0.49950000  0.00190000  1.0
  H  H1  1  0.28093000  0.70630000  0.27395000  1.0
  H  H2  1  0.45274000  0.49182000  0.40662000  1.0
  H  H3  1  0.69838000  0.85196000  0.15063000  1.0
  H  H4  1  0.21850000  0.20579000  0.72747000  1.0
  H  H5  1  0.04637000  0.99151000  0.59297000  1.0
  H  H6  1  0.80107000  0.35255000  0.84901000  1.0
  H  H7  1  0.71860000  0.79287000  0.77258000  1.0
  H  H8  1  0.54603000  0.00812000  0.90720000  1.0
  H  H9  1  0.30106000  0.64771000  0.65025000  1.0
  H  H10  1  0.78052000  0.29237000  0.22695000  1.0
  H  H11  1  0.95295000  0.50777000  0.09305000  1.0
  H  H12  1  0.19838000  0.14710000  0.34872000  1.0
  H  H13  1  0.71907000  0.29370000  0.72605000  1.0
  H  H14  1  0.54726000  0.50818000  0.59339000  1.0
  H  H15  1  0.30163000  0.14801000  0.84934000  1.0
  H  H16  1  0.78150000  0.79422000  0.27253000  1.0
  H  H17  1  0.95364000  0.00849000  0.40704000  1.0
  H  H18  1  0.19893000  0.64746000  0.15098000  1.0
  H  H19  1  0.28140000  0.20714000  0.22742000  1.0
  H  H20  1  0.45419000  0.99193000  0.09286000  1.0
  H  H21  1  0.69896000  0.35229000  0.34976000  1.0
  H  H22  1  0.21949000  0.70763000  0.77306000  1.0
  H  H23  1  0.04714000  0.49225000  0.90699000  1.0
  H  H24  1  0.80163000  0.85290000  0.65129000  1.0
  C  C1  1  0.49535000  0.79018000  0.23835000  1.0
  C  C2  1  0.50155000  0.76296000  0.32566000  1.0
  C  C3  1  0.35605000  0.72978000  0.27472000  1.0
  C  C4  1  0.56449000  0.82619000  0.17617000  1.0
  C  C5  1  0.57884000  0.76863000  0.39432000  1.0
  C  C6  1  0.24665000  0.53395000  0.50159000  1.0
  C  C7  1  0.24000000  0.44272000  0.48355000  1.0
  C  C8  1  0.38056000  0.49078000  0.43622000  1.0
  C  C9  1  0.18073000  0.59565000  0.54775000  1.0
  C  C10  1  0.16515000  0.37564000  0.50477000  1.0
  C  C11  1  0.00436000  0.29089000  0.76197000  1.0
  C  C12  1  0.99830000  0.26310000  0.67482000  1.0
  C  C13  1  0.14355000  0.22973000  0.72617000  1.0
  C  C14  1  0.93528000  0.32810000  0.82361000  1.0
  C  C15  1  0.92110000  0.26864000  0.60602000  1.0
  C  C16  1  0.25275000  0.03384000  0.49858000  1.0
  C  C17  1  0.25953000  0.94259000  0.51652000  1.0
  C  C18  1  0.11867000  0.99050000  0.56352000  1.0
  C  C19  1  0.31839000  0.09560000  0.45218000  1.0
  C  C20  1  0.33475000  0.87561000  0.49548000  1.0
  C  C21  1  0.50432000  0.70848000  0.73775000  1.0
  C  C22  1  0.49826000  0.73574000  0.82515000  1.0
  C  C23  1  0.64357000  0.76916000  0.77339000  1.0
  C  C24  1  0.43539000  0.67190000  0.67592000  1.0
  C  C25  1  0.42125000  0.73048000  0.89447000  1.0
  C  C26  1  0.75277000  0.96598000  0.00072000  1.0
  C  C27  1  0.75922000  0.05725000  0.98271000  1.0
  C  C28  1  0.61848000  0.00920000  0.93620000  1.0
  C  C29  1  0.81894000  0.90413000  0.04651000  1.0
  C  C30  1  0.83402000  0.12428000  0.00435000  1.0
  C  C31  1  0.99590000  0.21013000  0.26150000  1.0
  C  C32  1  0.00190000  0.23787000  0.17425000  1.0
  C  C33  1  0.85585000  0.26928000  0.22594000  1.0
  C  C34  1  0.06486000  0.17379000  0.32331000  1.0
  C  C35  1  0.07925000  0.23466000  0.10497000  1.0
  C  C36  1  0.74647000  0.46610000  0.99910000  1.0
  C  C37  1  0.73989000  0.55729000  0.01732000  1.0
  C  C38  1  0.88059000  0.50894000  0.06396000  1.0
  C  C39  1  0.68109000  0.40439000  0.95246000  1.0
  C  C40  1  0.66477000  0.62445000  0.99701000  1.0
  C  C41  1  0.50465000  0.20982000  0.76165000  1.0
  C  C42  1  0.49845000  0.23704000  0.67434000  1.0
  C  C43  1  0.64395000  0.27022000  0.72528000  1.0
  C  C44  1  0.43552000  0.17382000  0.82383000  1.0
  C  C45  1  0.42116000  0.23137000  0.60567000  1.0
  C  C46  1  0.75335000  0.46605000  0.49841000  1.0
  C  C47  1  0.76000000  0.55728000  0.51644000  1.0
  C  C48  1  0.61944000  0.50922000  0.56378000  1.0
  C  C49  1  0.81927000  0.40436000  0.45224000  1.0
  C  C50  1  0.83485000  0.62436000  0.49523000  1.0
  C  C51  1  0.99564000  0.70912000  0.23803000  1.0
  C  C52  1  0.00170000  0.73691000  0.32518000  1.0
  C  C53  1  0.85645000  0.77028000  0.27384000  1.0
  C  C54  1  0.06472000  0.67190000  0.17639000  1.0
  C  C55  1  0.07890000  0.73137000  0.39397000  1.0
  C  C56  1  0.74725000  0.96616000  0.50142000  1.0
  C  C57  1  0.74047000  0.05742000  0.48348000  1.0
  C  C58  1  0.88133000  0.00950000  0.43648000  1.0
  C  C59  1  0.68161000  0.90439000  0.54782000  1.0
  C  C60  1  0.66525000  0.12439000  0.50452000  1.0
  C  C61  1  0.49569000  0.29152000  0.26225000  1.0
  C  C62  1  0.50175000  0.26423000  0.17487000  1.0
  C  C63  1  0.35643000  0.23084000  0.22661000  1.0
  C  C64  1  0.56461000  0.32810000  0.32409000  1.0
  C  C65  1  0.57875000  0.26953000  0.10555000  1.0
  C  C66  1  0.24735000  0.03406000  0.99938000  1.0
  C  C67  1  0.24103000  0.94275000  0.01744000  1.0
  C  C68  1  0.38177000  0.99086000  0.06380000  1.0
  C  C69  1  0.18110000  0.09597000  0.95368000  1.0
  C  C70  1  0.16587000  0.87572000  0.99681000  1.0
  C  C71  1  0.00410000  0.78989000  0.73851000  1.0
  C  C72  1  0.99814000  0.76225000  0.82580000  1.0
  C  C73  1  0.14417000  0.73075000  0.77408000  1.0
  C  C74  1  0.93514000  0.82622000  0.67670000  1.0
  C  C75  1  0.92074000  0.76538000  0.89506000  1.0
  C  C76  1  0.25367000  0.53389000  0.00094000  1.0
  C  C77  1  0.26021000  0.44271000  0.98271000  1.0
  C  C78  1  0.11952000  0.49109000  0.93607000  1.0
  C  C79  1  0.31899000  0.59554000  0.04775000  1.0
  C  C80  1  0.33521000  0.37548000  0.00309000  1.0
  N  N1  1  0.40284000  0.76814000  0.20726000  1.0
  N  N2  1  0.41335000  0.72491000  0.34648000  1.0
  N  N3  1  0.33669000  0.56300000  0.47105000  1.0
  N  N4  1  0.32553000  0.41663000  0.44300000  1.0
  N  N5  1  0.09675000  0.26875000  0.79332000  1.0
  N  N6  1  0.08650000  0.22465000  0.65426000  1.0
  N  N7  1  0.16250000  0.06282000  0.52886000  1.0
  N  N8  1  0.17388000  0.91639000  0.55683000  1.0
  N  N9  1  0.59672000  0.73076000  0.70620000  1.0
  N  N10  1  0.58651000  0.77381000  0.84548000  1.0
  N  N11  1  0.66260000  0.93689000  0.97063000  1.0
  N  N12  1  0.67354000  0.08337000  0.94256000  1.0
  N  N13  1  0.90311000  0.23104000  0.29304000  1.0
  N  N14  1  0.91305000  0.27502000  0.15405000  1.0
  N  N15  1  0.83654000  0.43689000  0.02932000  1.0
  N  N16  1  0.82550000  0.58315000  0.05758000  1.0
  N  N17  1  0.59715000  0.23186000  0.79274000  1.0
  N  N18  1  0.58665000  0.27509000  0.65352000  1.0
  N  N19  1  0.66331000  0.43700000  0.52894000  1.0
  N  N20  1  0.67447000  0.58337000  0.55700000  1.0
  N  N21  1  0.90325000  0.73126000  0.20669000  1.0
  N  N22  1  0.91351000  0.77536000  0.34575000  1.0
  N  N23  1  0.83750000  0.93718000  0.47113000  1.0
  N  N24  1  0.82612000  0.08361000  0.44316000  1.0
  N  N25  1  0.40328000  0.26926000  0.29380000  1.0
  N  N26  1  0.41350000  0.22617000  0.15453000  1.0
  N  N27  1  0.33759000  0.06314000  0.02937000  1.0
  N  N28  1  0.32675000  0.91667000  0.05746000  1.0
  N  N29  1  0.09689000  0.76894000  0.70696000  1.0
  N  N30  1  0.08700000  0.72513000  0.84601000  1.0
  N  N31  1  0.16359000  0.56312000  0.97071000  1.0
  N  N32  1  0.17458000  0.41687000  0.94245000  1.0
  O  O1  1  0.53823000  0.83512000  0.09801000  1.0
  O  O2  1  0.65301000  0.84744000  0.20370000  1.0
  O  O3  1  0.65738000  0.80803000  0.38325000  1.0
  O  O4  1  0.55227000  0.72754000  0.46687000  1.0
  O  O5  1  0.22094000  0.66484000  0.58175000  1.0
  O  O6  1  0.08887000  0.58463000  0.55545000  1.0
  O  O7  1  0.08237000  0.39689000  0.53736000  1.0
  O  O8  1  0.19019000  0.29518000  0.48888000  1.0
  O  O9  1  0.96167000  0.33937000  0.90147000  1.0
  O  O10  1  0.84638000  0.34767000  0.79591000  1.0
  O  O11  1  0.84244000  0.30802000  0.61683000  1.0
  O  O12  1  0.94784000  0.22751000  0.53351000  1.0
  O  O13  1  0.27754000  0.16464000  0.41824000  1.0
  O  O14  1  0.41032000  0.08467000  0.44443000  1.0
  O  O15  1  0.41753000  0.89696000  0.46298000  1.0
  O  O16  1  0.30995000  0.79512000  0.51135000  1.0
  O  O17  1  0.46201000  0.66099000  0.59795000  1.0
  O  O18  1  0.34639000  0.65236000  0.70321000  1.0
  O  O19  1  0.34290000  0.69050000  0.88461000  1.0
  O  O20  1  0.44759000  0.77258000  0.96629000  1.0
  O  O21  1  0.77877000  0.83491000  0.08038000  1.0
  O  O22  1  0.91085000  0.91523000  0.05363000  1.0
  O  O23  1  0.91529000  0.10287000  0.03938000  1.0
  O  O24  1  0.81029000  0.20469000  0.98685000  1.0
  O  O25  1  0.03838000  0.16461000  0.40150000  1.0
  O  O26  1  0.15323000  0.15227000  0.29567000  1.0
  O  O27  1  0.16071000  0.20028000  0.11559000  1.0
  O  O28  1  0.04984000  0.27250000  0.03169000  1.0
  O  O29  1  0.72229000  0.33500000  0.91963000  1.0
  O  O30  1  0.58946000  0.41573000  0.94299000  1.0
  O  O31  1  0.58192000  0.60317000  0.96481000  1.0
  O  O32  1  0.68941000  0.70481000  0.01308000  1.0
  O  O33  1  0.46178000  0.16489000  0.90200000  1.0
  O  O34  1  0.34700000  0.15256000  0.79630000  1.0
  O  O35  1  0.34262000  0.19198000  0.61675000  1.0
  O  O36  1  0.44773000  0.27246000  0.53313000  1.0
  O  O37  1  0.77906000  0.33517000  0.41823000  1.0
  O  O38  1  0.91113000  0.41537000  0.44455000  1.0
  O  O39  1  0.91763000  0.60311000  0.46264000  1.0
  O  O40  1  0.80982000  0.70482000  0.51112000  1.0
  O  O41  1  0.03834000  0.66062000  0.09853000  1.0
  O  O42  1  0.15363000  0.65234000  0.20409000  1.0
  O  O43  1  0.15756000  0.69199000  0.38316000  1.0
  O  O44  1  0.05217000  0.77249000  0.46649000  1.0
  O  O45  1  0.72246000  0.83536000  0.58175000  1.0
  O  O46  1  0.58969000  0.91533000  0.55557000  1.0
  O  O47  1  0.58247000  0.10304000  0.53701000  1.0
  O  O48  1  0.69005000  0.20488000  0.48865000  1.0
  O  O49  1  0.53799000  0.33902000  0.40205000  1.0
  O  O50  1  0.65361000  0.34765000  0.29680000  1.0
  O  O51  1  0.65703000  0.30967000  0.11538000  1.0
  O  O52  1  0.55246000  0.22740000  0.03375000  1.0
  O  O53  1  0.22104000  0.16507000  0.91954000  1.0
  O  O54  1  0.08907000  0.08495000  0.94668000  1.0
  O  O55  1  0.08341000  0.89730000  0.96436000  1.0
  O  O56  1  0.19014000  0.79518000  0.01306000  1.0
  O  O57  1  0.96162000  0.83539000  0.59850000  1.0
  O  O58  1  0.84678000  0.84773000  0.70434000  1.0
  O  O59  1  0.83924000  0.79963000  0.88441000  1.0
  O  O60  1  0.95019000  0.72749000  0.96832000  1.0
  O  O61  1  0.27760000  0.66500000  0.08032000  1.0
  O  O62  1  0.41056000  0.58421000  0.05756000  1.0
  O  O63  1  0.41794000  0.39649000  0.03564000  1.0
  O  O64  1  0.31054000  0.29515000  0.98683000  1.0
