# generated using pymatgen
data_Cr3H17C35NO15
_symmetry_space_group_name_H-M   'P 1'
_cell_length_a   11.00561000
_cell_length_b   18.59046000
_cell_length_c   19.11928000
_cell_angle_alpha   90.49510000
_cell_angle_beta   89.84018000
_cell_angle_gamma   90.04667000
_symmetry_Int_Tables_number   1
_chemical_formula_structural   Cr3H17C35NO15
_chemical_formula_sum   'Cr12 H68 C140 N4 O60'
_cell_volume   3911.62982421
_cell_formula_units_Z   4
loop_
 _symmetry_equiv_pos_site_id
 _symmetry_equiv_pos_as_xyz
  1  'x, y, z'
loop_
 _atom_site_type_symbol
 _atom_site_label
 _atom_site_symmetry_multiplicity
 _atom_site_fract_x
 _atom_site_fract_y
 _atom_site_fract_z
 _atom_site_occupancy
  Cr  Cr0  1  0.16982000  0.25264000  0.77282000  1
  Cr  Cr1  1  0.16982000  0.74736000  0.22718000  1
  Cr  Cr2  1  0.66982000  0.25264000  0.27282000  1
  Cr  Cr3  1  0.66982000  0.74736000  0.72718000  1
  Cr  Cr4  1  0.32361000  0.24915000  0.61504000  1
  Cr  Cr5  1  0.32361000  0.75085000  0.38496000  1
  Cr  Cr6  1  0.82361000  0.24915000  0.11504000  1
  Cr  Cr7  1  0.82361000  0.75085000  0.88496000  1
  Cr  Cr8  1  0.01113000  0.25066000  0.61672000  1
  Cr  Cr9  1  0.01113000  0.74934000  0.38328000  1
  Cr  Cr10  1  0.51113000  0.25066000  0.11672000  1
  Cr  Cr11  1  0.51113000  0.74934000  0.88328000  1
  H  H12  1  0.11593000  0.02453000  0.62239000  1
  H  H13  1  0.20636000  0.97574000  0.37604000  1
  H  H14  1  0.63630000  0.02346000  0.12326000  1
  H  H15  1  0.68801000  0.97745000  0.87250000  1
  H  H16  1  0.00981000  0.05852000  0.42556000  1
  H  H17  1  0.96325000  0.94978000  0.52590000  1
  H  H18  1  0.49804000  0.05942000  0.93396000  1
  H  H19  1  0.46866000  0.94927000  0.03610000  1
  H  H20  1  0.97014000  0.94571000  0.86244000  1
  H  H21  1  0.94274000  0.04991000  0.12780000  1
  H  H22  1  0.45881000  0.94741000  0.36496000  1
  H  H23  1  0.51215000  0.06154000  0.65166000  1
  H  H24  1  0.18324000  0.94650000  0.04891000  1
  H  H25  1  0.17487000  0.05301000  0.94916000  1
  H  H26  1  0.71100000  0.94206000  0.54104000  1
  H  H27  1  0.64370000  0.03870000  0.44085000  1
  H  H28  1  0.76083000  0.13826000  0.65327000  1
  H  H29  1  0.75175000  0.84782000  0.33525000  1
  H  H30  1  0.25096000  0.14194000  0.15986000  1
  H  H31  1  0.25424000  0.86027000  0.83682000  1
  H  H32  1  0.34227000  0.44562000  0.53518000  1
  H  H33  1  0.33506000  0.56897000  0.49572000  1
  H  H34  1  0.83576000  0.43161000  0.00502000  1
  H  H35  1  0.84268000  0.55489000  0.96527000  1
  H  H36  1  0.91868000  0.59036000  0.40862000  1
  H  H37  1  0.00408000  0.33118000  0.42246000  1
  H  H38  1  0.50209000  0.66842000  0.07731000  1
  H  H39  1  0.41801000  0.40905000  0.09152000  1
  H  H40  1  0.30187000  0.62427000  0.11109000  1
  H  H41  1  0.26566000  0.49463000  0.11590000  1
  H  H42  1  0.76662000  0.50419000  0.38459000  1
  H  H43  1  0.80376000  0.37474000  0.38902000  1
  H  H44  1  0.05893000  0.59220000  0.85864000  1
  H  H45  1  0.01609000  0.39471000  0.10223000  1
  H  H46  1  0.51421000  0.60567000  0.39846000  1
  H  H47  1  0.55810000  0.40808000  0.64030000  1
  H  H48  1  0.15839000  0.50759000  0.93322000  1
  H  H49  1  0.13391000  0.46748000  0.03564000  1
  H  H50  1  0.63345000  0.53317000  0.46388000  1
  H  H51  1  0.65866000  0.49311000  0.56630000  1
  H  H52  1  0.06735000  0.38678000  0.95535000  1
  H  H53  1  0.08783000  0.59790000  0.02174000  1
  H  H54  1  0.58812000  0.40258000  0.47780000  1
  H  H55  1  0.56781000  0.61396000  0.54463000  1
  H  H56  1  0.89166000  0.34828000  0.88750000  1
  H  H57  1  0.94257000  0.65431000  0.10200000  1
  H  H58  1  0.44275000  0.34592000  0.39814000  1
  H  H59  1  0.39176000  0.65214000  0.61286000  1
  H  H60  1  0.77622000  0.55853000  0.67130000  1
  H  H61  1  0.68655000  0.45944000  0.27837000  1
  H  H62  1  0.18650000  0.54034000  0.22241000  1
  H  H63  1  0.27613000  0.44113000  0.82888000  1
  H  H64  1  0.31567000  0.94124000  0.57269000  1
  H  H65  1  0.36399000  0.05051000  0.47172000  1
  H  H66  1  0.82800000  0.93973000  0.05878000  1
  H  H67  1  0.85704000  0.05284000  0.96024000  1
  H  H68  1  0.98554000  0.07196000  0.85810000  1
  H  H69  1  0.99233000  0.92716000  0.14118000  1
  H  H70  1  0.47428000  0.07449000  0.36083000  1
  H  H71  1  0.52192000  0.93557000  0.65090000  1
  H  H72  1  0.82267000  0.87625000  0.62791000  1
  H  H73  1  0.73463000  0.11161000  0.35470000  1
  H  H74  1  0.30703000  0.87983000  0.12954000  1
  H  H75  1  0.30201000  0.12227000  0.87197000  1
  H  H76  1  0.15175000  0.07759000  0.06468000  1
  H  H77  1  0.15136000  0.92167000  0.93247000  1
  H  H78  1  0.68053000  0.07361000  0.55305000  1
  H  H79  1  0.64736000  0.90640000  0.43152000  1
  C  C80  1  0.37558000  0.14600000  0.73042000  1
  C  C81  1  0.37143000  0.85594000  0.27127000  1
  C  C82  1  0.83386000  0.13860000  0.21463000  1
  C  C83  1  0.87345000  0.85506000  0.77068000  1
  C  C84  1  0.15573000  0.14500000  0.53167000  1
  C  C85  1  0.15540000  0.85564000  0.46738000  1
  C  C86  1  0.65581000  0.14514000  0.03141000  1
  C  C87  1  0.65520000  0.85589000  0.96687000  1
  C  C88  1  0.96505000  0.15077000  0.74302000  1
  C  C89  1  0.96431000  0.84849000  0.25634000  1
  C  C90  1  0.46413000  0.15128000  0.24335000  1
  C  C91  1  0.46649000  0.84991000  0.75714000  1
  C  C92  1  0.33949000  0.36289000  0.71461000  1
  C  C93  1  0.33067000  0.63771000  0.29024000  1
  C  C94  1  0.83057000  0.36232000  0.20977000  1
  C  C95  1  0.84014000  0.63713000  0.78514000  1
  C  C96  1  0.15868000  0.35070000  0.52966000  1
  C  C97  1  0.15221000  0.63884000  0.43622000  1
  C  C98  1  0.65212000  0.36114000  0.06381000  1
  C  C99  1  0.65844000  0.64932000  0.97036000  1
  C  C100  1  0.96164000  0.35185000  0.74383000  1
  C  C101  1  0.95847000  0.65038000  0.25292000  1
  C  C102  1  0.45864000  0.34969000  0.24713000  1
  C  C103  1  0.46158000  0.64811000  0.75626000  1
  C  C104  1  0.24766000  0.96887000  0.53975000  1
  C  C105  1  0.27379000  0.02712000  0.48411000  1
  C  C106  1  0.75419000  0.96951000  0.03289000  1
  C  C107  1  0.76975000  0.02841000  0.97674000  1
  C  C108  1  0.13750000  0.01275000  0.56665000  1
  C  C109  1  0.18840000  0.98798000  0.43197000  1
  C  C110  1  0.64834000  0.01231000  0.06648000  1
  C  C111  1  0.67706000  0.98901000  0.92926000  1
  C  C112  1  0.16334000  0.06971000  0.51040000  1
  C  C113  1  0.16244000  0.93119000  0.48816000  1
  C  C114  1  0.66350000  0.06992000  0.00962000  1
  C  C115  1  0.66150000  0.93172000  0.98624000  1
  C  C116  1  0.07839000  0.03169000  0.45887000  1
  C  C117  1  0.05266000  0.97408000  0.51451000  1
  C  C118  1  0.57117000  0.03170000  0.96270000  1
  C  C119  1  0.55571000  0.97351000  0.01909000  1
  C  C120  1  0.89795000  0.93124000  0.75707000  1
  C  C121  1  0.85220000  0.06165000  0.22853000  1
  C  C122  1  0.39149000  0.93306000  0.25859000  1
  C  C123  1  0.40653000  0.07157000  0.74746000  1
  C  C124  1  0.85049000  0.96832000  0.69836000  1
  C  C125  1  0.80414000  0.02295000  0.28746000  1
  C  C126  1  0.34129000  0.97074000  0.20068000  1
  C  C127  1  0.34724000  0.03243000  0.80159000  1
  C  C128  1  0.84480000  0.04444000  0.70093000  1
  C  C129  1  0.81883000  0.94708000  0.28852000  1
  C  C130  1  0.33674000  0.04696000  0.20372000  1
  C  C131  1  0.34395000  0.95632000  0.79689000  1
  C  C132  1  0.94462000  0.04446000  0.81390000  1
  C  C133  1  0.93671000  0.95208000  0.18139000  1
  C  C134  1  0.43616000  0.04652000  0.31615000  1
  C  C135  1  0.47061000  0.96091000  0.69274000  1
  C  C136  1  0.94112000  0.97101000  0.81465000  1
  C  C137  1  0.91144000  0.02373000  0.17496000  1
  C  C138  1  0.43252000  0.97285000  0.31674000  1
  C  C139  1  0.46873000  0.03420000  0.69466000  1
  C  C140  1  0.80742000  0.93276000  0.63763000  1
  C  C141  1  0.74391000  0.05500000  0.34584000  1
  C  C142  1  0.29276000  0.93611000  0.14078000  1
  C  C143  1  0.29047000  0.06591000  0.85984000  1
  C  C144  1  0.22513000  0.97452000  0.09219000  1
  C  C145  1  0.22125000  0.02607000  0.90669000  1
  C  C146  1  0.74659000  0.97056000  0.58582000  1
  C  C147  1  0.69225000  0.01314000  0.39827000  1
  C  C148  1  0.73096000  0.04443000  0.59199000  1
  C  C149  1  0.69495000  0.93881000  0.39353000  1
  C  C150  1  0.20874000  0.04822000  0.10040000  1
  C  C151  1  0.20884000  0.95224000  0.89770000  1
  C  C152  1  0.77907000  0.08122000  0.64905000  1
  C  C153  1  0.75607000  0.90587000  0.33869000  1
  C  C154  1  0.26626000  0.08463000  0.15471000  1
  C  C155  1  0.26929000  0.91745000  0.84332000  1
  C  C156  1  0.90612000  0.08161000  0.75524000  1
  C  C157  1  0.89805000  0.91426000  0.23998000  1
  C  C158  1  0.40110000  0.08352000  0.25689000  1
  C  C159  1  0.41556000  0.92118000  0.74565000  1
  C  C160  1  0.15620000  0.56122000  0.45214000  1
  C  C161  1  0.17209000  0.41544000  0.48788000  1
  C  C162  1  0.67149000  0.58459000  0.01216000  1
  C  C163  1  0.65611000  0.43882000  0.04809000  1
  C  C164  1  0.05956000  0.51286000  0.43557000  1
  C  C165  1  0.07576000  0.43828000  0.44624000  1
  C  C166  1  0.57471000  0.56151000  0.05369000  1
  C  C167  1  0.55889000  0.48690000  0.06446000  1
  C  C168  1  0.26625000  0.46286000  0.50406000  1
  C  C169  1  0.26025000  0.53398000  0.48373000  1
  C  C170  1  0.76052000  0.46637000  0.01678000  1
  C  C171  1  0.76628000  0.53747000  0.99628000  1
  C  C172  1  0.94458000  0.53530000  0.41279000  1
  C  C173  1  0.98826000  0.38866000  0.42167000  1
  C  C174  1  0.48662000  0.61090000  0.07814000  1
  C  C175  1  0.44379000  0.46414000  0.08726000  1
  C  C176  1  0.37376000  0.58667000  0.09870000  1
  C  C177  1  0.35243000  0.51359000  0.10067000  1
  C  C178  1  0.85356000  0.48557000  0.39948000  1
  C  C179  1  0.87537000  0.41256000  0.40130000  1
  C  C180  1  0.86402000  0.56084000  0.77255000  1
  C  C181  1  0.84110000  0.44273000  0.20955000  1
  C  C182  1  0.34105000  0.55730000  0.29066000  1
  C  C183  1  0.36330000  0.43918000  0.72716000  1
  C  C184  1  0.91816000  0.51788000  0.82415000  1
  C  C185  1  0.91643000  0.48117000  0.16061000  1
  C  C186  1  0.41620000  0.51899000  0.33953000  1
  C  C187  1  0.41756000  0.48230000  0.67553000  1
  C  C188  1  0.89057000  0.44455000  0.82452000  1
  C  C189  1  0.91418000  0.55695000  0.16283000  1
  C  C190  1  0.41430000  0.44320000  0.33728000  1
  C  C191  1  0.39026000  0.55565000  0.67554000  1
  C  C192  1  0.83303000  0.45363000  0.70243000  1
  C  C193  1  0.78479000  0.55892000  0.26196000  1
  C  C194  1  0.28466000  0.44095000  0.23869000  1
  C  C195  1  0.33329000  0.54609000  0.79791000  1
  C  C196  1  0.81624000  0.52718000  0.71275000  1
  C  C197  1  0.76177000  0.48464000  0.25134000  1
  C  C198  1  0.26174000  0.51524000  0.24921000  1
  C  C199  1  0.31596000  0.47262000  0.78732000  1
  C  C200  1  0.01664000  0.54075000  0.86530000  1
  C  C201  1  0.99609000  0.45026000  0.11015000  1
  C  C202  1  0.49525000  0.55006000  0.39002000  1
  C  C203  1  0.51614000  0.45960000  0.63408000  1
  C  C204  1  0.07502000  0.49209000  0.90842000  1
  C  C205  1  0.06263000  0.49275000  0.06530000  1
  C  C206  1  0.56233000  0.50770000  0.43443000  1
  C  C207  1  0.57507000  0.50849000  0.59120000  1
  C  C208  1  0.02483000  0.42438000  0.92019000  1
  C  C209  1  0.04017000  0.56559000  0.05982000  1
  C  C210  1  0.54030000  0.43479000  0.43989000  1
  C  C211  1  0.52502000  0.57621000  0.57972000  1
  C  C212  1  0.92341000  0.40323000  0.88252000  1
  C  C213  1  0.95946000  0.59706000  0.10603000  1
  C  C214  1  0.45960000  0.40318000  0.39398000  1
  C  C215  1  0.42338000  0.59717000  0.61759000  1
  C  C216  1  0.87930000  0.41234000  0.75864000  1
  C  C217  1  0.87959000  0.59085000  0.22551000  1
  C  C218  1  0.37970000  0.40919000  0.27474000  1
  C  C219  1  0.37928000  0.58760000  0.74162000  1
  N  N220  1  0.82093000  0.42500000  0.63279000  1
  N  N221  1  0.69552000  0.60402000  0.29362000  1
  N  N222  1  0.19493000  0.39580000  0.20767000  1
  N  N223  1  0.32238000  0.57429000  0.86781000  1
  O  O224  1  0.04300000  0.17252000  0.78819000  1
  O  O225  1  0.04300000  0.82748000  0.21181000  1
  O  O226  1  0.54300000  0.17252000  0.28819000  1
  O  O227  1  0.54300000  0.82748000  0.71181000  1
  O  O228  1  0.29230000  0.17686000  0.76624000  1
  O  O229  1  0.29230000  0.82314000  0.23376000  1
  O  O230  1  0.79230000  0.17686000  0.26624000  1
  O  O231  1  0.79230000  0.82314000  0.73376000  1
  O  O232  1  0.40916000  0.16872000  0.67031000  1
  O  O233  1  0.40916000  0.83128000  0.32969000  1
  O  O234  1  0.90916000  0.16872000  0.17031000  1
  O  O235  1  0.90916000  0.83128000  0.82969000  1
  O  O236  1  0.25190000  0.17338000  0.55616000  1
  O  O237  1  0.25190000  0.82662000  0.44384000  1
  O  O238  1  0.75190000  0.17338000  0.05616000  1
  O  O239  1  0.75190000  0.82662000  0.94384000  1
  O  O240  1  0.05014000  0.16824000  0.54541000  1
  O  O241  1  0.05014000  0.83176000  0.45459000  1
  O  O242  1  0.55014000  0.16824000  0.04541000  1
  O  O243  1  0.55014000  0.83176000  0.95459000  1
  O  O244  1  0.95835000  0.17697000  0.68153000  1
  O  O245  1  0.95835000  0.82303000  0.31847000  1
  O  O246  1  0.45835000  0.17697000  0.18153000  1
  O  O247  1  0.45835000  0.82303000  0.81847000  1
  O  O248  1  0.04448000  0.33445000  0.78861000  1
  O  O249  1  0.04448000  0.66555000  0.21139000  1
  O  O250  1  0.54448000  0.33445000  0.28861000  1
  O  O251  1  0.54448000  0.66555000  0.71139000  1
  O  O252  1  0.29367000  0.32697000  0.76663000  1
  O  O253  1  0.29367000  0.67303000  0.23337000  1
  O  O254  1  0.79367000  0.32697000  0.26663000  1
  O  O255  1  0.79367000  0.67303000  0.73337000  1
  O  O256  1  0.41064000  0.33064000  0.67073000  1
  O  O257  1  0.41064000  0.66936000  0.32927000  1
  O  O258  1  0.91064000  0.33064000  0.17073000  1
  O  O259  1  0.91064000  0.66936000  0.82927000  1
  O  O260  1  0.25326000  0.32348000  0.55655000  1
  O  O261  1  0.25326000  0.67652000  0.44345000  1
  O  O262  1  0.75326000  0.32348000  0.05655000  1
  O  O263  1  0.75326000  0.67652000  0.94345000  1
  O  O264  1  0.05161000  0.33016000  0.54583000  1
  O  O265  1  0.05161000  0.66984000  0.45417000  1
  O  O266  1  0.55161000  0.33016000  0.04583000  1
  O  O267  1  0.55161000  0.66984000  0.95417000  1
  O  O268  1  0.95972000  0.32707000  0.68192000  1
  O  O269  1  0.95972000  0.67293000  0.31808000  1
  O  O270  1  0.45972000  0.32707000  0.18192000  1
  O  O271  1  0.45972000  0.67293000  0.81808000  1
  O  O272  1  0.16819000  0.25082000  0.66819000  1
  O  O273  1  0.16819000  0.74918000  0.33181000  1
  O  O274  1  0.66819000  0.25082000  0.16819000  1
  O  O275  1  0.66819000  0.74918000  0.83181000  1
  O  O276  1  0.76276000  0.36508000  0.62130000  1
  O  O277  1  0.87411000  0.45721000  0.58084000  1
  O  O278  1  0.72307000  0.64314000  0.34802000  1
  O  O279  1  0.60376000  0.62280000  0.25531000  1
  O  O280  1  0.22251000  0.35513000  0.15428000  1
  O  O281  1  0.10141000  0.37907000  0.24583000  1
  O  O282  1  0.26404000  0.63396000  0.88020000  1
  O  O283  1  0.37562000  0.54152000  0.91920000  1
