# generated using pymatgen
data_H18(C4N)5
_symmetry_space_group_name_H-M   'P 1'
_cell_length_a   15.68290000
_cell_length_b   15.68290000
_cell_length_c   62.73170000
_cell_angle_alpha   90.00000000
_cell_angle_beta   90.00000000
_cell_angle_gamma   90.00000000
_symmetry_Int_Tables_number   1
_chemical_formula_structural   H18(C4N)5
_chemical_formula_sum   'H144 C160 N40'
_cell_volume   15429.07191738
_cell_formula_units_Z   8
loop_
 _symmetry_equiv_pos_site_id
 _symmetry_equiv_pos_as_xyz
  1  'x, y, z'
loop_
 _atom_site_type_symbol
 _atom_site_label
 _atom_site_symmetry_multiplicity
 _atom_site_fract_x
 _atom_site_fract_y
 _atom_site_fract_z
 _atom_site_occupancy
  C  1  1  0.03587700  0.97049100  0.11548300  1
  C  2  1  0.01892900  0.99222500  0.09378900  1
  C  3  1  0.01207500  0.93161500  0.07718500  1
  C  4  1  0.01759200  0.84321600  0.08190500  1
  C  5  1  0.03684700  0.81829100  0.10314700  1
  C  6  1  0.04658400  0.88137900  0.11916300  1
  C  9  1  0.04217100  0.03337900  0.13231300  1
  C  10  1  0.04648000  0.12263700  0.12804900  1
  C  11  1  0.05341800  0.18576300  0.14407000  1
  C  12  1  0.05586000  0.16109100  0.16584600  1
  C  13  1  0.05134000  0.07297500  0.17100300  1
  C  14  1  0.04455000  0.01181200  0.15444700  1
  C  27  1  0.03995800  0.02502600  0.61257100  1
  C  28  1  0.01886500  0.00636700  0.59091200  1
  C  29  1  0.08014800  0.99771500  0.57443400  1
  C  30  1  0.16827600  0.00474500  0.57936000  1
  C  31  1  0.19236600  0.02571300  0.60055800  1
  C  32  1  0.12883800  0.03637000  0.61639400  1
  C  35  1  0.97684200  0.03192500  0.62932300  1
  C  36  1  0.88774900  0.03684700  0.62492700  1
  C  37  1  0.82446300  0.04447200  0.64089500  1
  C  38  1  0.84870000  0.04673700  0.66270500  1
  C  39  1  0.93666800  0.04165400  0.66796900  1
  C  40  1  0.99806300  0.03432800  0.65148400  1
  C  53  1  0.97880300  0.98311700  0.87971300  1
  C  54  1  0.99479500  0.00428900  0.90146500  1
  C  55  1  0.01027000  0.94247100  0.91740700  1
  C  56  1  0.01503900  0.85487900  0.91174700  1
  C  57  1  0.99091800  0.83083000  0.89075100  1
  C  58  1  0.97141900  0.89431000  0.87543000  1
  C  61  1  0.97631600  0.04683200  0.86316200  1
  C  62  1  0.96225700  0.13459200  0.86771200  1
  C  63  1  0.97932300  0.20053600  0.85296600  1
  C  64  1  0.00134700  0.17951800  0.83156400  1
  C  65  1  0.00399000  0.09183600  0.82563100  1
  C  66  1  0.99399100  0.02790800  0.84137100  1
  C  79  1  0.99121100  0.02623000  0.38252000  1
  C  80  1  0.01119500  0.01191400  0.40443800  1
  C  81  1  0.94841300  0.99745100  0.42029800  1
  C  82  1  0.86096100  0.99496100  0.41439400  1
  C  83  1  0.83839900  0.01650700  0.39313300  1
  C  84  1  0.90272000  0.03381300  0.37791900  1
  C  87  1  0.05532600  0.02796600  0.36604500  1
  C  88  1  0.14302600  0.04187900  0.37066600  1
  C  89  1  0.20906600  0.02543400  0.35590200  1
  C  90  1  0.18837500  0.00386500  0.33445100  1
  C  91  1  0.10077800  0.00080500  0.32848500  1
  C  92  1  0.03677200  0.01028500  0.34421800  1
  C  105  1  0.05071500  0.99961200  0.22624500  1
  C  106  1  0.99460400  0.96127500  0.24125600  1
  C  107  1  0.00434100  0.97529900  0.26356500  1
  C  108  1  0.07015600  0.02831000  0.27157100  1
  C  109  1  0.12609000  0.06577600  0.25653400  1
  C  110  1  0.11711200  0.05121900  0.23450700  1
  C  112  1  0.88240800  0.88597900  0.27056700  1
  C  113  1  0.87264300  0.87168300  0.24832700  1
  C  117  1  0.82787800  0.85051400  0.28780800  1
  C  118  1  0.78021800  0.92050400  0.30043400  1
  C  124  1  0.80625200  0.81728700  0.23833900  1
  C  125  1  0.82799600  0.72130300  0.23965900  1
  C  131  1  0.04399500  0.98671900  0.20415400  1
  C  133  1  0.08270100  0.04620600  0.29318500  1
  C  135  1  0.00834600  0.04157100  0.72337800  1
  C  136  1  0.04751500  0.98655100  0.73851200  1
  C  137  1  0.03271500  0.99629300  0.76079100  1
  C  138  1  0.97803800  0.06100900  0.76866300  1
  C  139  1  0.93974100  0.11586300  0.75350600  1
  C  140  1  0.95504500  0.10688600  0.73150900  1
  C  142  1  0.12474500  0.87661900  0.76804900  1
  C  143  1  0.13978800  0.86684700  0.74584000  1
  C  147  1  0.16114100  0.82327400  0.78539900  1
  C  148  1  0.09204600  0.77425900  0.79800800  1
  C  154  1  0.19601300  0.80163900  0.73599800  1
  C  155  1  0.29140400  0.82573900  0.73743600  1
  C  161  1  0.02204600  0.03497200  0.70128700  1
  C  163  1  0.95957500  0.07374000  0.79025000  1
  C  165  1  0.03580800  0.96434800  0.02023600  1
  C  166  1  0.09958300  0.97856400  0.00452600  1
  C  167  1  0.07981800  0.97815300  0.98237300  1
  C  168  1  0.99523500  0.96353200  0.97509700  1
  C  169  1  0.93207700  0.95024700  0.99094600  1
  C  170  1  0.95164000  0.95058800  0.01286700  1
  C  172  1  0.22783000  0.00617200  0.97417900  1
  C  173  1  0.24758100  0.00636200  0.99626200  1
  C  177  1  0.28945300  0.02082300  0.95659000  1
  C  178  1  0.31018400  0.11634600  0.95343700  1
  C  184  1  0.33333767  0.01920500  0.00581900  1
  C  185  1  0.36584100  0.93906500  0.01764400  1
  C  191  1  0.05652500  0.96148500  0.04200600  1
  C  193  1  0.97080700  0.96046800  0.95352100  1
  C  195  1  0.00524900  0.99781100  0.52010100  1
  C  196  1  0.99474400  0.07065700  0.50692300  1
  C  197  1  0.00460800  0.06502900  0.48443500  1
  C  198  1  0.02518600  0.98647400  0.47448600  1
  C  199  1  0.03639400  0.91429300  0.48774100  1
  C  200  1  0.02620700  0.91977400  0.51004100  1
  C  202  1  0.97487900  0.21539300  0.48121900  1
  C  203  1  0.96615300  0.22139100  0.50371500  1
  C  207  1  0.96475600  0.28691700  0.46591100  1
  C  208  1  0.87016900  0.30775400  0.46134600  1
  C  214  1  0.94810700  0.30032000  0.51603300  1
  C  215  1  0.02379500  0.32683900  0.53036000  1
  C  221  1  0.99396600  0.00088500  0.54218100  1
  C  223  1  0.03565600  0.98066800  0.45242100  1
  C  225  1  0.06772800  0.59456900  0.12348200  1
  C  226  1  0.10397800  0.54514600  0.14013500  1
  C  227  1  0.09992800  0.45454900  0.13988100  1
  C  228  1  0.05947700  0.41029800  0.12287500  1
  C  229  1  0.02761500  0.46003900  0.10580800  1
  C  230  1  0.03105800  0.54974800  0.10616200  1
  C  232  1  0.18589700  0.44982400  0.17191800  1
  C  233  1  0.18839300  0.54030600  0.17234200  1
  C  237  1  0.23009700  0.39171000  0.18705700  1
  C  238  1  0.29490500  0.33224000  0.17590800  1
  C  244  1  0.23359600  0.59318000  0.18841700  1
  C  245  1  0.18560600  0.59800400  0.20990000  1
  C  251  1  0.06872800  0.68490400  0.12409000  1
  C  253  1  0.05008400  0.32046100  0.12195500  1
  C  255  1  0.41576900  0.05878800  0.62080900  1
  C  256  1  0.46549100  0.09554100  0.63733400  1
  C  257  1  0.55610000  0.09197900  0.63689800  1
  C  258  1  0.60001900  0.05153900  0.61983000  1
  C  259  1  0.54994200  0.01917100  0.60289300  1
  C  260  1  0.46026200  0.02213200  0.60343000  1
  C  262  1  0.56132200  0.17818600  0.66889300  1
  C  263  1  0.47084000  0.18010400  0.66950500  1
  C  267  1  0.61962900  0.22271700  0.68392900  1
  C  268  1  0.67830100  0.28795300  0.67267400  1
  C  274  1  0.41820400  0.22492300  0.68569800  1
  C  275  1  0.41434700  0.17680800  0.70717700  1
  C  281  1  0.32545300  0.05932400  0.62156300  1
  C  283  1  0.68983300  0.04229900  0.61875000  1
  C  285  1  0.96311700  0.61194200  0.86957800  1
  C  286  1  0.89709000  0.55115200  0.86682200  1
  C  287  1  0.91611700  0.46301000  0.86445500  1
  C  288  1  0.00183500  0.43464400  0.86291800  1
  C  289  1  0.06710300  0.49624500  0.86524700  1
  C  290  1  0.04823000  0.58215500  0.86964500  1
  C  292  1  0.76550100  0.43138600  0.86296300  1
  C  293  1  0.74662100  0.51935900  0.86559900  1
  C  297  1  0.70258900  0.36096500  0.86091600  1
  C  298  1  0.70782400  0.29677400  0.87957800  1
  C  304  1  0.65975900  0.55682700  0.86661000  1
  C  305  1  0.61858900  0.56659500  0.84435800  1
  C  311  1  0.94701700  0.70029600  0.87106200  1
  C  313  1  0.02447800  0.35030900  0.85738300  1
  C  315  1  0.62057900  0.04264200  0.37134500  1
  C  316  1  0.55978700  0.10851900  0.36845200  1
  C  317  1  0.47155500  0.08936800  0.36644000  1
  C  318  1  0.44312400  0.00354300  0.36541500  1
  C  319  1  0.50478500  0.93839000  0.36780500  1
  C  320  1  0.59085100  0.95754400  0.37189300  1
  C  322  1  0.43994200  0.23986300  0.36432800  1
  C  323  1  0.52804200  0.25887800  0.36662300  1
  C  327  1  0.36947000  0.30265900  0.36217300  1
  C  328  1  0.30605600  0.29886500  0.38102000  1
  C  334  1  0.56560700  0.34576900  0.36711600  1
  C  335  1  0.57442500  0.38521400  0.34464700  1
  C  341  1  0.70888900  0.05872500  0.37267000  1
  C  343  1  0.35859200  0.98052500  0.36022300  1
  H  7  1  0.00905200  0.05401300  0.08946400  1
  H  16  1  0.03913700  0.94997500  0.15915900  1
  H  17  1  0.05697800  0.28186400  0.17847600  1
  H  18  1  0.05946300  0.20642800  0.19662000  1
  H  19  1  0.00817300  0.72313000  0.06904900  1
  H  20  1  0.98930200  0.80001600  0.05183600  1
  H  21  1  0.06250500  0.86023800  0.13393600  1
  H  22  1  0.04959400  0.14397800  0.11278700  1
  H  33  1  0.95739100  0.99418300  0.58671000  1
  H  42  1  0.05975600  0.02821200  0.65626800  1
  H  43  1  0.72770800  0.04839600  0.67520600  1
  H  44  1  0.80280300  0.05046900  0.69343000  1
  H  45  1  0.28920300  0.99861500  0.56675400  1
  H  46  1  0.21358700  0.97970900  0.54922700  1
  H  47  1  0.14944800  0.05380800  0.63111200  1
  H  48  1  0.86688800  0.04021900  0.60961200  1
  H  59  1  0.00135300  0.06641400  0.90600300  1
  H  68  1  0.00411700  0.96646500  0.83663800  1
  H  69  1  0.99849000  0.30044500  0.81911400  1
  H  70  1  0.02843900  0.22787500  0.80190400  1
  H  71  1  0.04229400  0.73500000  0.92299000  1
  H  72  1  0.05721400  0.81108900  0.94070300  1
  H  73  1  0.95551000  0.87419300  0.86048700  1
  H  74  1  0.94435800  0.15261000  0.88270600  1
  H  85  1  0.07308300  0.00666600  0.40918600  1
  H  94  1  0.97548400  0.99997300  0.33940600  1
  H  95  1  0.30927600  0.00803100  0.32202200  1
  H  96  1  0.23701300  0.97790700  0.30475000  1
  H  97  1  0.73918300  0.97521300  0.42551100  1
  H  98  1  0.81332100  0.96148800  0.44375700  1
  H  99  1  0.88328800  0.04874500  0.36286100  1
  H  100  1  0.16091300  0.05959600  0.38568100  1
  H  115  1  0.16021200  0.07934600  0.22445400  1
  H  116  1  0.17523300  0.10395700  0.26151400  1
  H  119  1  0.86836500  0.81463700  0.29879500  1
  H  120  1  0.78039900  0.80622100  0.28163100  1
  H  121  1  0.82522200  0.96339100  0.30828000  1
  H  122  1  0.74026300  0.89113800  0.31265100  1
  H  123  1  0.73946600  0.95760200  0.28979000  1
  H  126  1  0.79974900  0.83379500  0.22147000  1
  H  127  1  0.74435400  0.82955100  0.24569600  1
  H  128  1  0.83397700  0.70043300  0.25617800  1
  H  129  1  0.88785700  0.70825100  0.23137800  1
  H  130  1  0.77748900  0.68420200  0.23208500  1
  H  132  1  0.00586800  0.94103600  0.19875300  1
  H  134  1  0.10571000  0.10360200  0.29693000  1
  H  145  1  0.92625500  0.14926200  0.72138200  1
  H  146  1  0.90038000  0.16425300  0.75837400  1
  H  149  1  0.19586700  0.86480000  0.79637400  1
  H  150  1  0.20663600  0.77671100  0.77933500  1
  H  151  1  0.04799900  0.81841900  0.80575200  1
  H  152  1  0.12210600  0.73522900  0.81030500  1
  H  153  1  0.05607800  0.73246500  0.78737600  1
  H  156  1  0.18006100  0.79447200  0.71911400  1
  H  157  1  0.18508500  0.73957800  0.74340100  1
  H  158  1  0.31173800  0.83247200  0.75398100  1
  H  159  1  0.30318700  0.88578100  0.72911800  1
  H  160  1  0.32990000  0.77604400  0.72996500  1
  H  162  1  0.06883800  0.99762900  0.69614900  1
  H  164  1  0.90213400  0.09689200  0.79389600  1
  H  175  1  0.90322400  0.93930800  0.02343900  1
  H  176  1  0.87000300  0.93923800  0.98666700  1
  H  179  1  0.26292100  0.99686400  0.94161000  1
  H  180  1  0.34795000  0.98487300  0.95948200  1
  H  181  1  0.25231000  0.15171800  0.94948700  1
  H  182  1  0.35550600  0.12371200  0.94036100  1
  H  183  1  0.33823100  0.14384500  0.96778900  1
  H  186  1  0.32986600  0.07226800  0.01708200  1
  H  187  1  0.38076400  0.03620800  0.99385800  1
  H  188  1  0.36978800  0.88503200  0.00670500  1
  H  189  1  0.32341500  0.92251900  0.03081500  1
  H  190  1  0.42928700  0.95123200  0.02412700  1
  H  192  1  0.11563300  0.94370100  0.04575700  1
  H  194  1  0.91203300  0.94020100  0.95018000  1
  H  205  1  0.03392000  0.86553300  0.51892800  1
  H  206  1  0.05127200  0.85635500  0.48120000  1
  H  209  1  0.99482100  0.27038200  0.45072400  1
  H  210  1  0.99769300  0.34352400  0.47182200  1
  H  211  1  0.83818200  0.25243100  0.45442100  1
  H  212  1  0.86616800  0.36048500  0.45003100  1
  H  213  1  0.83672500  0.32613600  0.47588400  1
  H  216  1  0.89209700  0.28931400  0.52602800  1
  H  217  1  0.93319300  0.35398200  0.50565200  1
  H  218  1  0.03783600  0.27733900  0.54209300  1
  H  219  1  0.00805800  0.38549500  0.53886700  1
  H  220  1  0.08062000  0.33822400  0.52070500  1
  H  222  1  0.95411400  0.04454900  0.54793400  1
  H  224  1  0.07821100  0.93872100  0.44713800  1
  H  235  1  0.00437200  0.58203300  0.09366200  1
  H  236  1  0.99834700  0.43137300  0.09308900  1
  H  239  1  0.18237000  0.35282700  0.19516600  1
  H  240  1  0.26440200  0.42676700  0.19935200  1
  H  241  1  0.26284400  0.29035900  0.16453900  1
  H  242  1  0.32690800  0.29258400  0.18776300  1
  H  243  1  0.34300300  0.36969400  0.16749000  1
  H  246  1  0.24059900  0.65842300  0.18248400  1
  H  247  1  0.29803500  0.56870500  0.19087600  1
  H  248  1  0.17780300  0.53489900  0.21694300  1
  H  249  1  0.12267200  0.62640100  0.20762600  1
  H  250  1  0.22146300  0.63766500  0.22104100  1
  H  252  1  0.09106100  0.71519800  0.13737800  1
  H  254  1  0.02694400  0.29300500  0.10833700  1
  H  265  1  0.42777600  0.99505700  0.59101700  1
  H  266  1  0.57835200  0.98993900  0.59013400  1
  H  269  1  0.65909200  0.17522700  0.69194900  1
  H  270  1  0.58474400  0.25674400  0.69630200  1
  H  271  1  0.72000900  0.25620700  0.66121100  1
  H  272  1  0.71814100  0.32016100  0.68445800  1
  H  273  1  0.64026000  0.33584600  0.66434900  1
  H  276  1  0.35273800  0.23155500  0.67989400  1
  H  277  1  0.44235900  0.28949800  0.68812800  1
  H  278  1  0.47772000  0.16936000  0.71409200  1
  H  279  1  0.38625900  0.11371400  0.70494000  1
  H  280  1  0.37482100  0.21238000  0.71840700  1
  H  282  1  0.29519700  0.08189700  0.63483200  1
  H  284  1  0.71701500  0.01888000  0.60512600  1
  H  295  1  0.09794000  0.62416800  0.87100000  1
  H  296  1  0.12989900  0.47873000  0.86424800  1
  H  299  1  0.71477100  0.32719500  0.84598200  1
  H  300  1  0.63736500  0.38469700  0.86018600  1
  H  301  1  0.77039200  0.26626800  0.88009800  1
  H  302  1  0.65958000  0.24726200  0.87753000  1
  H  303  1  0.69632400  0.32908800  0.89473000  1
  H  306  1  0.66279100  0.62024700  0.87383900  1
  H  307  1  0.61898900  0.51821900  0.87690500  1
  H  308  1  0.61242100  0.50505800  0.83640200  1
  H  309  1  0.65713100  0.60868100  0.83437900  1
  H  310  1  0.55512400  0.59442100  0.84599500  1
  H  312  1  0.89023500  0.72446600  0.86578400  1
  H  314  1  0.08441500  0.33920900  0.85148800  1
  H  325  1  0.63291000  0.90790100  0.37331200  1
  H  326  1  0.48720300  0.87553800  0.36712700  1
  H  329  1  0.33507000  0.28938400  0.34738600  1
  H  330  1  0.39320400  0.36780000  0.36107600  1
  H  331  1  0.27553200  0.23636900  0.38191100  1
  H  332  1  0.25649200  0.34698600  0.37887700  1
  H  333  1  0.33900200  0.31146300  0.39603300  1
  H  336  1  0.62933700  0.34323600  0.37418600  1
  H  337  1  0.52747700  0.38734900  0.37732000  1
  H  338  1  0.51254900  0.39083000  0.33683100  1
  H  339  1  0.61605000  0.34587800  0.33474000  1
  H  340  1  0.60236600  0.44876900  0.34590300  1
  H  342  1  0.73360700  0.11487700  0.36712200  1
  H  344  1  0.34725500  0.92034500  0.35451000  1
  N  8  1  0.00554500  0.78395400  0.06622400  1
  N  15  1  0.05963600  0.22135300  0.18158900  1
  N  23  1  0.05519200  0.05161600  0.19163000  1
  N  24  1  0.05853900  0.27031100  0.13937100  1
  N  25  1  0.04511100  0.73351700  0.10728000  1
  N  26  1  0.99984500  0.95992900  0.05726700  1
  N  34  1  0.22859200  0.99376900  0.56383800  1
  N  41  1  0.78816900  0.05083200  0.67838300  1
  N  49  1  0.95756700  0.04549200  0.68862500  1
  N  50  1  0.74004300  0.05025000  0.63615400  1
  N  51  1  0.27689600  0.03476300  0.60483800  1
  N  52  1  0.05802300  0.98042600  0.55424600  1
  N  60  1  0.03841000  0.79522400  0.92649200  1
  N  67  1  0.01227300  0.24126600  0.81646000  1
  N  75  1  0.01583000  0.06876000  0.80523400  1
  N  76  1  0.97529600  0.28091600  0.86109400  1
  N  77  1  0.98950300  0.74655100  0.88580300  1
  N  78  1  0.02296500  0.96915600  0.93742700  1
  N  86  1  0.79937200  0.97681400  0.42915800  1
  N  93  1  0.25024400  0.99369200  0.31934100  1
  N  101  1  0.07782700  0.98946500  0.30805800  1
  N  102  1  0.28945300  0.02996000  0.36397600  1
  N  103  1  0.75448900  0.01817100  0.38786000  1
  N  104  1  0.96756100  0.99008600  0.44102300  1
  N  111  1  0.94776600  0.93701300  0.27685400  1
  N  114  1  0.92914700  0.91029500  0.23499900  1
  N  141  1  0.07203100  0.94084800  0.77418900  1
  N  144  1  0.10018200  0.92221900  0.73240200  1
  N  171  1  0.14531500  0.99195400  0.96861700  1
  N  174  1  0.18221700  0.99271300  0.01006700  1
  N  201  1  0.99397900  0.13764600  0.47290900  1
  N  204  1  0.97644700  0.14860500  0.51521800  1
  N  231  1  0.14147300  0.41274000  0.15576900  1
  N  234  1  0.14763000  0.58235800  0.15638400  1
  N  261  1  0.59816500  0.13389400  0.65268600  1
  N  264  1  0.42852000  0.13900900  0.65364600  1
  N  291  1  0.84911400  0.40877400  0.86237300  1
  N  294  1  0.81353400  0.57405100  0.86740700  1
  N  321  1  0.41725400  0.15623600  0.36420200  1
  N  324  1  0.58279000  0.19207800  0.36858400  1
