# generated using pymatgen
data_MgH6C16(NO4)2
_symmetry_space_group_name_H-M   'P 1'
_cell_length_a   10.24876000
_cell_length_b   12.54545654
_cell_length_c   15.69228000
_cell_angle_alpha   84.59127703
_cell_angle_beta   76.06218000
_cell_angle_gamma   66.54626753
_symmetry_Int_Tables_number   1
_chemical_formula_structural   MgH6C16(NO4)2
_chemical_formula_sum   'Mg2 H12 C32 N4 O16'
_cell_volume   1796.44779241
_cell_formula_units_Z   2
loop_
 _symmetry_equiv_pos_site_id
 _symmetry_equiv_pos_as_xyz
  1  'x, y, z'
loop_
 _atom_site_type_symbol
 _atom_site_label
 _atom_site_symmetry_multiplicity
 _atom_site_fract_x
 _atom_site_fract_y
 _atom_site_fract_z
 _atom_site_occupancy
  Mg  Mg0  1  0.18970000  0.62263000  0.75050000  1
  Mg  Mg1  1  0.81031000  0.37736000  0.24950000  1
  H  H2  1  0.15450000  0.47943000  0.99296000  1
  H  H3  1  0.52663000  0.19414000  0.85788000  1
  H  H4  1  0.26670000  0.13539000  0.10558000  1
  H  H5  1  0.36217000  0.48214000  0.50809000  1
  H  H6  1  0.28015000  0.19281000  0.64361000  1
  H  H7  1  0.59431000  0.13886000  0.39450000  1
  H  H8  1  0.84550000  0.52057000  0.00704000  1
  H  H9  1  0.47337000  0.80586000  0.14212000  1
  H  H10  1  0.73332000  0.86460000  0.89442000  1
  H  H11  1  0.63783000  0.51786000  0.49192000  1
  H  H12  1  0.71986000  0.80718000  0.35639000  1
  H  H13  1  0.40569000  0.86114000  0.60551000  1
  C  C14  1  0.22614000  0.38791000  0.98970000  1
  C  C15  1  0.43533000  0.22817000  0.91370000  1
  C  C16  1  0.28809000  0.19479000  0.05424000  1
  C  C17  1  0.19864000  0.31223000  0.05717000  1
  C  C18  1  0.40828000  0.15366000  0.98199000  1
  C  C19  1  0.34281000  0.34555000  0.91752000  1
  C  C20  1  0.36173000  0.42504000  0.84125000  1
  C  C21  1  0.06659000  0.36156000  0.13234000  1
  C  C22  1  0.38287000  0.39005000  0.51121000  1
  C  C23  1  0.33635000  0.22785000  0.58755000  1
  C  C24  1  0.51383000  0.19730000  0.44618000  1
  C  C25  1  0.48473000  0.31541000  0.44328000  1
  C  C26  1  0.43697000  0.15424000  0.51879000  1
  C  C27  1  0.31054000  0.34600000  0.58365000  1
  C  C28  1  0.21328000  0.42556000  0.65983000  1
  C  C29  1  0.56583000  0.36618000  0.36771000  1
  C  C30  1  0.77386000  0.61209000  0.01030000  1
  C  C31  1  0.56468000  0.77182000  0.08630000  1
  C  C32  1  0.71191000  0.80521000  0.94577000  1
  C  C33  1  0.80136000  0.68777000  0.94283000  1
  C  C34  1  0.59173000  0.84633000  0.01802000  1
  C  C35  1  0.65719000  0.65445000  0.08248000  1
  C  C36  1  0.63828000  0.57495000  0.15875000  1
  C  C37  1  0.93341000  0.63844000  0.86766000  1
  C  C38  1  0.61714000  0.60994000  0.48879000  1
  C  C39  1  0.66366000  0.77214000  0.41245000  1
  C  C40  1  0.48617000  0.80270000  0.55382000  1
  C  C41  1  0.51528000  0.68458000  0.55672000  1
  C  C42  1  0.56303000  0.84576000  0.48121000  1
  C  C43  1  0.68946000  0.65400000  0.41635000  1
  C  C44  1  0.78672000  0.57444000  0.34017000  1
  C  C45  1  0.43417000  0.63382000  0.63229000  1
  N  N46  1  0.50717000  0.03787000  0.97283000  1
  N  N47  1  0.45575000  0.03736000  0.52764000  1
  N  N48  1  0.49283000  0.96213000  0.02717000  1
  N  N49  1  0.54426000  0.96263000  0.47237000  1
  O  O50  1  0.27399000  0.53209000  0.84889000  1
  O  O51  1  0.45861000  0.38005000  0.77410000  1
  O  O52  1  0.01824000  0.46954000  0.14278000  1
  O  O53  1  0.01389000  0.29129000  0.17779000  1
  O  O54  1  0.19281000  0.53343000  0.65102000  1
  O  O55  1  0.16354000  0.38022000  0.72782000  1
  O  O56  1  0.50966000  0.47456000  0.35943000  1
  O  O57  1  0.68469000  0.29601000  0.31998000  1
  O  O58  1  0.72602000  0.46790000  0.15112000  1
  O  O59  1  0.54140000  0.61994000  0.22590000  1
  O  O60  1  0.98177000  0.53045000  0.85722000  1
  O  O61  1  0.98612000  0.70870000  0.82221000  1
  O  O62  1  0.80720000  0.46656000  0.34898000  1
  O  O63  1  0.83647000  0.61977000  0.27218000  1
  O  O64  1  0.49036000  0.52543000  0.64057000  1
  O  O65  1  0.31531000  0.70399000  0.68002000  1
