# generated using pymatgen
data_H24C35(N2O)2
_symmetry_space_group_name_H-M   'P 1'
_cell_length_a   35.54688367
_cell_length_b   35.54654117
_cell_length_c   35.53831434
_cell_angle_alpha   70.47101857
_cell_angle_beta   70.58632385
_cell_angle_gamma   109.45287621
_symmetry_Int_Tables_number   1
_chemical_formula_structural   H24C35(N2O)2
_chemical_formula_sum   'H144 C210 N24 O12'
_cell_volume   34575.66951276
_cell_formula_units_Z   6
loop_
 _symmetry_equiv_pos_site_id
 _symmetry_equiv_pos_as_xyz
  1  'x, y, z'
loop_
 _atom_site_type_symbol
 _atom_site_label
 _atom_site_symmetry_multiplicity
 _atom_site_fract_x
 _atom_site_fract_y
 _atom_site_fract_z
 _atom_site_occupancy
  C  1  1  0.58828650  0.67036200  0.74827750  1
  C  2  1  0.60557450  0.71362900  0.74590450  1
  C  3  1  0.58049400  0.73697800  0.74674500  1
  C  4  1  0.53816050  0.72016150  0.74683100  1
  C  5  1  0.52065600  0.67627350  0.75010450  1
  C  6  1  0.54508800  0.65216050  0.75051850  1
  C  7  1  0.50928850  0.74385750  0.75134000  1
  C  8  1  0.48041950  0.71951200  0.80390650  1
  C  9  1  0.43810850  0.67725700  0.82941650  1
  C  10  1  0.41305500  0.65299550  0.87784850  1
  C  11  1  0.43034700  0.66790250  0.90383750  1
  C  12  1  0.47351000  0.70888100  0.87885300  1
  C  13  1  0.49792300  0.73373150  0.83030750  1
  C  14  1  0.53734500  0.79641600  0.72785100  1
  C  15  1  0.48122750  0.73929150  0.72682700  1
  C  16  1  0.43908500  0.73975200  0.74256600  1
  C  17  1  0.41447200  0.73853000  0.71871600  1
  C  18  1  0.43248700  0.74008000  0.67598700  1
  C  19  1  0.47580250  0.74267450  0.65823100  1
  C  20  1  0.49943150  0.74218750  0.68314700  1
  C  21  1  0.57948150  0.82279600  0.68524950  1
  C  22  1  0.60413850  0.87124200  0.66188750  1
  C  23  1  0.58611100  0.89596300  0.67831800  1
  C  24  1  0.54279500  0.87043100  0.71902600  1
  C  25  1  0.51915500  0.82190000  0.74314700  1
  C  42  1  0.58598200  0.31838300  0.09777200  1
  C  43  1  0.54507350  0.27514800  0.12372850  1
  C  44  1  0.52091550  0.25177150  0.17216100  1
  C  45  1  0.53768500  0.26850900  0.19771200  1
  C  46  1  0.57830300  0.31238250  0.17133850  1
  C  47  1  0.60198350  0.33652350  0.12279300  1
  C  48  1  0.50947200  0.24482400  0.25027500  1
  C  49  1  0.48126450  0.26917900  0.25480750  1
  C  50  1  0.49804000  0.31146650  0.25482050  1
  C  51  1  0.47387950  0.33573850  0.25563700  1
  C  52  1  0.43296500  0.32081900  0.25330200  1
  C  53  1  0.41696400  0.27983550  0.25110950  1
  C  54  1  0.44065000  0.25497700  0.25152600  1
  C  55  1  0.48037850  0.19227350  0.27476300  1
  C  56  1  0.53854600  0.24938350  0.27377150  1
  C  57  1  0.52242800  0.24900250  0.31634450  1
  C  58  1  0.54752400  0.25024600  0.33971300  1
  C  59  1  0.58860650  0.24853350  0.32330500  1
  C  60  1  0.60367500  0.24582500  0.28263400  1
  C  61  1  0.57923350  0.24632600  0.25852950  1
  C  62  1  0.49649050  0.16582600  0.25900750  1
  C  63  1  0.47139450  0.11737900  0.28284750  1
  C  64  1  0.43029450  0.09270850  0.32562200  1
  C  65  1  0.41524050  0.11830350  0.34341600  1
  C  66  1  0.43968700  0.16683100  0.31849700  1
  C  83  1  0.91228200  0.57095850  0.67676450  1
  C  84  1  0.88634050  0.53005950  0.72005600  1
  C  85  1  0.83794350  0.50589200  0.74340050  1
  C  86  1  0.81242150  0.52264400  0.72655450  1
  C  87  1  0.83877300  0.56326850  0.68264650  1
  C  88  1  0.88728350  0.58696050  0.65854700  1
  C  89  1  0.75988950  0.49441050  0.75021300  1
  C  90  1  0.75533350  0.46617000  0.72590350  1
  C  91  1  0.75525950  0.48291050  0.68361400  1
  C  92  1  0.75447200  0.45873500  0.65937300  1
  C  93  1  0.75687150  0.41783800  0.67434050  1
  C  94  1  0.75905600  0.40183950  0.71536450  1
  C  95  1  0.75861950  0.42554150  0.74019100  1
  C  96  1  0.73542350  0.46531800  0.80277650  1
  C  97  1  0.73642600  0.52350500  0.74557000  1
  C  98  1  0.69385700  0.50735000  0.74594300  1
  C  99  1  0.67048050  0.53242400  0.74471050  1
  C  100  1  0.68690650  0.57353800  0.74638550  1
  C  101  1  0.72760650  0.58866250  0.74905100  1
  C  102  1  0.75171400  0.56424250  0.74855350  1
  C  103  1  0.75119050  0.48148150  0.82920500  1
  C  104  1  0.72737000  0.45639600  0.87765500  1
  C  105  1  0.68459200  0.41529200  0.90232600  1
  C  106  1  0.66681300  0.40016250  0.87673950  1
  C  107  1  0.69172350  0.42458000  0.82821150  1
  C  124  1  0.26181400  0.57322500  0.32491400  1
  C  125  1  0.26411600  0.59049950  0.28165150  1
  C  126  1  0.26334800  0.56544600  0.25829000  1
  C  127  1  0.26340850  0.52316100  0.27508150  1
  C  128  1  0.26020600  0.50567350  0.31896750  1
  C  129  1  0.25972650  0.53007450  0.34309400  1
  C  130  1  0.25886650  0.49428650  0.25140500  1
  C  131  1  0.20633550  0.46540250  0.27569900  1
  C  132  1  0.18085350  0.42310200  0.31802450  1
  C  133  1  0.13245350  0.39803250  0.34228400  1
  C  134  1  0.10647000  0.41530400  0.32730900  1
  C  135  1  0.13142800  0.45846400  0.28626700  1
  C  136  1  0.17993800  0.48287950  0.26141050  1
  C  137  1  0.28232250  0.52238250  0.19884500  1
  C  138  1  0.28334150  0.46620500  0.25604850  1
  C  139  1  0.26758750  0.42400900  0.25566850  1
  C  140  1  0.29145550  0.39942700  0.25688250  1
  C  141  1  0.33425850  0.41756100  0.25517150  1
  C  142  1  0.35203100  0.46093150  0.25249050  1
  C  143  1  0.32707750  0.48450650  0.25302500  1
  C  144  1  0.32485900  0.56459550  0.17244050  1
  C  145  1  0.34824150  0.58918650  0.12398700  1
  C  146  1  0.33183300  0.57108000  0.09928600  1
  C  147  1  0.29117650  0.52769750  0.12485000  1
  C  148  1  0.26707700  0.50409150  0.17337850  1
  C  165  1  0.33556650  0.74171650  0.57739500  1
  C  166  1  0.35046500  0.73936150  0.53649550  1
  C  167  1  0.32619050  0.74017100  0.51232350  1
  C  168  1  0.28392000  0.74019700  0.52908200  1
  C  169  1  0.26970500  0.74344150  0.56970850  1
  C  170  1  0.29458600  0.74389750  0.59338650  1
  C  171  1  0.25959250  0.74475550  0.50081600  1
  C  172  1  0.28329500  0.79733000  0.47252300  1
  C  173  1  0.26655600  0.82288050  0.48926350  1
  C  174  1  0.28995100  0.87131500  0.46508300  1
  C  175  1  0.33317750  0.89725650  0.42418700  1
  C  176  1  0.35128050  0.87222150  0.40819600  1
  C  177  1  0.32712050  0.82367600  0.43188050  1
  C  178  1  0.26414600  0.72123400  0.47179700  1
  C  179  1  0.20707750  0.72030400  0.52988250  1
  C  180  1  0.18068250  0.73613550  0.51368500  1
  C  181  1  0.13226650  0.71231550  0.53874300  1
  C  182  1  0.10759700  0.66952150  0.57989150  1
  C  183  1  0.13315300  0.65169150  0.59505950  1
  C  184  1  0.18164800  0.67657900  0.57065000  1
  C  185  1  0.26379350  0.67865500  0.48800750  1
  C  186  1  0.26500700  0.65526350  0.46296550  1
  C  187  1  0.26334650  0.67170750  0.42181000  1
  C  188  1  0.26065450  0.71240850  0.40663800  1
  C  189  1  0.26113900  0.73652050  0.43103750  1
  C  206  1  0.68314050  0.09140950  0.57983300  1
  C  207  1  0.66823150  0.11740050  0.59708900  1
  C  208  1  0.69252750  0.16583400  0.57203550  1
  C  209  1  0.73480200  0.19133450  0.52975750  1
  C  210  1  0.74904050  0.16493500  0.51229750  1
  C  211  1  0.72415750  0.11639050  0.53670900  1
  C  212  1  0.75914500  0.24390750  0.50083550  1
  C  213  1  0.73545650  0.24848050  0.47193300  1
  C  214  1  0.75221950  0.24847250  0.42964400  1
  C  215  1  0.72885200  0.24926700  0.40456100  1
  C  216  1  0.68562750  0.24695500  0.42180050  1
  C  217  1  0.66748800  0.24482700  0.46494700  1
  C  218  1  0.69161450  0.24527450  0.48938100  1
  C  219  1  0.75456950  0.26839800  0.52888350  1
  C  220  1  0.81166350  0.26733900  0.47280350  1
  C  221  1  0.83804950  0.30991950  0.43057800  1
  C  222  1  0.88646400  0.33326250  0.40597650  1
  C  223  1  0.91114800  0.31682100  0.42412400  1
  C  224  1  0.88560350  0.27612150  0.46751700  1
  C  225  1  0.83710800  0.25203450  0.49111350  1
  C  226  1  0.75491650  0.25258850  0.57112500  1
  C  227  1  0.75364500  0.27641950  0.59572350  1
  C  228  1  0.75532800  0.31923400  0.57756200  1
  C  229  1  0.75803500  0.33705550  0.53414850  1
  C  230  1  0.75755550  0.31214000  0.51055350  1
  C  493  1  0.38113650  0.59364400  0.97977550  1
  C  494  1  0.40521950  0.64257500  0.95332050  1
  C  495  1  0.40288750  0.66572300  0.97891650  1
  C  497  1  0.35629850  0.59520800  0.05036150  1
  C  501  1  0.34187700  0.53030350  0.97228450  1
  C  505  1  0.43122700  0.39506000  0.22837900  1
  C  506  1  0.40879200  0.34612950  0.25316050  1
  C  507  1  0.36006250  0.32296300  0.27862950  1
  C  509  1  0.35908100  0.39346100  0.25479400  1
  C  513  1  0.50199650  0.45837200  0.20441950  1
  C  517  1  0.63761750  0.64371500  0.77319650  1
  C  518  1  0.61344800  0.64603850  0.74841950  1
  C  519  1  0.61572750  0.62276100  0.72294950  1
  C  521  1  0.66241500  0.59797000  0.74677000  1
  C  525  1  0.67700550  0.69055700  0.79713250  1
  C  529  1  0.58767950  0.34512850  0.02180200  1
  C  530  1  0.61013650  0.34273300  0.04828850  1
  C  531  1  0.65886600  0.36598000  0.02271900  1
  C  533  1  0.65980000  0.39084650  0.95124950  1
  C  537  1  0.51687450  0.29843150  0.02922300  1
  C  541  1  0.78193650  0.41618750  0.60009700  1
  C  542  1  0.75709950  0.39368700  0.64902350  1
  C  543  1  0.73167750  0.34492250  0.67217900  1
  C  545  1  0.75563800  0.34402350  0.60167950  1
  C  549  1  0.80592900  0.48702600  0.53671100  1
  C  553  1  0.03062750  0.36608550  0.40156300  1
  C  554  1  0.05701650  0.39016750  0.35263600  1
  C  555  1  0.03138350  0.38784400  0.32949150  1
  C  557  1  0.96003750  0.34127400  0.40000350  1
  C  561  1  0.03815950  0.32678700  0.46494150  1
  C  565  1  0.98814950  0.57259150  0.65013700  1
  C  566  1  0.96173200  0.59510200  0.65243100  1
  C  567  1  0.98733150  0.64386550  0.62909900  1
  C  569  1  0.05870600  0.64474700  0.60433100  1
  C  573  1  0.98067000  0.50175100  0.69702100  1
  C  577  1  0.23668650  0.62237650  0.35159800  1
  C  578  1  0.26158200  0.59834700  0.34925700  1
  C  579  1  0.28705700  0.60071400  0.37255700  1
  C  581  1  0.26304750  0.64724800  0.39736350  1
  C  585  1  0.21249000  0.66157600  0.30483600  1
  C  589  1  0.36000600  0.97314000  0.42255400  1
  C  590  1  0.35757200  0.94674050  0.40004450  1
  C  591  1  0.38083750  0.97239650  0.35128000  1
  C  593  1  0.40579950  0.04378350  0.35040200  1
  C  597  1  0.31335600  0.96565450  0.49340350  1
  C  601  1  0.65888850  0.22186400  0.37262850  1
  C  602  1  0.66127000  0.24674700  0.39665700  1
  C  603  1  0.63798950  0.27222850  0.39427500  1
  C  605  1  0.61309200  0.24822350  0.34775950  1
  C  609  1  0.70561900  0.19775950  0.33342250  1
  C  613  1  0.40981550  0.76676750  0.57904100  1
  C  614  1  0.36091900  0.74191800  0.60154400  1
  C  615  1  0.33782950  0.71645100  0.65031050  1
  C  617  1  0.40833300  0.74039700  0.65120200  1
  C  621  1  0.47307100  0.79080200  0.50820800  1
  C  625  1  0.60887200  0.01558000  0.62890600  1
  C  626  1  0.65776500  0.04192750  0.60494950  1
  C  627  1  0.68082000  0.01622250  0.60738250  1
  C  629  1  0.61028650  0.94488600  0.65384850  1
  C  633  1  0.54555050  0.02316650  0.66796500  1
  H  26  1  0.38412050  0.73853250  0.73197700  1
  H  27  1  0.42558100  0.74108650  0.77203750  1
  H  28  1  0.49041150  0.74443200  0.62709950  1
  H  29  1  0.53090400  0.74475550  0.66844250  1
  H  30  1  0.59296550  0.80682350  0.67040600  1
  H  31  1  0.63444100  0.88831300  0.63149400  1
  H  32  1  0.52819100  0.88696350  0.73186050  1
  H  33  1  0.48768550  0.80515000  0.77204350  1
  H  34  1  0.52949850  0.76232800  0.81420250  1
  H  35  1  0.48837300  0.72050800  0.89582700  1
  H  36  1  0.38175600  0.62410650  0.89387550  1
  H  37  1  0.42469200  0.66333900  0.81284300  1
  H  38  1  0.48908200  0.66081200  0.75307000  1
  H  39  1  0.59391550  0.76696200  0.74724650  1
  H  40  1  0.63689600  0.72891800  0.74345300  1
  H  41  1  0.53024550  0.62035200  0.75370750  1
  H  67  1  0.53428200  0.25025300  0.37007000  1
  H  68  1  0.49166850  0.24774550  0.33116900  1
  H  69  1  0.63298000  0.24395650  0.26982050  1
  H  70  1  0.59131150  0.24368400  0.22965650  1
  H  71  1  0.52724750  0.18175600  0.22951050  1
  H  72  1  0.48461050  0.10026850  0.26956700  1
  H  73  1  0.38592650  0.10181750  0.37457900  1
  H  74  1  0.42761650  0.18361900  0.33323050  1
  H  75  1  0.42812900  0.22635700  0.24858000  1
  H  76  1  0.38834850  0.26819250  0.24791000  1
  H  77  1  0.48675400  0.36463100  0.25804600  1
  H  78  1  0.52853450  0.32538700  0.25429950  1
  H  79  1  0.59081850  0.32781450  0.18746800  1
  H  80  1  0.49042050  0.22181350  0.18870900  1
  H  81  1  0.53219800  0.25990150  0.10767950  1
  H  82  1  0.63060200  0.36831850  0.10584950  1
  H  108  1  0.64011850  0.51915550  0.74471200  1
  H  109  1  0.67902400  0.47656300  0.74723300  1
  H  110  1  0.74043600  0.61798850  0.75089350  1
  H  111  1  0.78059150  0.57634450  0.75119000  1
  H  112  1  0.78067000  0.51227000  0.81326300  1
  H  113  1  0.74061600  0.46968400  0.89475600  1
  H  114  1  0.63565500  0.37083900  0.89322800  1
  H  115  1  0.67699650  0.41247700  0.81142350  1
  H  116  1  0.76159250  0.41304500  0.76882750  1
  H  117  1  0.76230050  0.37324100  0.72703950  1
  H  118  1  0.75205950  0.47159650  0.63044900  1
  H  119  1  0.75576000  0.51340850  0.66964950  1
  H  120  1  0.82265200  0.57577350  0.66715650  1
  H  121  1  0.82140300  0.47539550  0.77340050  1
  H  122  1  0.90237900  0.51719400  0.73535900  1
  H  123  1  0.90421900  0.61556350  0.62670650  1
  H  149  1  0.27819450  0.36906300  0.25688550  1
  H  150  1  0.23808450  0.41044000  0.25439750  1
  H  151  1  0.38320700  0.47562800  0.25062300  1
  H  152  1  0.34181150  0.51603400  0.25036250  1
  H  153  1  0.33966650  0.57816500  0.18840050  1
  H  154  1  0.37854900  0.61958600  0.10690600  1
  H  155  1  0.27836250  0.51302100  0.10834250  1
  H  156  1  0.23822550  0.47256900  0.19014650  1
  H  157  1  0.19602550  0.51444300  0.23275150  1
  H  158  1  0.11446300  0.47330700  0.27456800  1
  H  159  1  0.11645150  0.36673900  0.37121950  1
  H  160  1  0.19742650  0.40970400  0.33199250  1
  H  161  1  0.25733450  0.47412150  0.33442400  1
  H  162  1  0.26278650  0.57884850  0.22831000  1
  H  163  1  0.26644950  0.62178700  0.26637950  1
  H  164  1  0.25659700  0.51523800  0.37489900  1
  H  190  1  0.11518100  0.72562650  0.52546150  1
  H  191  1  0.19661700  0.76564550  0.48288550  1
  H  192  1  0.11666600  0.62051600  0.62441100  1
  H  193  1  0.19841300  0.66181250  0.58278250  1
  H  194  1  0.26253900  0.66382900  0.51880200  1
  H  195  1  0.26508700  0.62492850  0.47623550  1
  H  196  1  0.25881300  0.72524250  0.37728250  1
  H  197  1  0.25849800  0.76540900  0.41889600  1
  H  198  1  0.34252750  0.80753150  0.41938300  1
  H  199  1  0.38305300  0.88915600  0.37956900  1
  H  200  1  0.27473500  0.88738100  0.47794600  1
  H  201  1  0.23661600  0.80633850  0.51976650  1
  H  202  1  0.24108000  0.74637200  0.58221900  1
  H  203  1  0.34010300  0.74069850  0.48182550  1
  H  204  1  0.37935850  0.73695900  0.52363350  1
  H  205  1  0.28293200  0.74705950  0.62201750  1
  H  231  1  0.90353550  0.36363850  0.37560300  1
  H  232  1  0.82210550  0.32477350  0.41699900  1
  H  233  1  0.90210050  0.26328050  0.48222100  1
  H  234  1  0.82034950  0.22315450  0.52265000  1
  H  235  1  0.75619000  0.22306900  0.58471900  1
  H  236  1  0.75363000  0.26313800  0.62611600  1
  H  237  1  0.75986750  0.36823650  0.51944200  1
  H  238  1  0.76020500  0.32689400  0.47901100  1
  H  239  1  0.67618950  0.24237150  0.52093000  1
  H  240  1  0.63570850  0.24167800  0.47976450  1
  H  241  1  0.74409100  0.25162950  0.37327750  1
  H  242  1  0.78216600  0.24791150  0.41627050  1
  H  243  1  0.77767500  0.18104100  0.48075500  1
  H  244  1  0.67860800  0.18241750  0.58541050  1
  H  245  1  0.63931300  0.10137100  0.62836000  1
  H  246  1  0.73580900  0.09941950  0.52188650  1
  H  500  1  0.41849000  0.70084650  0.96279150  1
  H  502  1  0.32426000  0.50400000  0.00854000  1
  H  503  1  0.34925450  0.51432400  0.95147250  1
  H  504  1  0.31912300  0.54275400  0.96585500  1
  H  512  1  0.34108650  0.28783900  0.29813250  1
  H  514  1  0.49200800  0.48466150  0.19585350  1
  H  515  1  0.53877650  0.47440100  0.18104250  1
  H  516  1  0.49598900  0.44582500  0.23962800  1
  H  524  1  0.60006650  0.62325650  0.70347000  1
  H  526  1  0.69470150  0.67198100  0.80573850  1
  H  527  1  0.66968650  0.70400500  0.82048550  1
  H  528  1  0.69966550  0.71971400  0.76191650  1
  H  536  1  0.67785450  0.36542250  0.03886200  1
  H  538  1  0.52684200  0.31704050  0.99295450  1
  H  539  1  0.48009850  0.28504100  0.04999750  1
  H  540  1  0.52286750  0.26923250  0.03569300  1
  H  548  1  0.71216650  0.32590450  0.70730100  1
  H  550  1  0.81461650  0.47708300  0.51042350  1
  H  551  1  0.82923800  0.52383650  0.52073050  1
  H  552  1  0.77073450  0.48095750  0.54911600  1
  H  560  1  0.04745250  0.40341850  0.29437400  1
  H  562  1  0.00193750  0.30913400  0.49123050  1
  H  563  1  0.05897900  0.33416550  0.48093350  1
  H  564  1  0.04457400  0.30403850  0.45250550  1
  H  572  1  0.97123450  0.66289050  0.62956300  1
  H  574  1  0.01689200  0.51168500  0.67843500  1
  H  575  1  0.95985400  0.46493800  0.71050800  1
  H  576  1  0.97429250  0.50782350  0.72615600  1
  H  584  1  0.30663050  0.58517200  0.37204150  1
  H  586  1  0.20380250  0.67919150  0.32344400  1
  H  587  1  0.18911800  0.65414900  0.29140600  1
  H  588  1  0.24765050  0.68437550  0.27566400  1
  H  596  1  0.38027700  0.95631600  0.33225600  1
  H  598  1  0.33203550  0.00188550  0.48347100  1
  H  599  1  0.29991400  0.94478000  0.53021300  1
  H  600  1  0.28421650  0.95937550  0.48733600  1
  H  608  1  0.63853750  0.29179600  0.40981150  1
  H  610  1  0.68701900  0.18911150  0.31576750  1
  H  611  1  0.71904600  0.17437800  0.34084700  1
  H  612  1  0.73476550  0.23295350  0.31065800  1
  H  620  1  0.30273700  0.69693100  0.66932900  1
  H  622  1  0.49937900  0.79947000  0.51814700  1
  H  623  1  0.48900650  0.81415250  0.47139600  1
  H  624  1  0.46063550  0.75559250  0.51428100  1
  H  632  1  0.71591000  0.03226450  0.59189150  1
  H  634  1  0.51924050  0.98694250  0.68553600  1
  H  635  1  0.52965400  0.04406750  0.66047250  1
  H  636  1  0.55788050  0.02947600  0.69083150  1
  N  496  1  0.37912200  0.64197000  0.02565100  1
  N  498  1  0.35839900  0.57224550  0.02663150  1
  N  508  1  0.33706550  0.34669950  0.27868700  1
  N  510  1  0.40575750  0.41644400  0.22974350  1
  N  520  1  0.63951500  0.59981750  0.72289050  1
  N  522  1  0.66037400  0.61961900  0.77181400  1
  N  532  1  0.68184150  0.38893750  0.97598600  1
  N  534  1  0.61312450  0.36924550  0.97494800  1
  N  544  1  0.73170600  0.32194750  0.64843750  1
  N  546  1  0.78063950  0.39073450  0.57871100  1
  N  556  1  0.98468400  0.36408500  0.35324400  1
  N  558  1  0.98380100  0.34336750  0.42296550  1
  N  568  1  0.03403150  0.66683200  0.60614250  1
  N  570  1  0.03497050  0.59803450  0.62602700  1
  N  580  1  0.28703500  0.62447750  0.39550950  1
  N  582  1  0.23797600  0.64510350  0.37571350  1
  N  592  1  0.40385800  0.01912850  0.32831450  1
  N  594  1  0.38416950  0.01999850  0.39711200  1
  N  604  1  0.61500150  0.27220950  0.37051600  1
  N  606  1  0.63473650  0.22315750  0.34990500  1
  N  616  1  0.36160550  0.71645500  0.67328250  1
  N  618  1  0.43124050  0.76544200  0.60449150  1
  N  628  1  0.65701500  0.96949050  0.63114450  1
  N  630  1  0.58740950  0.96871600  0.65163950  1
  O  499  1  0.38483350  0.56741500  0.95936850  1
  O  511  1  0.47784300  0.42134350  0.19844250  1
  O  523  1  0.63399900  0.66045050  0.80310250  1
  O  535  1  0.54106450  0.32847750  0.04215200  1
  O  547  1  0.81180550  0.46285000  0.57386850  1
  O  559  1  0.05104550  0.36978150  0.42781300  1
  O  571  1  0.96773250  0.52592900  0.66691850  1
  O  583  1  0.20672450  0.61861750  0.33489700  1
  O  595  1  0.34330000  0.95265650  0.46921650  1
  O  607  1  0.67558700  0.19190600  0.37638400  1
  O  619  1  0.43598600  0.79668300  0.53238000  1
  O  631  1  0.58272950  0.03609200  0.62506050  1
