# generated using pymatgen
data_H13C16N3
_symmetry_space_group_name_H-M   'P 1'
_cell_length_a   13.09330000
_cell_length_b   14.86950000
_cell_length_c   14.86955000
_cell_angle_alpha   90.00000000
_cell_angle_beta   89.87020000
_cell_angle_gamma   90.13030000
_symmetry_Int_Tables_number   1
_chemical_formula_structural   H13C16N3
_chemical_formula_sum   'H52 C64 N12'
_cell_volume   2894.95003230
_cell_formula_units_Z   4
loop_
 _symmetry_equiv_pos_site_id
 _symmetry_equiv_pos_as_xyz
  1  'x, y, z'
loop_
 _atom_site_type_symbol
 _atom_site_label
 _atom_site_symmetry_multiplicity
 _atom_site_fract_x
 _atom_site_fract_y
 _atom_site_fract_z
 _atom_site_occupancy
  C  1  1  0.06429000  0.02009400  0.48424000  1
  C  2  1  0.13722200  0.01209050  0.41513900  1
  C  3  1  0.24075600  0.03946950  0.42645850  1
  C  4  1  0.27025200  0.08195750  0.50904600  1
  C  5  1  0.19622800  0.09223300  0.57938700  1
  C  6  1  0.09579600  0.05983200  0.56537750  1
  C  9  1  0.96208200  0.98626900  0.47707950  1
  C  10  1  0.89197100  0.01874550  0.41330400  1
  C  11  1  0.78631200  0.99636750  0.41639300  1
  C  12  1  0.74843800  0.94438800  0.49075950  1
  C  13  1  0.82049600  0.90330050  0.55029400  1
  C  14  1  0.92538400  0.92490150  0.54151950  1
  C  23  1  0.79414900  0.84254850  0.62749400  1
  C  26  1  0.72204400  0.03124800  0.34031200  1
  C  29  1  0.31830900  0.02273100  0.35350250  1
  C  32  1  0.22341800  0.13392300  0.66808750  1
  C  35  1  0.55635500  0.48232600  0.03085550  1
  C  36  1  0.57827400  0.38992050  0.01821850  1
  C  37  1  0.67871500  0.35461900  0.01701000  1
  C  38  1  0.76329100  0.41534700  0.01172250  1
  C  39  1  0.74351800  0.50943400  0.01283550  1
  C  40  1  0.64331600  0.53901100  0.03358750  1
  C  43  1  0.45227000  0.51729700  0.03657750  1
  C  44  1  0.36648600  0.46131800  0.05278150  1
  C  45  1  0.26425600  0.49102200  0.04241650  1
  C  46  1  0.24470400  0.58502150  0.04075150  1
  C  47  1  0.32936700  0.64521200  0.03251400  1
  C  48  1  0.42870300  0.60916650  0.02212850  1
  C  57  1  0.31395700  0.74459900  0.03864950  1
  C  60  1  0.18465000  0.42287800  0.01629750  1
  C  63  1  0.69556200  0.25544800  0.02509750  1
  C  66  1  0.81841300  0.57795700  0.97758550  1
  C  69  1  0.71111300  0.88747150  0.94993850  1
  C  70  1  0.73743900  0.79799900  0.97527700  1
  C  71  1  0.76990800  0.73629200  0.90817350  1
  C  72  1  0.79156600  0.76865000  0.82116900  1
  C  73  1  0.76544800  0.85666950  0.79486600  1
  C  74  1  0.71839700  0.91454800  0.85829300  1
  C  75  1  0.73438600  0.77555000  0.06758150  1
  C  76  1  0.68286100  0.00074850  0.83373050  1
  C  78  1  0.68285300  0.95181300  0.01663850  1
  C  79  1  0.69622700  0.93074300  0.10921050  1
  C  80  1  0.69236400  0.99974250  0.17481650  1
  C  81  1  0.65901600  0.08563800  0.14827650  1
  C  82  1  0.63243000  0.10511800  0.05837300  1
  C  83  1  0.65093000  0.03957600  0.99107100  1
  C  84  1  0.71985900  0.84159500  0.13339750  1
  C  86  1  0.64513200  0.06062750  0.89856950  1
  C  99  1  0.30534100  0.04455500  0.03295750  1
  C  100  1  0.31076100  0.06329700  0.12651950  1
  C  101  1  0.33583500  0.99396600  0.18749350  1
  C  102  1  0.37744500  0.91368900  0.15333400  1
  C  103  1  0.37957500  0.89562400  0.05999850  1
  C  104  1  0.33597300  0.95895450  0.99997850  1
  C  105  1  0.28788800  0.15073550  0.15689850  1
  C  106  1  0.31702400  0.93824900  0.90881800  1
  C  108  1  0.26163800  0.10942950  0.97401050  1
  C  109  1  0.24420400  0.19888000  0.00465450  1
  C  110  1  0.20739800  0.26461200  0.94382350  1
  C  111  1  0.17410000  0.23707200  0.85819600  1
  C  112  1  0.18460400  0.14744400  0.82889650  1
  C  113  1  0.23543600  0.08450400  0.88464100  1
  C  114  1  0.26322000  0.21879750  0.09591200  1
  C  116  1  0.26224200  0.99769950  0.85393400  1
  H  7  1  0.11372400  0.98226450  0.35692600  1
  H  16  1  0.97652300  0.89855850  0.58647300  1
  H  17  1  0.59634300  0.97334350  0.47640100  1
  H  18  1  0.62047100  0.91206450  0.56341900  1
  H  19  1  0.38911600  0.14622750  0.57348450  1
  H  20  1  0.42175900  0.10364000  0.47691000  1
  H  21  1  0.04224100  0.06569500  0.61496800  1
  H  22  1  0.91816000  0.06278000  0.36551050  1
  H  24  1  0.71828700  0.81299400  0.62188450  1
  H  25  1  0.84683900  0.78550600  0.62732700  1
  H  27  1  0.73109300  0.10431350  0.33702250  1
  H  28  1  0.64097000  0.01796500  0.34823800  1
  H  30  1  0.37521500  0.97510950  0.37837800  1
  H  31  1  0.35728500  0.08596800  0.33900600  1
  H  33  1  0.23846800  0.20554250  0.65733950  1
  H  34  1  0.29414200  0.10237200  0.69069950  1
  H  41  1  0.51948900  0.34615850  0.00971600  1
  H  50  1  0.48530300  0.65196450  0.00340550  1
  H  51  1  0.09088800  0.57517100  0.06504250  1
  H  52  1  0.12958800  0.67869050  0.04885400  1
  H  53  1  0.91931300  0.42560650  0.01584750  1
  H  54  1  0.87878100  0.32180500  0.00694800  1
  H  55  1  0.63339500  0.60602900  0.04250800  1
  H  56  1  0.37716400  0.39442900  0.06335200  1
  H  58  1  0.26119700  0.76347900  0.98510900  1
  H  59  1  0.27574400  0.75599100  0.10325950  1
  H  61  1  0.12170600  0.45309600  0.97904400  1
  H  62  1  0.15240000  0.39194100  0.07636650  1
  H  64  1  0.74562000  0.24613200  0.08324050  1
  H  65  1  0.73674500  0.23360950  0.96494800  1
  H  67  1  0.87750500  0.54725500  0.93594350  1
  H  68  1  0.85692100  0.61157500  0.03304400  1
  H  77  1  0.82130600  0.72534500  0.77462950  1
  H  85  1  0.65906400  0.13681600  0.19412250  1
  H  87  1  0.72647100  0.82349700  0.19956600  1
  H  88  1  0.75368400  0.71346300  0.08984550  1
  H  89  1  0.62245700  0.12291000  0.87748700  1
  H  90  1  0.68397000  0.02118650  0.76801550  1
  H  92  1  0.87813100  0.91029450  0.72451350  1
  H  94  1  0.55630100  0.21803550  0.08429350  1
  H  96  1  0.82550100  0.00824650  0.23705600  1
  H  98  1  0.72372400  0.61061500  0.86714300  1
  H  107  1  0.39160700  0.86214900  0.19721450  1
  H  115  1  0.14786800  0.28442200  0.81394550  1
  H  117  1  0.25124500  0.28110700  0.12172950  1
  H  118  1  0.29411900  0.16772400  0.22310250  1
  H  119  1  0.24555400  0.97743100  0.78993400  1
  H  120  1  0.33705000  0.87724100  0.88249800  1
  H  122  1  0.46374800  0.78465750  0.06981450  1
  H  124  1  0.08244500  0.15791550  0.72884250  1
  H  126  1  0.26070600  0.38615100  0.89712250  1
  H  128  1  0.24785900  0.92460700  0.27704600  1
  N  8  1  0.36827400  0.11223200  0.52108100  1
  N  15  1  0.64599600  0.93745000  0.50789900  1
  N  42  1  0.86179600  0.38518800  0.00766000  1
  N  49  1  0.14651600  0.61529650  0.04868000  1
  N  91  1  0.80312900  0.89335300  0.71325250  1
  N  93  1  0.60538600  0.19470350  0.03565050  1
  N  95  1  0.75248600  0.98898200  0.25373950  1
  N  97  1  0.76492700  0.64168800  0.91728100  1
  N  121  1  0.40351300  0.80680200  0.03174550  1
  N  123  1  0.14835000  0.12309650  0.74254000  1
  N  125  1  0.23156800  0.35662300  0.95443200  1
  N  127  1  0.27689700  0.98835450  0.26777850  1
