# generated using pymatgen
data_Pr2CuH12C32(NO6)4
_symmetry_space_group_name_H-M   'P 1'
_cell_length_a   10.59235000
_cell_length_b   10.69550000
_cell_length_c   11.49995000
_cell_angle_alpha   82.57604000
_cell_angle_beta   73.91649000
_cell_angle_gamma   69.52518000
_symmetry_Int_Tables_number   1
_chemical_formula_structural   Pr2CuH12C32(NO6)4
_chemical_formula_sum   'Pr2 Cu1 H12 C32 N4 O24'
_cell_volume   1172.00132385
_cell_formula_units_Z   1
loop_
 _symmetry_equiv_pos_site_id
 _symmetry_equiv_pos_as_xyz
  1  'x, y, z'
loop_
 _atom_site_type_symbol
 _atom_site_label
 _atom_site_symmetry_multiplicity
 _atom_site_fract_x
 _atom_site_fract_y
 _atom_site_fract_z
 _atom_site_occupancy
  Pr  Pr1  1  0.58557000  0.59332000  0.63422000  1.0
  Pr  Pr2  1  0.41465000  0.40717000  0.36577000  1.0
  Cu  Cu1  1  0.00021000  0.49991000  0.50005000  1.0
  H  H1  1  0.36033000  0.98996000  0.46919000  1.0
  H  H2  1  0.98228000  0.17599000  0.35244000  1.0
  H  H3  1  0.17946000  0.75156000  0.33647000  1.0
  H  H4  1  0.67383000  0.48184000  0.94421000  1.0
  H  H5  1  0.91504000  0.32391000  0.20851000  1.0
  H  H6  1  0.12216000  0.33581000  0.83032000  1.0
  H  H7  1  0.63955000  0.01010000  0.53089000  1.0
  H  H8  1  0.01776000  0.82409000  0.64748000  1.0
  H  H9  1  0.82042000  0.24844000  0.66357000  1.0
  H  H10  1  0.32645000  0.51826000  0.05551000  1.0
  H  H11  1  0.08537000  0.67579000  0.79145000  1.0
  H  H12  1  0.87830000  0.66410000  0.16931000  1.0
  C  C1  1  0.28078000  0.85676000  0.40779000  1.0
  C  C2  1  0.28025000  0.98281000  0.43126000  1.0
  C  C3  1  0.17378000  0.09820000  0.41046000  1.0
  C  C4  1  0.06834000  0.08850000  0.36490000  1.0
  C  C5  1  0.07397000  0.96420000  0.33694000  1.0
  C  C6  1  0.17867000  0.84781000  0.35719000  1.0
  C  C7  1  0.38847000  0.73204000  0.43836000  1.0
  C  C8  1  0.16630000  0.23496000  0.43493000  1.0
  C  C9  1  0.89759000  0.41535000  0.87330000  1.0
  C  C10  1  0.77462000  0.43846000  0.96537000  1.0
  C  C11  1  0.78181000  0.40396000  0.08574000  1.0
  C  C12  1  0.91032000  0.34887000  0.11495000  1.0
  C  C13  1  0.03092000  0.32529000  0.02160000  1.0
  C  C14  1  0.02668000  0.35681000  0.90132000  1.0
  C  C15  1  0.89535000  0.45174000  0.74401000  1.0
  C  C16  1  0.65224000  0.41836000  0.18366000  1.0
  C  C17  1  0.71888000  0.14318000  0.59202000  1.0
  C  C18  1  0.71965000  0.01712000  0.56883000  1.0
  C  C19  1  0.82626000  0.90189000  0.58959000  1.0
  C  C20  1  0.93158000  0.91162000  0.63526000  1.0
  C  C21  1  0.92575000  0.03603000  0.66308000  1.0
  C  C22  1  0.82096000  0.15238000  0.64268000  1.0
  C  C23  1  0.61221000  0.26749000  0.55959000  1.0
  C  C24  1  0.83350000  0.76523000  0.56529000  1.0
  C  C25  1  0.10258000  0.58453000  0.12614000  1.0
  C  C26  1  0.22583000  0.56176000  0.03424000  1.0
  C  C27  1  0.21932000  0.59569000  0.91371000  1.0
  C  C28  1  0.09055000  0.65085000  0.88481000  1.0
  C  C29  1  0.96975000  0.67454000  0.97796000  1.0
  C  C30  1  0.97368000  0.64314000  0.09821000  1.0
  C  C31  1  0.10428000  0.54842000  0.25554000  1.0
  C  C32  1  0.34841000  0.58269000  0.81541000  1.0
  N  N1  1  0.96294000  0.95676000  0.28671000  1.0
  N  N2  1  0.16751000  0.26680000  0.05029000  1.0
  N  N3  1  0.03696000  0.04328000  0.71333000  1.0
  N  N4  1  0.83285000  0.73308000  0.94956000  1.0
  O  O1  1  0.38567000  0.61915000  0.41470000  1.0
  O  O2  1  0.47503000  0.74294000  0.49049000  1.0
  O  O3  1  0.27640000  0.25902000  0.43270000  1.0
  O  O4  1  0.04281000  0.31822000  0.45884000  1.0
  O  O5  1  0.87647000  0.06299000  0.26221000  1.0
  O  O6  1  0.96214000  0.84358000  0.27367000  1.0
  O  O7  1  0.01106000  0.44410000  0.66890000  1.0
  O  O8  1  0.77951000  0.48607000  0.71448000  1.0
  O  O9  1  0.53361000  0.46057000  0.15849000  1.0
  O  O10  1  0.66353000  0.38109000  0.29210000  1.0
  O  O11  1  0.16859000  0.25192000  0.15936000  1.0
  O  O12  1  0.27290000  0.23752000  0.96504000  1.0
  O  O13  1  0.61699000  0.38032000  0.58133000  1.0
  O  O14  1  0.52487000  0.25632000  0.50843000  1.0
  O  O15  1  0.72283000  0.74181000  0.56722000  1.0
  O  O16  1  0.95661000  0.68180000  0.54114000  1.0
  O  O17  1  0.12350000  0.93703000  0.73770000  1.0
  O  O18  1  0.03791000  0.15640000  0.72634000  1.0
  O  O19  1  0.98866000  0.55599000  0.33096000  1.0
  O  O20  1  0.22027000  0.51397000  0.28476000  1.0
  O  O21  1  0.46775000  0.54143000  0.84011000  1.0
  O  O22  1  0.33628000  0.61776000  0.70714000  1.0
  O  O23  1  0.83144000  0.74803000  0.84055000  1.0
  O  O24  1  0.72764000  0.76237000  0.03489000  1.0
