# generated using pymatgen
data_CoH10C12N2O3F
_symmetry_space_group_name_H-M   'P 1'
_cell_length_a   7.45200000
_cell_length_b   9.57353765
_cell_length_c   11.35942000
_cell_angle_alpha   97.94038924
_cell_angle_beta   90.01249000
_cell_angle_gamma   112.87026696
_symmetry_Int_Tables_number   1
_chemical_formula_structural   CoH10C12N2O3F
_chemical_formula_sum   'Co2 H20 C24 N4 O6 F2'
_cell_volume   738.24515317
_cell_formula_units_Z   2
loop_
 _symmetry_equiv_pos_site_id
 _symmetry_equiv_pos_as_xyz
  1  'x, y, z'
loop_
 _atom_site_type_symbol
 _atom_site_label
 _atom_site_symmetry_multiplicity
 _atom_site_fract_x
 _atom_site_fract_y
 _atom_site_fract_z
 _atom_site_occupancy
  Co  Co1  1  0.09614000  0.50372000  0.49745000  1.0
  Co  Co2  1  0.59251000  0.49635000  0.50278000  1.0
  H  H1  1  0.81049000  0.92999000  0.60342000  1.0
  H  H2  1  0.11239000  0.72926000  0.72456000  1.0
  H  H3  1  0.11295000  0.73655000  0.94518000  1.0
  H  H4  1  0.07375000  0.26998000  0.88590000  1.0
  H  H5  1  0.06780000  0.28067000  0.66966000  1.0
  H  H6  1  0.85517000  0.30029000  0.28166000  1.0
  H  H7  1  0.84842000  0.28764000  0.05918000  1.0
  H  H8  1  0.34625000  0.71965000  0.11000000  1.0
  H  H9  1  0.34083000  0.70616000  0.32913000  1.0
  H  H10  1  0.21094000  0.01088000  0.61135000  1.0
  H  H11  1  0.88230000  0.07086000  0.39558000  1.0
  H  H12  1  0.38316000  0.27104000  0.27547000  1.0
  H  H13  1  0.37662000  0.26384000  0.05491000  1.0
  H  H14  1  0.80354000  0.73013000  0.11427000  1.0
  H  H15  1  0.78694000  0.71954000  0.33046000  1.0
  H  H16  1  0.55542000  0.70044000  0.71841000  1.0
  H  H17  1  0.56056000  0.71276000  0.94083000  1.0
  H  H18  1  0.62730000  0.28082000  0.89007000  1.0
  H  H19  1  0.63560000  0.29447000  0.67099000  1.0
  H  H20  1  0.20148000  0.98948000  0.38947000  1.0
  C  C1  1  0.10492000  0.63050000  0.76452000  1.0
  C  C2  1  0.10705000  0.63408000  0.88737000  1.0
  C  C3  1  0.09619000  0.50401000  0.93549000  1.0
  C  C4  1  0.08252000  0.37504000  0.85506000  1.0
  C  C5  1  0.08262000  0.38093000  0.73325000  1.0
  C  C6  1  0.96306000  0.38803000  0.23837000  1.0
  C  C7  1  0.96039000  0.38289000  0.11539000  1.0
  C  C8  1  0.09740000  0.50349000  0.06538000  1.0
  C  C9  1  0.23486000  0.62380000  0.14368000  1.0
  C  C10  1  0.23304000  0.61793000  0.26543000  1.0
  C  C11  1  0.99010000  0.79081000  0.53603000  1.0
  C  C12  1  0.07000000  0.96739000  0.56011000  1.0
  C  C13  1  0.47449000  0.36982000  0.23561000  1.0
  C  C14  1  0.47307000  0.36625000  0.11274000  1.0
  C  C15  1  0.59213000  0.49627000  0.06459000  1.0
  C  C16  1  0.70731000  0.62513000  0.14509000  1.0
  C  C17  1  0.70154000  0.61927000  0.26690000  1.0
  C  C18  1  0.57564000  0.61265000  0.76172000  1.0
  C  C19  1  0.57765000  0.61760000  0.88469000  1.0
  C  C20  1  0.59413000  0.49692000  0.93469000  1.0
  C  C21  1  0.61168000  0.37673000  0.85642000  1.0
  C  C22  1  0.61603000  0.38272000  0.73469000  1.0
  C  C23  1  0.19936000  0.20922000  0.46498000  1.0
  C  C24  1  0.10325000  0.03264000  0.44029000  1.0
  N  N1  1  0.09859000  0.50243000  0.31255000  1.0
  N  N2  1  0.09464000  0.50682000  0.68752000  1.0
  N  N3  1  0.59712000  0.49834000  0.68762000  1.0
  N  N4  1  0.58774000  0.49343000  0.31267000  1.0
  O  O1  1  0.11421000  0.73127000  0.51606000  1.0
  O  O2  1  0.80577000  0.72488000  0.53895000  1.0
  O  O3  1  0.93691000  0.01498000  0.62778000  1.0
  O  O4  1  0.38247000  0.26917000  0.48724000  1.0
  O  O5  1  0.08068000  0.27476000  0.46054000  1.0
  O  O6  1  0.92319000  0.98532000  0.37202000  1.0
  F  F1  1  0.39131000  0.59082000  0.51172000  1.0
  F  F2  1  0.80104000  0.40934000  0.48836000  1.0
