# generated using pymatgen
data_H24C37N4
_symmetry_space_group_name_H-M   'P 1'
_cell_length_a   12.92340000
_cell_length_b   12.92340000
_cell_length_c   25.84670000
_cell_angle_alpha   90.00000000
_cell_angle_beta   90.00000000
_cell_angle_gamma   90.00000000
_symmetry_Int_Tables_number   1
_chemical_formula_structural   H24C37N4
_chemical_formula_sum   'H48 C74 N8'
_cell_volume   4316.76766934
_cell_formula_units_Z   2
loop_
 _symmetry_equiv_pos_site_id
 _symmetry_equiv_pos_as_xyz
  1  'x, y, z'
loop_
 _atom_site_type_symbol
 _atom_site_label
 _atom_site_symmetry_multiplicity
 _atom_site_fract_x
 _atom_site_fract_y
 _atom_site_fract_z
 _atom_site_occupancy
  C  1  1  0.95093400  0.05287500  0.95916300  1
  C  2  1  0.84173600  0.06357300  0.95903600  1
  C  3  1  0.83693200  0.06311000  0.05675400  1
  C  4  1  0.94587400  0.04959200  0.05963800  1
  C  5  1  0.99084600  0.03810300  0.10999300  1
  C  6  1  0.93001000  0.03790100  0.15582100  1
  C  7  1  0.82271000  0.05554200  0.15089500  1
  C  8  1  0.77698600  0.06825600  0.10229900  1
  C  9  1  0.78703000  0.06830400  0.91184600  1
  C  10  1  0.83882800  0.06030400  0.86445500  1
  C  11  1  0.94746800  0.04892100  0.86214900  1
  C  12  1  0.00176400  0.04785300  0.91004700  1
  C  13  1  0.07373500  0.14786300  0.01160700  1
  C  14  1  0.18355000  0.14442800  0.01053100  1
  C  15  1  0.18102200  0.94966900  0.00680500  1
  C  16  1  0.07116400  0.94838000  0.00941600  1
  C  17  1  0.23730600  0.85626100  0.00412800  1
  C  18  1  0.18629900  0.76095300  0.00535100  1
  C  19  1  0.07757300  0.75636300  0.00935900  1
  C  20  1  0.02083000  0.85004800  0.01057800  1
  C  21  1  0.02540500  0.24719500  0.01296400  1
  C  22  1  0.08372300  0.33967900  0.01454000  1
  C  23  1  0.19259600  0.33308500  0.01407900  1
  C  24  1  0.24181100  0.23679400  0.01183200  1
  C  37  1  0.01028500  0.04905900  0.01014500  1
  C  38  1  0.24192800  0.04643400  0.00707000  1
  C  41  1  0.78046800  0.07169100  0.00714700  1
  C  44  1  0.04096300  0.93963600  0.45845700  1
  C  45  1  0.05600000  0.83095800  0.46052700  1
  C  46  1  0.05484700  0.83293800  0.55811000  1
  C  47  1  0.04240400  0.94201200  0.55917400  1
  C  48  1  0.03732700  0.99074600  0.60893300  1
  C  49  1  0.04458700  0.93458400  0.65632800  1
  C  50  1  0.05698100  0.82608400  0.65241600  1
  C  51  1  0.06184300  0.77626600  0.60453000  1
  C  52  1  0.06444100  0.77265100  0.41462900  1
  C  53  1  0.05490900  0.82006300  0.36629200  1
  C  54  1  0.03582000  0.92733800  0.36165200  1
  C  55  1  0.03107400  0.98584800  0.40827300  1
  C  56  1  0.93917200  0.06404100  0.50842500  1
  C  57  1  0.94086800  0.17385700  0.50534500  1
  C  58  1  0.13565600  0.17529300  0.50329100  1
  C  59  1  0.13862400  0.06571700  0.50717900  1
  C  60  1  0.22830000  0.23301100  0.50100400  1
  C  61  1  0.32447600  0.18364400  0.50357700  1
  C  62  1  0.33058600  0.07516600  0.50837800  1
  C  63  1  0.23785500  0.01721600  0.50935300  1
  C  64  1  0.84073100  0.01413600  0.51063400  1
  C  65  1  0.74730400  0.07136000  0.51092000  1
  C  66  1  0.75228700  0.18021500  0.50792200  1
  C  67  1  0.84768800  0.23072100  0.50499300  1
  C  80  1  0.03944800  0.00269300  0.50843600  1
  C  81  1  0.03776700  0.23409400  0.50173900  1
  C  84  1  0.06387800  0.77311100  0.50962800  1
  C  87  1  0.03575600  0.97854300  0.70744400  1
  C  89  1  0.05936700  0.94734400  0.79987400  1
  C  90  1  0.99369400  0.03205700  0.81219700  1
  C  92  1  0.97599800  0.06625400  0.72022000  1
  C  94  1  0.10250600  0.87286600  0.83768900  1
  C  98  1  0.96757000  0.00971200  0.20585700  1
  C  100  1  0.05913400  0.05234800  0.28487300  1
  C  101  1  0.01380500  0.96615400  0.31070000  1
  C  103  1  0.92343400  0.92451000  0.23183700  1
  C  105  1  0.13522100  0.12199700  0.30951700  1
  C  109  1  0.03280300  0.65684100  0.01412900  1
  C  111  1  0.01965400  0.49479300  0.96817400  1
  C  112  1  0.03914700  0.43987600  0.01476800  1
  C  114  1  0.04585600  0.60115700  0.06064500  1
  C  116  1  0.01098700  0.44404700  0.91706500  1
  C  120  1  0.43014300  0.03051200  0.51300600  1
  C  122  1  0.59014100  0.00626000  0.46674100  1
  C  123  1  0.64720700  0.02668100  0.51260700  1
  C  125  1  0.48703800  0.04519600  0.55898100  1
  C  127  1  0.63946200  0.99146600  0.41563100  1
  H  25  1  0.23729900  0.39855800  0.01445400  1
  H  26  1  0.32099800  0.23471200  0.01085500  1
  H  27  1  0.31644300  0.85683400  0.00210500  1
  H  28  1  0.22986100  0.69470800  0.00438000  1
  H  29  1  0.94190400  0.84670400  0.01316000  1
  H  30  1  0.94643800  0.25239500  0.01294200  1
  H  31  1  0.06864400  0.02496200  0.11312100  1
  H  32  1  0.77568600  0.05619400  0.18280800  1
  H  33  1  0.69845500  0.07811500  0.10038300  1
  H  34  1  0.08057300  0.04331600  0.90933900  1
  H  35  1  0.70811900  0.07548400  0.91161400  1
  H  36  1  0.79503800  0.05993800  0.83144100  1
  H  39  1  0.28807400  0.04865000  0.97157100  1
  H  40  1  0.29489100  0.04319500  0.04008600  1
  H  42  1  0.72212500  0.01028200  0.00635400  1
  H  43  1  0.74043800  0.14630900  0.00667900  1
  H  68  1  0.68622000  0.22406700  0.50732600  1
  H  69  1  0.84849200  0.30981000  0.50255200  1
  H  70  1  0.22647500  0.31201400  0.49809500  1
  H  71  1  0.39013800  0.22803600  0.50253600  1
  H  72  1  0.24278300  0.93850000  0.51254100  1
  H  73  1  0.83711800  0.93512600  0.51237900  1
  H  74  1  0.02983800  0.06941600  0.61047300  1
  H  75  1  0.06046500  0.78027400  0.68466400  1
  H  76  1  0.07071600  0.69750900  0.60388400  1
  H  77  1  0.01572400  0.06318100  0.40589700  1
  H  78  1  0.07610300  0.69430800  0.41601100  1
  H  79  1  0.06014600  0.77396800  0.33415700  1
  H  82  1  0.03595200  0.27789300  0.46550200  1
  H  83  1  0.03878900  0.28918200  0.53391400  1
  H  85  1  0.13876400  0.73351300  0.51006100  1
  H  86  1  0.00279400  0.71440900  0.50970900  1
  H  93  1  0.93898000  0.10845400  0.69242900  1
  H  95  1  0.14002600  0.80779000  0.81829000  1
  H  96  1  0.04113400  0.84196200  0.86222200  1
  H  97  1  0.16050000  0.91085200  0.86169200  1
  H  104  1  0.87186800  0.87620600  0.21403500  1
  H  106  1  0.16630200  0.17749300  0.28169600  1
  H  107  1  0.19954600  0.07713400  0.32515600  1
  H  108  1  0.09859500  0.16542300  0.34068700  1
  H  115  1  0.06638400  0.63798100  0.09412200  1
  H  117  1  0.99680400  0.50060500  0.88648100  1
  H  118  1  0.94667800  0.38931100  0.91751400  1
  H  119  1  0.08225300  0.40260500  0.90795400  1
  H  126  1  0.45195400  0.06934900  0.59232300  1
  H  128  1  0.58178000  0.97693400  0.38561800  1
  H  129  1  0.69174700  0.92522800  0.41717900  1
  H  130  1  0.68335900  0.06028800  0.40485300  1
  N  88  1  0.07410700  0.92548400  0.74886600  1
  N  91  1  0.95548400  0.08627700  0.77092300  1
  N  99  1  0.03307100  0.07010800  0.23414800  1
  N  102  1  0.94838800  0.90701400  0.28184200  1
  N  110  1  0.02219100  0.60020600  0.97005800  1
  N  113  1  0.05357900  0.49662000  0.05848700  1
  N  121  1  0.48496000  0.01332600  0.46895400  1
  N  124  1  0.59174100  0.04754800  0.55617200  1
