# generated using pymatgen
data_MnH2(C3O2)2
_symmetry_space_group_name_H-M   'P 1'
_cell_length_a   11.73568000
_cell_length_b   17.16801000
_cell_length_c   19.12649000
_cell_angle_alpha   67.03179000
_cell_angle_beta   89.90778000
_cell_angle_gamma   89.79384000
_symmetry_Int_Tables_number   1
_chemical_formula_structural   MnH2(C3O2)2
_chemical_formula_sum   'Mn12 H24 C72 O48'
_cell_volume   3548.04369060
_cell_formula_units_Z   12
loop_
 _symmetry_equiv_pos_site_id
 _symmetry_equiv_pos_as_xyz
  1  'x, y, z'
loop_
 _atom_site_type_symbol
 _atom_site_label
 _atom_site_symmetry_multiplicity
 _atom_site_fract_x
 _atom_site_fract_y
 _atom_site_fract_z
 _atom_site_occupancy
  Mn  Mn1  1  0.58554000  0.79314000  0.47454000  1.0
  Mn  Mn2  1  0.80487000  0.65743000  0.62355000  1.0
  Mn  Mn3  1  0.47679000  0.75924000  0.32449000  1.0
  Mn  Mn4  1  0.08426000  0.20504000  0.02598000  1.0
  Mn  Mn5  1  0.29964000  0.34320000  0.87596000  1.0
  Mn  Mn6  1  0.97436000  0.24180000  0.17457000  1.0
  Mn  Mn7  1  0.42021000  0.20814000  0.53361000  1.0
  Mn  Mn8  1  0.18594000  0.34342000  0.37134000  1.0
  Mn  Mn9  1  0.53411000  0.24175000  0.68587000  1.0
  Mn  Mn10  1  0.91710000  0.79303000  0.96524000  1.0
  Mn  Mn11  1  0.68936000  0.65718000  0.12803000  1.0
  Mn  Mn12  1  0.03632000  0.75834000  0.81417000  1.0
  H  H1  1  0.68314000  0.67282000  0.37852000  1.0
  H  H2  1  0.54616000  0.44852000  0.35897000  1.0
  H  H3  1  0.68132000  0.43792000  0.57199000  1.0
  H  H4  1  0.80219000  0.00870000  0.28006000  1.0
  H  H5  1  0.90389000  0.98577000  0.07214000  1.0
  H  H6  1  0.71358000  0.78640000  0.24037000  1.0
  H  H7  1  0.18103000  0.32748000  0.12220000  1.0
  H  H8  1  0.04146000  0.55198000  0.14145000  1.0
  H  H9  1  0.17943000  0.56246000  0.92892000  1.0
  H  H10  1  0.30239000  0.99143000  0.22025000  1.0
  H  H11  1  0.40334000  0.01491000  0.42784000  1.0
  H  H12  1  0.21238000  0.21434000  0.25918000  1.0
  H  H13  1  0.32685000  0.31618000  0.63536000  1.0
  H  H14  1  0.46261000  0.54645000  0.64221000  1.0
  H  H15  1  0.33151000  0.54338000  0.43322000  1.0
  H  H16  1  0.20931000  0.98344000  0.72496000  1.0
  H  H17  1  0.08835000  0.01302000  0.92649000  1.0
  H  H18  1  0.29061000  0.20790000  0.76369000  1.0
  H  H19  1  0.82957000  0.68445000  0.86304000  1.0
  H  H20  1  0.96511000  0.45335000  0.85639000  1.0
  H  H21  1  0.82962000  0.45655000  0.06457000  1.0
  H  H22  1  0.70722000  0.01634000  0.77423000  1.0
  H  H23  1  0.59088000  0.98843000  0.57121000  1.0
  H  H24  1  0.78772000  0.79078000  0.73641000  1.0
  C  C1  1  0.73465000  0.60108000  0.52864000  1.0
  C  C2  1  0.68857000  0.55947000  0.47978000  1.0
  C  C3  1  0.66295000  0.60589000  0.40328000  1.0
  C  C4  1  0.61147000  0.56628000  0.35981000  1.0
  C  C5  1  0.58210000  0.62039000  0.27913000  1.0
  C  C6  1  0.58708000  0.47936000  0.39233000  1.0
  C  C7  1  0.61169000  0.43268000  0.46952000  1.0
  C  C8  1  0.57393000  0.34403000  0.51229000  1.0
  C  C9  1  0.66341000  0.47330000  0.51225000  1.0
  C  C10  1  0.69755000  0.85669000  0.34447000  1.0
  C  C11  1  0.75289000  0.89308000  0.26902000  1.0
  C  C12  1  0.80377000  0.97282000  0.24416000  1.0
  C  C13  1  0.85561000  0.00684000  0.17261000  1.0
  C  C14  1  0.90638000  0.09329000  0.14652000  1.0
  C  C15  1  0.86092000  0.95970000  0.12686000  1.0
  C  C16  1  0.81022000  0.87958000  0.15191000  1.0
  C  C17  1  0.81317000  0.82532000  0.10659000  1.0
  C  C18  1  0.75451000  0.84768000  0.22225000  1.0
  C  C19  1  0.23357000  0.39954000  0.97189000  1.0
  C  C20  1  0.18681000  0.44087000  0.02108000  1.0
  C  C21  1  0.16051000  0.39446000  0.09749000  1.0
  C  C22  1  0.10781000  0.43415000  0.14078000  1.0
  C  C23  1  0.07703000  0.37991000  0.22123000  1.0
  C  C24  1  0.08317000  0.52118000  0.10817000  1.0
  C  C25  1  0.10890000  0.56792000  0.03112000  1.0
  C  C26  1  0.07289000  0.65706000  0.98788000  1.0
  C  C27  1  0.16131000  0.52706000  0.98861000  1.0
  C  C28  1  0.19751000  0.14377000  0.15539000  1.0
  C  C29  1  0.25249000  0.10740000  0.23091000  1.0
  C  C30  1  0.30361000  0.02750000  0.25598000  1.0
  C  C31  1  0.35537000  0.99344000  0.32757000  1.0
  C  C32  1  0.40647000  0.90676000  0.35348000  1.0
  C  C33  1  0.36044000  0.04086000  0.37308000  1.0
  C  C34  1  0.30933000  0.12111000  0.34784000  1.0
  C  C35  1  0.31138000  0.17582000  0.39275000  1.0
  C  C36  1  0.25365000  0.15298000  0.27749000  1.0
  C  C37  1  0.28073000  0.37651000  0.48512000  1.0
  C  C38  1  0.32556000  0.42344000  0.52946000  1.0
  C  C39  1  0.34908000  0.38231000  0.60714000  1.0
  C  C40  1  0.39802000  0.42541000  0.64836000  1.0
  C  C41  1  0.42461000  0.37500000  0.73055000  1.0
  C  C42  1  0.42293000  0.51177000  0.61179000  1.0
  C  C43  1  0.39948000  0.55354000  0.53381000  1.0
  C  C44  1  0.43626000  0.64289000  0.49041000  1.0
  C  C45  1  0.34899000  0.51009000  0.49337000  1.0
  C  C46  1  0.31963000  0.13918000  0.66355000  1.0
  C  C47  1  0.25645000  0.10001000  0.73545000  1.0
  C  C48  1  0.20429000  0.02083000  0.75945000  1.0
  C  C49  1  0.14579000  0.98874000  0.82920000  1.0
  C  C50  1  0.09225000  0.90377000  0.85311000  1.0
  C  C51  1  0.13613000  0.03726000  0.87355000  1.0
  C  C52  1  0.18823000  0.11692000  0.84885000  1.0
  C  C53  1  0.17928000  0.17350000  0.89122000  1.0
  C  C54  1  0.24956000  0.14682000  0.78107000  1.0
  C  C55  1  0.78064000  0.62364000  0.01313000  1.0
  C  C56  1  0.82551000  0.57673000  0.96861000  1.0
  C  C57  1  0.85089000  0.61802000  0.89118000  1.0
  C  C58  1  0.90073000  0.57471000  0.85021000  1.0
  C  C59  1  0.92941000  0.62520000  0.76843000  1.0
  C  C60  1  0.92474000  0.48807000  0.88670000  1.0
  C  C61  1  0.89983000  0.44628000  0.96444000  1.0
  C  C62  1  0.93634000  0.35681000  0.00814000  1.0
  C  C63  1  0.84834000  0.48988000  0.00461000  1.0
  C  C64  1  0.81668000  0.85984000  0.83590000  1.0
  C  C65  1  0.75357000  0.89921000  0.76407000  1.0
  C  C66  1  0.70255000  0.97907000  0.73964000  1.0
  C  C67  1  0.64617000  0.01215000  0.66911000  1.0
  C  C68  1  0.59447000  0.09799000  0.64456000  1.0
  C  C69  1  0.63690000  0.96356000  0.62482000  1.0
  C  C70  1  0.68747000  0.88308000  0.65015000  1.0
  C  C71  1  0.67896000  0.82682000  0.60750000  1.0
  C  C72  1  0.74732000  0.85236000  0.71849000  1.0
  O  O1  1  0.74911000  0.68189000  0.50402000  1.0
  O  O2  1  0.75880000  0.55496000  0.59828000  1.0
  O  O3  1  0.53188000  0.69142000  0.26349000  1.0
  O  O4  1  0.61141000  0.59341000  0.22782000  1.0
  O  O5  1  0.51854000  0.30439000  0.47813000  1.0
  O  O6  1  0.59420000  0.31308000  0.58366000  1.0
  O  O7  1  0.62853000  0.79251000  0.35785000  1.0
  O  O8  1  0.71474000  0.88384000  0.39565000  1.0
  O  O9  1  0.90276000  0.12931000  0.19445000  1.0
  O  O10  1  0.94894000  0.12502000  0.08031000  1.0
  O  O11  1  0.87986000  0.84269000  0.05095000  1.0
  O  O12  1  0.74383000  0.76158000  0.13121000  1.0
  O  O13  1  0.25124000  0.31915000  0.99645000  1.0
  O  O14  1  0.25455000  0.44573000  0.90176000  1.0
  O  O15  1  0.02853000  0.30861000  0.23621000  1.0
  O  O16  1  0.10328000  0.40662000  0.27318000  1.0
  O  O17  1  0.01615000  0.69738000  0.02113000  1.0
  O  O18  1  0.09643000  0.68782000  0.91683000  1.0
  O  O19  1  0.12654000  0.20724000  0.14196000  1.0
  O  O20  1  0.21680000  0.11692000  0.10414000  1.0
  O  O21  1  0.40080000  0.87044000  0.30579000  1.0
  O  O22  1  0.45123000  0.87525000  0.41898000  1.0
  O  O23  1  0.37848000  0.15965000  0.44791000  1.0
  O  O24  1  0.24050000  0.23893000  0.36809000  1.0
  O  O25  1  0.29613000  0.29656000  0.50390000  1.0
  O  O26  1  0.22314000  0.41887000  0.42404000  1.0
  O  O27  1  0.47950000  0.30493000  0.74926000  1.0
  O  O28  1  0.38900000  0.40282000  0.77963000  1.0
  O  O29  1  0.49720000  0.67912000  0.52395000  1.0
  O  O30  1  0.40644000  0.67611000  0.42038000  1.0
  O  O31  1  0.38332000  0.20318000  0.65654000  1.0
  O  O32  1  0.31301000  0.11755000  0.60715000  1.0
  O  O33  1  0.10355000  0.86704000  0.80632000  1.0
  O  O34  1  0.03950000  0.87458000  0.91701000  1.0
  O  O35  1  0.11397000  0.15247000  0.94819000  1.0
  O  O36  1  0.23884000  0.24200000  0.86502000  1.0
  O  O37  1  0.79394000  0.70387000  0.99328000  1.0
  O  O38  1  0.72579000  0.58118000  0.07534000  1.0
  O  O39  1  0.98279000  0.69543000  0.75055000  1.0
  O  O40  1  0.89681000  0.59751000  0.71869000  1.0
  O  O41  1  0.99981000  0.32060000  0.97559000  1.0
  O  O42  1  0.90398000  0.32349000  0.07764000  1.0
  O  O43  1  0.88468000  0.79816000  0.84176000  1.0
  O  O44  1  0.80614000  0.87966000  0.89324000  1.0
  O  O45  1  0.60583000  0.13492000  0.69113000  1.0
  O  O46  1  0.54295000  0.12805000  0.58015000  1.0
  O  O47  1  0.61136000  0.84722000  0.55175000  1.0
  O  O48  1  0.74116000  0.75930000  0.63207000  1.0
