# generated using pymatgen
data_H6C10N3
_symmetry_space_group_name_H-M   'P 1'
_cell_length_a   26.62290000
_cell_length_b   26.62290000
_cell_length_c   26.62290000
_cell_angle_alpha   90.00000000
_cell_angle_beta   90.00000000
_cell_angle_gamma   90.00000000
_symmetry_Int_Tables_number   1
_chemical_formula_structural   H6C10N3
_chemical_formula_sum   'H96 C160 N48'
_cell_volume   18869.74723193
_cell_formula_units_Z   16
loop_
 _symmetry_equiv_pos_site_id
 _symmetry_equiv_pos_as_xyz
  1  'x, y, z'
loop_
 _atom_site_type_symbol
 _atom_site_label
 _atom_site_symmetry_multiplicity
 _atom_site_fract_x
 _atom_site_fract_y
 _atom_site_fract_z
 _atom_site_occupancy
  H  7  1  0.09051700  0.03774900  0.98132600  1
  H  8  1  0.93178300  0.03686700  0.98065400  1
  H  9  1  0.01117300  0.11761200  0.87356600  1
  H  16  1  0.09055200  0.98387700  0.04030500  1
  H  17  1  0.01131600  0.90406600  0.14819700  1
  H  18  1  0.93181300  0.98472600  0.04112400  1
  H  25  1  0.43112400  0.98366300  0.48155800  1
  H  26  1  0.58985600  0.98500400  0.48028100  1
  H  27  1  0.51030400  0.90413000  0.37342200  1
  H  34  1  0.43118400  0.03803600  0.54012800  1
  H  35  1  0.51053300  0.11749100  0.64818500  1
  H  36  1  0.58991600  0.03653700  0.54124400  1
  H  43  1  0.23887000  0.84076700  0.22759800  1
  H  44  1  0.23135600  0.68218200  0.23329600  1
  H  45  1  0.15282900  0.76200400  0.12446300  1
  H  52  1  0.28262500  0.84078600  0.29405500  1
  H  53  1  0.36870100  0.76206100  0.39719900  1
  H  54  1  0.29029500  0.68220800  0.28831400  1
  H  61  1  0.28298800  0.18088300  0.72774400  1
  H  62  1  0.29003100  0.33950300  0.73305900  1
  H  63  1  0.36853200  0.25968100  0.62422800  1
  H  70  1  0.23864200  0.18086700  0.79378500  1
  H  71  1  0.15304700  0.25962600  0.89729000  1
  H  72  1  0.23150700  0.33948400  0.78846300  1
  H  79  1  0.78374500  0.18003200  0.79325600  1
  H  80  1  0.78951400  0.33872300  0.78905600  1
  H  81  1  0.86859300  0.25873100  0.89734200  1
  H  88  1  0.73778100  0.18004200  0.72842800  1
  H  89  1  0.65294100  0.25877200  0.62436400  1
  H  90  1  0.73218400  0.33874100  0.73253700  1
  H  97  1  0.73724700  0.84147300  0.29277600  1
  H  98  1  0.73250000  0.68273400  0.28941100  1
  H  99  1  0.65309500  0.76276700  0.39739400  1
  H  106  1  0.78432700  0.84145500  0.22876400  1
  H  107  1  0.86845800  0.76269200  0.12417400  1
  H  108  1  0.78902200  0.68271600  0.23219200  1
  H  115  1  0.59056600  0.53707100  0.48066400  1
  H  116  1  0.43166100  0.53567700  0.47961600  1
  H  117  1  0.51111500  0.61866600  0.37419700  1
  H  124  1  0.59060300  0.48478500  0.54104500  1
  H  125  1  0.51124700  0.40294600  0.64739300  1
  H  126  1  0.43169500  0.48576900  0.54192300  1
  H  133  1  0.93104600  0.48475500  0.98057100  1
  H  134  1  0.08995400  0.48580300  0.97962100  1
  H  135  1  0.01039200  0.40299400  0.87414800  1
  H  142  1  0.93109200  0.53711200  0.04088700  1
  H  143  1  0.01055300  0.61865400  0.14739100  1
  H  144  1  0.08999500  0.53558700  0.04203000  1
  H  151  1  0.93481000  0.93035500  0.19656100  1
  H  153  1  0.79711300  0.81977000  0.07291500  1
  H  154  1  0.82960000  0.85090900  0.02952500  1
  H  161  1  0.58691900  0.09125900  0.69656500  1
  H  163  1  0.72418000  0.20224200  0.57270900  1
  H  164  1  0.69165500  0.17107500  0.52937000  1
  H  171  1  0.34292900  0.68560400  0.44518400  1
  H  173  1  0.45439400  0.54727600  0.32311700  1
  H  174  1  0.42371700  0.57962800  0.27931200  1
  H  181  1  0.17912600  0.33624600  0.94529400  1
  H  183  1  0.06719300  0.47414700  0.82315500  1
  H  184  1  0.09794400  0.44184400  0.77936900  1
  H  191  1  0.58678700  0.93047900  0.32494500  1
  H  193  1  0.72444600  0.81988700  0.44862800  1
  H  194  1  0.69198200  0.85107800  0.49199300  1
  H  201  1  0.93485100  0.09149200  0.82530300  1
  H  203  1  0.79712800  0.20211500  0.94893700  1
  H  204  1  0.82967900  0.17106600  0.99234700  1
  H  211  1  0.17866400  0.68556300  0.07643800  1
  H  213  1  0.06719700  0.54725000  0.19851800  1
  H  214  1  0.09785700  0.57961700  0.24232600  1
  H  221  1  0.34242600  0.33631700  0.57624000  1
  H  223  1  0.45451000  0.47404200  0.69843100  1
  H  224  1  0.42373600  0.44173500  0.74219800  1
  H  231  1  0.08803700  0.09123700  0.82555900  1
  H  233  1  0.22449400  0.20332400  0.94917000  1
  H  234  1  0.19195200  0.17227800  0.99258700  1
  H  241  1  0.43352100  0.93031000  0.32564700  1
  H  243  1  0.29732000  0.81790700  0.44934200  1
  H  244  1  0.32993300  0.84887700  0.49275900  1
  H  251  1  0.67879400  0.33484900  0.57597300  1
  H  253  1  0.56860300  0.47431300  0.69791700  1
  H  254  1  0.59934400  0.44202100  0.74172100  1
  H  261  1  0.84235200  0.68644900  0.07573000  1
  H  263  1  0.95315500  0.54763700  0.19787000  1
  H  264  1  0.92224200  0.57984600  0.24160600  1
  H  271  1  0.43359200  0.09131600  0.69606500  1
  H  273  1  0.29719800  0.20332200  0.57229600  1
  H  274  1  0.32980400  0.17230300  0.52891200  1
  H  281  1  0.08809700  0.93031800  0.19610100  1
  H  283  1  0.22412200  0.81780200  0.07229100  1
  H  284  1  0.19153900  0.84884300  0.02890300  1
  H  291  1  0.84291200  0.33484300  0.94565800  1
  H  293  1  0.95299700  0.47430500  0.82361700  1
  H  294  1  0.92223800  0.44199500  0.77984200  1
  H  301  1  0.67915500  0.68656200  0.44587100  1
  H  303  1  0.56858100  0.54752800  0.32376000  1
  H  304  1  0.59944900  0.57975200  0.27999700  1
  C  1  1  0.01117100  0.02756500  0.98871900  1
  C  2  1  0.05644700  0.04613400  0.96629800  1
  C  3  1  0.05750800  0.07703800  0.92297400  1
  C  4  1  0.01118900  0.09172100  0.90206800  1
  C  5  1  0.96486700  0.07681200  0.92279000  1
  C  6  1  0.96588500  0.04571500  0.96597900  1
  C  10  1  0.01119300  0.99404900  0.03298500  1
  C  11  1  0.05649500  0.97548900  0.05536100  1
  C  12  1  0.05758100  0.94456100  0.09866600  1
  C  13  1  0.01129600  0.92992700  0.11966900  1
  C  14  1  0.96494600  0.94484300  0.09900100  1
  C  15  1  0.96593400  0.97588700  0.05576900  1
  C  19  1  0.51046600  0.99407900  0.48865000  1
  C  20  1  0.46515900  0.97542200  0.46636500  1
  C  21  1  0.46403600  0.94458000  0.42299600  1
  C  22  1  0.51032300  0.93000200  0.40193900  1
  C  23  1  0.55668100  0.94502700  0.42251100  1
  C  24  1  0.55572400  0.97606000  0.46574500  1
  C  28  1  0.51050700  0.02756200  0.53294300  1
  C  29  1  0.46524200  0.04626200  0.55527700  1
  C  30  1  0.46419000  0.07712000  0.59863800  1
  C  31  1  0.51051800  0.09167600  0.61961600  1
  C  32  1  0.55683900  0.07657500  0.59902500  1
  C  33  1  0.55580300  0.04553600  0.55579900  1
  C  37  1  0.24406100  0.76128700  0.23868000  1
  C  38  1  0.22786300  0.80662000  0.21462900  1
  C  39  1  0.19608300  0.80766400  0.17203000  1
  C  40  1  0.17891900  0.76154600  0.15280400  1
  C  41  1  0.19292000  0.71516500  0.17406600  1
  C  42  1  0.22399400  0.71611500  0.21734200  1
  C  46  1  0.27751400  0.76130200  0.28295000  1
  C  47  1  0.29366400  0.80664300  0.30701400  1
  C  48  1  0.32543500  0.80770200  0.34961800  1
  C  49  1  0.34265300  0.76159900  0.36881700  1
  C  50  1  0.32865100  0.71519900  0.34758900  1
  C  51  1  0.29761800  0.71614200  0.30428300  1
  C  55  1  0.27749100  0.26037500  0.73860700  1
  C  56  1  0.29378800  0.21503700  0.71462400  1
  C  57  1  0.32537800  0.21398200  0.67188700  1
  C  58  1  0.34250900  0.26010500  0.65263600  1
  C  59  1  0.32848200  0.30648700  0.67387400  1
  C  60  1  0.29744000  0.30555500  0.71716700  1
  C  64  1  0.24408800  0.26036500  0.78291900  1
  C  65  1  0.22782000  0.21501700  0.80689800  1
  C  66  1  0.19619100  0.21396100  0.84960200  1
  C  67  1  0.17907200  0.26007000  0.86888600  1
  C  68  1  0.19311300  0.30646900  0.84768600  1
  C  69  1  0.22412600  0.30553400  0.80436600  1
  C  73  1  0.77752500  0.25955200  0.78297100  1
  C  74  1  0.79416100  0.21418600  0.80666500  1
  C  75  1  0.82567500  0.21308600  0.84944800  1
  C  76  1  0.84251400  0.25919200  0.86899100  1
  C  77  1  0.82828500  0.30561500  0.84796000  1
  C  78  1  0.79719600  0.30472200  0.80469300  1
  C  82  1  0.74409500  0.25956000  0.73866400  1
  C  83  1  0.72739900  0.21419800  0.71500400  1
  C  84  1  0.69585800  0.21310500  0.67223600  1
  C  85  1  0.67904600  0.25921900  0.65268900  1
  C  86  1  0.69334200  0.30563900  0.67367800  1
  C  87  1  0.72445800  0.30473900  0.71693000  1
  C  91  1  0.74408400  0.76194800  0.28296100  1
  C  92  1  0.72718500  0.80732200  0.30645700  1
  C  93  1  0.69578300  0.80844900  0.34933400  1
  C  94  1  0.67917700  0.76232700  0.36904500  1
  C  95  1  0.69357500  0.71589700  0.34815200  1
  C  96  1  0.72464900  0.71676900  0.30487900  1
  C  100  1  0.77748700  0.76193700  0.23862600  1
  C  101  1  0.79439700  0.80729600  0.21510800  1
  C  102  1  0.82580300  0.80839700  0.17223500  1
  C  103  1  0.84241600  0.76226000  0.15256400  1
  C  104  1  0.82797400  0.71584500  0.17345300  1
  C  105  1  0.79690300  0.71674300  0.21672500  1
  C  109  1  0.51114200  0.52742800  0.48856700  1
  C  110  1  0.55643400  0.54575500  0.46595900  1
  C  111  1  0.55736500  0.57696800  0.42286800  1
  C  112  1  0.51113400  0.59266500  0.40265300  1
  C  113  1  0.46492200  0.57644600  0.42247800  1
  C  114  1  0.46583100  0.54507500  0.46545200  1
  C  118  1  0.51116100  0.49420900  0.53305100  1
  C  119  1  0.55647500  0.47598800  0.55569700  1
  C  120  1  0.55744400  0.44475200  0.59876900  1
  C  121  1  0.51123200  0.42893100  0.61892500  1
  C  122  1  0.46499000  0.44507800  0.59909600  1
  C  123  1  0.46587300  0.47644600  0.55611800  1
  C  127  1  0.01049300  0.49421700  0.98852700  1
  C  128  1  0.96517100  0.47599200  0.96588900  1
  C  129  1  0.96419800  0.44482300  0.92277200  1
  C  130  1  0.01040700  0.42897600  0.90262400  1
  C  131  1  0.05664800  0.44511200  0.92245600  1
  C  132  1  0.05577400  0.47647600  0.96543400  1
  C  136  1  0.01051600  0.52742500  0.03301700  1
  C  137  1  0.96522400  0.54577400  0.05561300  1
  C  138  1  0.96428500  0.57693100  0.09873800  1
  C  139  1  0.01051900  0.59267700  0.11891600  1
  C  140  1  0.05673500  0.57642000  0.09912100  1
  C  141  1  0.05582400  0.54502600  0.05616400  1
  C  145  1  0.84805400  0.85332800  0.15306800  1
  C  147  1  0.91206300  0.91426800  0.17016100  1
  C  148  1  0.92013100  0.92227200  0.11825000  1
  C  150  1  0.85277900  0.86419400  0.10088900  1
  C  155  1  0.67377600  0.16812700  0.65298900  1
  C  157  1  0.60983500  0.10709400  0.67016200  1
  C  158  1  0.60168400  0.09908000  0.61825600  1
  C  160  1  0.66894900  0.15729300  0.60082800  1
  C  165  1  0.42014100  0.59851000  0.40278400  1
  C  167  1  0.35912700  0.66272200  0.41896600  1
  C  168  1  0.35163500  0.67063200  0.36693000  1
  C  170  1  0.40965800  0.60305500  0.35048900  1
  C  175  1  0.10138600  0.42285000  0.90286000  1
  C  177  1  0.16264200  0.35895300  0.91909800  1
  C  178  1  0.17013200  0.35101800  0.86707200  1
  C  180  1  0.11186900  0.41836100  0.85055200  1
  C  185  1  0.67350500  0.85338000  0.36844500  1
  C  187  1  0.60953100  0.91438800  0.35134800  1
  C  188  1  0.60147400  0.92241900  0.40325400  1
  C  190  1  0.66879200  0.86430300  0.42062200  1
  C  195  1  0.84766700  0.16810200  0.86875800  1
  C  197  1  0.91187500  0.10727100  0.85168600  1
  C  198  1  0.92000000  0.09934900  0.90361500  1
  C  200  1  0.85250500  0.15728300  0.92092400  1
  C  205  1  0.10152900  0.59843900  0.11885400  1
  C  207  1  0.16248800  0.66266100  0.10265500  1
  C  208  1  0.17003400  0.67056800  0.15468900  1
  C  210  1  0.11197400  0.60299500  0.17114600  1
  C  215  1  0.42024700  0.42283100  0.61869200  1
  C  217  1  0.35892300  0.35900600  0.60244300  1
  C  218  1  0.35139300  0.35105700  0.65446200  1
  C  220  1  0.40977400  0.41832000  0.67100000  1
  C  225  1  0.17426600  0.16896700  0.86896500  1
  C  227  1  0.11057300  0.10758400  0.85198700  1
  C  228  1  0.10229100  0.09979700  0.90390100  1
  C  230  1  0.16925900  0.15837700  0.92118300  1
  C  235  1  0.34713300  0.85275700  0.36908300  1
  C  237  1  0.41082200  0.91418100  0.35206400  1
  C  238  1  0.41924000  0.92176900  0.40399000  1
  C  240  1  0.35224100  0.86327400  0.42129400  1
  C  245  1  0.60218700  0.42249600  0.61832000  1
  C  247  1  0.66283000  0.35793800  0.60215300  1
  C  248  1  0.67054600  0.35024400  0.65419500  1
  C  250  1  0.61291500  0.41817300  0.67058700  1
  C  255  1  0.91959800  0.59943000  0.11817700  1
  C  257  1  0.85861300  0.66356700  0.10191200  1
  C  258  1  0.85077000  0.67126700  0.15392900  1
  C  260  1  0.90883300  0.60369400  0.17044500  1
  C  265  1  0.34738000  0.16901600  0.65255000  1
  C  267  1  0.41108500  0.10766900  0.66962200  1
  C  268  1  0.41943100  0.09994500  0.61771500  1
  C  270  1  0.35245200  0.15842800  0.60033600  1
  C  275  1  0.17433200  0.85271900  0.15258700  1
  C  277  1  0.11079100  0.91419300  0.16968300  1
  C  278  1  0.10239900  0.92189300  0.11776600  1
  C  280  1  0.16927900  0.86323300  0.10038100  1
  C  285  1  0.91947800  0.42249300  0.90324700  1
  C  287  1  0.85886400  0.35791900  0.91945900  1
  C  288  1  0.85111900  0.35021100  0.86742800  1
  C  290  1  0.90872000  0.41815400  0.85098800  1
  C  295  1  0.60207800  0.59941200  0.40340800  1
  C  297  1  0.66292800  0.66364600  0.41969800  1
  C  298  1  0.67071500  0.67133800  0.36767500  1
  C  300  1  0.61283600  0.60366000  0.35113900  1
  N  146  1  0.87825000  0.87919600  0.18510600  1
  N  149  1  0.88935700  0.89698200  0.08628400  1
  N  152  1  0.82502500  0.84179600  0.06461200  1
  N  156  1  0.64355000  0.14229300  0.68503300  1
  N  159  1  0.63239100  0.12446800  0.58628700  1
  N  162  1  0.69662100  0.17973400  0.56452100  1
  N  166  1  0.39407400  0.62899900  0.43438100  1
  N  169  1  0.37704700  0.63958400  0.33535800  1
  N  172  1  0.43215000  0.57493300  0.31455500  1
  N  176  1  0.12765100  0.39262000  0.93452500  1
  N  179  1  0.14459000  0.38191900  0.83545200  1
  N  182  1  0.08932000  0.44639700  0.81458300  1
  N  186  1  0.64331700  0.87928700  0.33642500  1
  N  189  1  0.63224400  0.89712100  0.43522200  1
  N  192  1  0.69654200  0.84192800  0.45691400  1
  N  196  1  0.87806600  0.14236600  0.83678600  1
  N  199  1  0.88914700  0.12458400  0.93554600  1
  N  202  1  0.82472800  0.17967300  0.95718200  1
  N  206  1  0.12755000  0.62893100  0.08723300  1
  N  209  1  0.14458200  0.63953100  0.18625700  1
  N  212  1  0.08945000  0.57490300  0.20708100  1
  N  216  1  0.39394600  0.39264200  0.58702400  1
  N  219  1  0.37701700  0.38190400  0.68608100  1
  N  222  1  0.43236000  0.44630300  0.70698800  1
  N  226  1  0.14428200  0.14273600  0.83701100  1
  N  229  1  0.13279100  0.12548400  0.93581300  1
  N  232  1  0.19667500  0.18117700  0.95746400  1
  N  236  1  0.37716700  0.87895600  0.33713700  1
  N  239  1  0.38875100  0.89611800  0.43593200  1
  N  242  1  0.32482900  0.84046700  0.45756800  1
  N  246  1  0.62796200  0.39174100  0.58674200  1
  N  249  1  0.64542400  0.38156600  0.68573200  1
  N  252  1  0.59075000  0.44658100  0.70650000  1
  N  256  1  0.89359400  0.62987400  0.08651200  1
  N  259  1  0.87612000  0.64015500  0.18551000  1
  N  262  1  0.93107300  0.57542800  0.20642900  1
  N  266  1  0.37733200  0.14279800  0.68454900  1
  N  269  1  0.38895800  0.12556300  0.58573200  1
  N  272  1  0.32504400  0.18119900  0.56402800  1
  N  276  1  0.14439600  0.87891100  0.18461000  1
  N  279  1  0.13281100  0.89614800  0.08580400  1
  N  282  1  0.19663900  0.84039500  0.06408500  1
  N  286  1  0.89372900  0.39174100  0.93484800  1
  N  289  1  0.87621000  0.38153600  0.83586900  1
  N  292  1  0.93085100  0.44656600  0.81505600  1
  N  296  1  0.62799600  0.62990400  0.43509800  1
  N  299  1  0.64548800  0.64016600  0.33606000  1
  N  302  1  0.59063000  0.57533800  0.31517800  1
