# generated using pymatgen
data_Zn9H40C74O41
_symmetry_space_group_name_H-M   'P 1'
_cell_length_a   18.90200000
_cell_length_b   30.46400000
_cell_length_c   31.00400000
_cell_angle_alpha   90.00000000
_cell_angle_beta   90.00000000
_cell_angle_gamma   90.00000000
_symmetry_Int_Tables_number   1
_chemical_formula_structural   Zn9H40C74O41
_chemical_formula_sum   'Zn36 H160 C296 O164'
_cell_volume   17853.04969011
_cell_formula_units_Z   4
loop_
 _symmetry_equiv_pos_site_id
 _symmetry_equiv_pos_as_xyz
  1  'x, y, z'
loop_
 _atom_site_type_symbol
 _atom_site_label
 _atom_site_symmetry_multiplicity
 _atom_site_fract_x
 _atom_site_fract_y
 _atom_site_fract_z
 _atom_site_occupancy
  Zn  Zn1  1  0.77172000  0.03115000  0.52280000  1.0
  Zn  Zn2  1  0.84944000  0.94588000  0.50661000  1.0
  Zn  Zn3  1  0.24479000  0.00016000  0.96021000  1.0
  Zn  Zn4  1  0.34739000  0.79933000  0.73712000  1.0
  Zn  Zn5  1  0.32512000  0.00388000  0.04468000  1.0
  Zn  Zn6  1  0.25318000  0.79423000  0.64294000  1.0
  Zn  Zn7  1  0.30068000  0.70856000  0.28500000  1.0
  Zn  Zn8  1  0.32870000  0.74406000  0.18045000  1.0
  Zn  Zn9  1  0.33359000  0.70570000  0.67847000  1.0
  Zn  Zn10  1  0.27172000  0.96885000  0.47720000  1.0
  Zn  Zn11  1  0.34944000  0.05412000  0.49339000  1.0
  Zn  Zn12  1  0.74479000  0.99984000  0.03979000  1.0
  Zn  Zn13  1  0.84739000  0.20067000  0.26288000  1.0
  Zn  Zn14  1  0.82512000  0.99612000  0.95532000  1.0
  Zn  Zn15  1  0.75318000  0.20577000  0.35706000  1.0
  Zn  Zn16  1  0.80068000  0.29144000  0.71500000  1.0
  Zn  Zn17  1  0.82870000  0.25594000  0.81955000  1.0
  Zn  Zn18  1  0.83359000  0.29430000  0.32153000  1.0
  Zn  Zn19  1  0.77172000  0.53115000  0.97720000  1.0
  Zn  Zn20  1  0.84944000  0.44588000  0.99339000  1.0
  Zn  Zn21  1  0.24479000  0.50016000  0.53979000  1.0
  Zn  Zn22  1  0.34739000  0.29933000  0.76288000  1.0
  Zn  Zn23  1  0.32512000  0.50388000  0.45532000  1.0
  Zn  Zn24  1  0.25318000  0.29423000  0.85706000  1.0
  Zn  Zn25  1  0.30068000  0.20856000  0.21500000  1.0
  Zn  Zn26  1  0.32870000  0.24406000  0.31955000  1.0
  Zn  Zn27  1  0.33359000  0.20570000  0.82153000  1.0
  Zn  Zn28  1  0.27172000  0.46885000  0.02280000  1.0
  Zn  Zn29  1  0.34944000  0.55412000  0.00661000  1.0
  Zn  Zn30  1  0.74479000  0.49984000  0.46021000  1.0
  Zn  Zn31  1  0.84739000  0.70067000  0.23712000  1.0
  Zn  Zn32  1  0.82512000  0.49612000  0.54468000  1.0
  Zn  Zn33  1  0.75318000  0.70577000  0.14294000  1.0
  Zn  Zn34  1  0.80068000  0.79144000  0.78500000  1.0
  Zn  Zn35  1  0.82870000  0.75594000  0.68045000  1.0
  Zn  Zn36  1  0.83359000  0.79430000  0.17847000  1.0
  H  H1  1  0.42380000  0.99950000  0.87860000  1.0
  H  H2  1  0.63830000  0.00130000  0.87370000  1.0
  H  H3  1  0.53700000  0.98730000  0.98830000  1.0
  H  H4  1  0.62250000  0.02770000  0.81020000  1.0
  H  H5  1  0.60730000  0.97840000  0.79820000  1.0
  H  H6  1  0.66240000  0.04250000  0.73280000  1.0
  H  H7  1  0.61640000  0.02350000  0.69470000  1.0
  H  H8  1  0.46610000  0.98870000  0.75570000  1.0
  H  H9  1  0.52510000  0.95970000  0.73380000  1.0
  H  H10  1  0.43170000  0.02460000  0.62310000  1.0
  H  H11  1  0.30860000  0.91940000  0.60390000  1.0
  H  H12  1  0.42090000  0.92770000  0.71320000  1.0
  H  H13  1  0.72420000  0.90960000  0.74730000  1.0
  H  H14  1  0.82140000  0.89280000  0.63570000  1.0
  H  H15  1  0.70950000  0.00140000  0.65630000  1.0
  H  H16  1  0.56490000  0.99280000  0.48510000  1.0
  H  H17  1  0.44760000  0.88880000  0.44450000  1.0
  H  H18  1  0.65310000  0.87290000  0.46810000  1.0
  H  H19  1  0.63140000  0.80100000  0.43400000  1.0
  H  H20  1  0.60520000  0.80080000  0.48220000  1.0
  H  H21  1  0.64980000  0.71610000  0.43390000  1.0
  H  H22  1  0.59000000  0.68750000  0.45560000  1.0
  H  H23  1  0.45900000  0.77160000  0.46990000  1.0
  H  H24  1  0.50950000  0.75190000  0.50530000  1.0
  H  H25  1  0.39900000  0.63490000  0.46840000  1.0
  H  H26  1  0.26410000  0.64650000  0.56610000  1.0
  H  H27  1  0.38480000  0.75040000  0.52770000  1.0
  H  H28  1  0.47090000  0.14570000  0.76060000  1.0
  H  H29  1  0.56880000  0.26170000  0.74390000  1.0
  H  H30  1  0.68440000  0.15070000  0.77160000  1.0
  H  H31  1  0.52370000  0.07550000  0.72190000  1.0
  H  H32  1  0.49000000  0.06800000  0.76780000  1.0
  H  H33  1  0.67690000  0.64360000  0.47690000  1.0
  H  H34  1  0.81550000  0.62820000  0.57640000  1.0
  H  H35  1  0.71010000  0.74190000  0.56020000  1.0
  H  H36  1  0.55970000  0.73500000  0.20830000  1.0
  H  H37  1  0.68050000  0.73910000  0.31370000  1.0
  H  H38  1  0.46870000  0.75440000  0.32480000  1.0
  H  H39  1  0.49650000  0.77320000  0.39330000  1.0
  H  H40  1  0.50420000  0.72180000  0.39630000  1.0
  H  H41  1  0.92380000  0.00050000  0.12140000  1.0
  H  H42  1  0.13830000  0.99870000  0.12630000  1.0
  H  H43  1  0.03700000  0.01270000  0.01170000  1.0
  H  H44  1  0.12250000  0.97230000  0.18980000  1.0
  H  H45  1  0.10730000  0.02160000  0.20180000  1.0
  H  H46  1  0.16240000  0.95750000  0.26720000  1.0
  H  H47  1  0.11640000  0.97650000  0.30530000  1.0
  H  H48  1  0.96610000  0.01130000  0.24430000  1.0
  H  H49  1  0.02510000  0.04030000  0.26620000  1.0
  H  H50  1  0.93170000  0.97540000  0.37690000  1.0
  H  H51  1  0.80860000  0.08060000  0.39610000  1.0
  H  H52  1  0.92090000  0.07230000  0.28680000  1.0
  H  H53  1  0.22420000  0.09040000  0.25270000  1.0
  H  H54  1  0.32140000  0.10720000  0.36430000  1.0
  H  H55  1  0.20950000  0.99860000  0.34370000  1.0
  H  H56  1  0.06490000  0.00720000  0.51490000  1.0
  H  H57  1  0.94760000  0.11120000  0.55550000  1.0
  H  H58  1  0.15310000  0.12710000  0.53190000  1.0
  H  H59  1  0.13140000  0.19900000  0.56600000  1.0
  H  H60  1  0.10520000  0.19920000  0.51780000  1.0
  H  H61  1  0.14980000  0.28390000  0.56610000  1.0
  H  H62  1  0.09000000  0.31250000  0.54440000  1.0
  H  H63  1  0.95900000  0.22840000  0.53010000  1.0
  H  H64  1  0.00950000  0.24810000  0.49470000  1.0
  H  H65  1  0.89900000  0.36510000  0.53160000  1.0
  H  H66  1  0.76410000  0.35350000  0.43390000  1.0
  H  H67  1  0.88480000  0.24960000  0.47230000  1.0
  H  H68  1  0.97090000  0.85430000  0.23940000  1.0
  H  H69  1  0.06880000  0.73830000  0.25610000  1.0
  H  H70  1  0.18440000  0.84930000  0.22840000  1.0
  H  H71  1  0.02370000  0.92450000  0.27810000  1.0
  H  H72  1  0.99000000  0.93200000  0.23220000  1.0
  H  H73  1  0.17690000  0.35640000  0.52310000  1.0
  H  H74  1  0.31550000  0.37180000  0.42360000  1.0
  H  H75  1  0.21010000  0.25810000  0.43980000  1.0
  H  H76  1  0.05970000  0.26500000  0.79170000  1.0
  H  H77  1  0.18050000  0.26090000  0.68630000  1.0
  H  H78  1  0.96870000  0.24560000  0.67520000  1.0
  H  H79  1  0.99650000  0.22680000  0.60670000  1.0
  H  H80  1  0.00420000  0.27820000  0.60370000  1.0
  H  H81  1  0.42380000  0.49950000  0.62140000  1.0
  H  H82  1  0.63830000  0.50130000  0.62630000  1.0
  H  H83  1  0.53700000  0.48730000  0.51170000  1.0
  H  H84  1  0.62250000  0.52770000  0.68980000  1.0
  H  H85  1  0.60730000  0.47840000  0.70180000  1.0
  H  H86  1  0.66240000  0.54250000  0.76720000  1.0
  H  H87  1  0.61640000  0.52350000  0.80530000  1.0
  H  H88  1  0.46610000  0.48870000  0.74430000  1.0
  H  H89  1  0.52510000  0.45970000  0.76620000  1.0
  H  H90  1  0.43170000  0.52460000  0.87690000  1.0
  H  H91  1  0.30860000  0.41940000  0.89610000  1.0
  H  H92  1  0.42090000  0.42770000  0.78680000  1.0
  H  H93  1  0.72420000  0.40960000  0.75270000  1.0
  H  H94  1  0.82140000  0.39280000  0.86430000  1.0
  H  H95  1  0.70950000  0.50140000  0.84370000  1.0
  H  H96  1  0.56490000  0.49280000  0.01490000  1.0
  H  H97  1  0.44760000  0.38880000  0.05550000  1.0
  H  H98  1  0.65310000  0.37290000  0.03190000  1.0
  H  H99  1  0.63140000  0.30100000  0.06600000  1.0
  H  H100  1  0.60520000  0.30080000  0.01780000  1.0
  H  H101  1  0.64980000  0.21610000  0.06610000  1.0
  H  H102  1  0.59000000  0.18750000  0.04440000  1.0
  H  H103  1  0.45900000  0.27160000  0.03010000  1.0
  H  H104  1  0.50950000  0.25190000  0.99470000  1.0
  H  H105  1  0.39900000  0.13490000  0.03160000  1.0
  H  H106  1  0.26410000  0.14650000  0.93390000  1.0
  H  H107  1  0.38480000  0.25040000  0.97230000  1.0
  H  H108  1  0.47090000  0.64570000  0.73940000  1.0
  H  H109  1  0.56880000  0.76170000  0.75610000  1.0
  H  H110  1  0.68440000  0.65070000  0.72840000  1.0
  H  H111  1  0.52370000  0.57550000  0.77810000  1.0
  H  H112  1  0.49000000  0.56800000  0.73220000  1.0
  H  H113  1  0.67690000  0.14360000  0.02310000  1.0
  H  H114  1  0.81550000  0.12820000  0.92360000  1.0
  H  H115  1  0.71010000  0.24190000  0.93980000  1.0
  H  H116  1  0.55970000  0.23500000  0.29170000  1.0
  H  H117  1  0.68050000  0.23910000  0.18630000  1.0
  H  H118  1  0.46870000  0.25440000  0.17520000  1.0
  H  H119  1  0.49650000  0.27320000  0.10670000  1.0
  H  H120  1  0.50420000  0.22180000  0.10370000  1.0
  H  H121  1  0.92380000  0.50050000  0.37860000  1.0
  H  H122  1  0.13830000  0.49870000  0.37370000  1.0
  H  H123  1  0.03700000  0.51270000  0.48830000  1.0
  H  H124  1  0.12250000  0.47230000  0.31020000  1.0
  H  H125  1  0.10730000  0.52160000  0.29820000  1.0
  H  H126  1  0.16240000  0.45750000  0.23280000  1.0
  H  H127  1  0.11640000  0.47650000  0.19470000  1.0
  H  H128  1  0.96610000  0.51130000  0.25570000  1.0
  H  H129  1  0.02510000  0.54030000  0.23380000  1.0
  H  H130  1  0.93170000  0.47540000  0.12310000  1.0
  H  H131  1  0.80860000  0.58060000  0.10390000  1.0
  H  H132  1  0.92090000  0.57230000  0.21320000  1.0
  H  H133  1  0.22420000  0.59040000  0.24730000  1.0
  H  H134  1  0.32140000  0.60720000  0.13570000  1.0
  H  H135  1  0.20950000  0.49860000  0.15630000  1.0
  H  H136  1  0.06490000  0.50720000  0.98510000  1.0
  H  H137  1  0.94760000  0.61120000  0.94450000  1.0
  H  H138  1  0.15310000  0.62710000  0.96810000  1.0
  H  H139  1  0.13140000  0.69900000  0.93400000  1.0
  H  H140  1  0.10520000  0.69920000  0.98220000  1.0
  H  H141  1  0.14980000  0.78390000  0.93390000  1.0
  H  H142  1  0.09000000  0.81250000  0.95560000  1.0
  H  H143  1  0.95900000  0.72840000  0.96990000  1.0
  H  H144  1  0.00950000  0.74810000  0.00530000  1.0
  H  H145  1  0.89900000  0.86510000  0.96840000  1.0
  H  H146  1  0.76410000  0.85350000  0.06610000  1.0
  H  H147  1  0.88480000  0.74960000  0.02770000  1.0
  H  H148  1  0.97090000  0.35430000  0.26060000  1.0
  H  H149  1  0.06880000  0.23830000  0.24390000  1.0
  H  H150  1  0.18440000  0.34930000  0.27160000  1.0
  H  H151  1  0.02370000  0.42450000  0.22190000  1.0
  H  H152  1  0.99000000  0.43200000  0.26780000  1.0
  H  H153  1  0.17690000  0.85640000  0.97690000  1.0
  H  H154  1  0.31550000  0.87180000  0.07640000  1.0
  H  H155  1  0.21010000  0.75810000  0.06020000  1.0
  H  H156  1  0.05970000  0.76500000  0.70830000  1.0
  H  H157  1  0.18050000  0.76090000  0.81370000  1.0
  H  H158  1  0.96870000  0.74560000  0.82480000  1.0
  H  H159  1  0.99650000  0.72680000  0.89330000  1.0
  H  H160  1  0.00420000  0.77820000  0.89630000  1.0
  C  C1  1  0.40240000  0.99220000  0.96180000  1.0
  C  C2  1  0.76490000  0.58280000  0.51140000  1.0
  C  C3  1  0.67000000  0.98740000  0.95610000  1.0
  C  C4  1  0.46980000  0.99300000  0.93670000  1.0
  C  C5  1  0.46710000  0.99730000  0.89270000  1.0
  C  C6  1  0.52990000  0.99850000  0.86980000  1.0
  C  C7  1  0.59710000  0.99710000  0.88960000  1.0
  C  C8  1  0.59950000  0.98920000  0.93370000  1.0
  C  C9  1  0.53550000  0.98940000  0.95840000  1.0
  C  C10  1  0.58730000  0.00770000  0.79880000  1.0
  C  C11  1  0.56440000  0.02200000  0.75260000  1.0
  C  C12  1  0.62880000  0.01990000  0.72480000  1.0
  C  C13  1  0.50610000  0.98920000  0.73610000  1.0
  C  C14  1  0.43500000  0.98060000  0.67270000  1.0
  C  C15  1  0.41430000  0.99760000  0.63230000  1.0
  C  C16  1  0.36740000  0.97390000  0.60570000  1.0
  C  C17  1  0.34090000  0.93480000  0.62070000  1.0
  C  C18  1  0.36140000  0.91780000  0.66070000  1.0
  C  C19  1  0.40750000  0.93950000  0.68670000  1.0
  C  C20  1  0.33410000  0.87520000  0.67530000  1.0
  C  C21  1  0.70710000  0.95620000  0.70320000  1.0
  C  C22  1  0.73430000  0.91860000  0.71930000  1.0
  C  C23  1  0.77600000  0.89500000  0.69370000  1.0
  C  C24  1  0.79220000  0.90960000  0.65330000  1.0
  C  C25  1  0.76620000  0.94880000  0.63820000  1.0
  C  C26  1  0.72490000  0.97370000  0.66450000  1.0
  C  C27  1  0.80180000  0.85030000  0.70850000  1.0
  C  C28  1  0.78520000  0.96520000  0.59290000  1.0
  C  C29  1  0.42860000  0.97290000  0.46840000  1.0
  C  C30  1  0.34480000  0.99440000  0.56380000  1.0
  C  C31  1  0.69090000  0.95570000  0.49140000  1.0
  C  C32  1  0.62050000  0.93630000  0.47860000  1.0
  C  C33  1  0.56120000  0.96330000  0.47800000  1.0
  C  C34  1  0.49430000  0.94480000  0.46610000  1.0
  C  C35  1  0.49040000  0.90060000  0.45370000  1.0
  C  C36  1  0.55000000  0.87460000  0.45520000  1.0
  C  C37  1  0.61370000  0.89110000  0.46730000  1.0
  C  C38  1  0.59020000  0.79790000  0.45240000  1.0
  C  C39  1  0.55580000  0.75380000  0.44540000  1.0
  C  C40  1  0.61260000  0.71610000  0.45550000  1.0
  C  C41  1  0.49360000  0.74890000  0.47570000  1.0
  C  C42  1  0.40430000  0.69340000  0.49550000  1.0
  C  C43  1  0.37950000  0.65190000  0.49030000  1.0
  C  C44  1  0.32700000  0.63320000  0.51550000  1.0
  C  C45  1  0.29790000  0.65850000  0.54770000  1.0
  C  C46  1  0.31990000  0.70360000  0.55280000  1.0
  C  C47  1  0.37190000  0.72100000  0.52570000  1.0
  C  C48  1  0.30290000  0.58740000  0.51000000  1.0
  C  C49  1  0.29150000  0.73130000  0.58920000  1.0
  C  C50  1  0.43740000  0.22790000  0.75240000  1.0
  C  C51  1  0.51260000  0.16170000  0.75920000  1.0
  C  C52  1  0.50980000  0.20600000  0.75310000  1.0
  C  C53  1  0.57140000  0.23200000  0.75060000  1.0
  C  C54  1  0.63770000  0.21130000  0.75840000  1.0
  C  C55  1  0.70510000  0.23710000  0.76010000  1.0
  C  C56  1  0.64140000  0.16430000  0.76560000  1.0
  C  C57  1  0.57900000  0.13980000  0.76350000  1.0
  C  C58  1  0.53360000  0.06680000  0.75140000  1.0
  C  C59  1  0.69000000  0.69780000  0.51360000  1.0
  C  C60  1  0.70130000  0.65540000  0.50020000  1.0
  C  C61  1  0.75310000  0.62980000  0.52400000  1.0
  C  C62  1  0.78530000  0.64610000  0.56040000  1.0
  C  C63  1  0.77260000  0.69070000  0.57410000  1.0
  C  C64  1  0.72260000  0.71400000  0.55070000  1.0
  C  C65  1  0.80620000  0.70770000  0.61220000  1.0
  C  C66  1  0.43180000  0.74540000  0.24330000  1.0
  C  C67  1  0.56420000  0.73870000  0.23790000  1.0
  C  C68  1  0.62980000  0.73870000  0.25670000  1.0
  C  C69  1  0.69350000  0.72880000  0.23070000  1.0
  C  C70  1  0.63620000  0.74120000  0.30070000  1.0
  C  C71  1  0.57460000  0.74710000  0.32630000  1.0
  C  C72  1  0.50880000  0.74950000  0.30810000  1.0
  C  C73  1  0.52910000  0.74950000  0.39970000  1.0
  C  C74  1  0.50450000  0.74440000  0.26340000  1.0
  C  C75  1  0.90240000  0.00780000  0.03820000  1.0
  C  C76  1  0.26490000  0.41720000  0.48860000  1.0
  C  C77  1  0.17000000  0.01260000  0.04390000  1.0
  C  C78  1  0.96980000  0.00700000  0.06330000  1.0
  C  C79  1  0.96710000  0.00270000  0.10730000  1.0
  C  C80  1  0.02990000  0.00150000  0.13020000  1.0
  C  C81  1  0.09710000  0.00290000  0.11040000  1.0
  C  C82  1  0.09950000  0.01080000  0.06630000  1.0
  C  C83  1  0.03550000  0.01060000  0.04160000  1.0
  C  C84  1  0.08730000  0.99230000  0.20120000  1.0
  C  C85  1  0.06440000  0.97800000  0.24740000  1.0
  C  C86  1  0.12880000  0.98010000  0.27520000  1.0
  C  C87  1  0.00610000  0.01080000  0.26390000  1.0
  C  C88  1  0.93500000  0.01940000  0.32730000  1.0
  C  C89  1  0.91430000  0.00240000  0.36770000  1.0
  C  C90  1  0.86740000  0.02610000  0.39430000  1.0
  C  C91  1  0.84090000  0.06520000  0.37930000  1.0
  C  C92  1  0.86140000  0.08220000  0.33930000  1.0
  C  C93  1  0.90750000  0.06050000  0.31330000  1.0
  C  C94  1  0.83410000  0.12480000  0.32470000  1.0
  C  C95  1  0.20710000  0.04380000  0.29680000  1.0
  C  C96  1  0.23430000  0.08140000  0.28070000  1.0
  C  C97  1  0.27600000  0.10500000  0.30630000  1.0
  C  C98  1  0.29220000  0.09040000  0.34670000  1.0
  C  C99  1  0.26620000  0.05120000  0.36180000  1.0
  C  C100  1  0.22490000  0.02630000  0.33550000  1.0
  C  C101  1  0.30180000  0.14970000  0.29150000  1.0
  C  C102  1  0.28520000  0.03480000  0.40710000  1.0
  C  C103  1  0.92860000  0.02710000  0.53160000  1.0
  C  C104  1  0.84480000  0.00560000  0.43620000  1.0
  C  C105  1  0.19090000  0.04430000  0.50860000  1.0
  C  C106  1  0.12050000  0.06370000  0.52140000  1.0
  C  C107  1  0.06120000  0.03670000  0.52200000  1.0
  C  C108  1  0.99430000  0.05520000  0.53390000  1.0
  C  C109  1  0.99040000  0.09940000  0.54630000  1.0
  C  C110  1  0.05000000  0.12540000  0.54480000  1.0
  C  C111  1  0.11370000  0.10890000  0.53270000  1.0
  C  C112  1  0.09020000  0.20210000  0.54760000  1.0
  C  C113  1  0.05580000  0.24620000  0.55460000  1.0
  C  C114  1  0.11260000  0.28390000  0.54450000  1.0
  C  C115  1  0.99360000  0.25110000  0.52430000  1.0
  C  C116  1  0.90430000  0.30660000  0.50450000  1.0
  C  C117  1  0.87950000  0.34810000  0.50970000  1.0
  C  C118  1  0.82700000  0.36680000  0.48450000  1.0
  C  C119  1  0.79790000  0.34150000  0.45230000  1.0
  C  C120  1  0.81990000  0.29640000  0.44720000  1.0
  C  C121  1  0.87190000  0.27900000  0.47430000  1.0
  C  C122  1  0.80290000  0.41260000  0.49000000  1.0
  C  C123  1  0.79150000  0.26870000  0.41080000  1.0
  C  C124  1  0.93740000  0.77210000  0.24760000  1.0
  C  C125  1  0.01260000  0.83830000  0.24080000  1.0
  C  C126  1  0.00980000  0.79400000  0.24690000  1.0
  C  C127  1  0.07140000  0.76800000  0.24940000  1.0
  C  C128  1  0.13770000  0.78870000  0.24160000  1.0
  C  C129  1  0.20510000  0.76290000  0.23990000  1.0
  C  C130  1  0.14140000  0.83570000  0.23440000  1.0
  C  C131  1  0.07900000  0.86020000  0.23650000  1.0
  C  C132  1  0.03360000  0.93320000  0.24860000  1.0
  C  C133  1  0.19000000  0.30220000  0.48640000  1.0
  C  C134  1  0.20130000  0.34460000  0.49980000  1.0
  C  C135  1  0.25310000  0.37020000  0.47600000  1.0
  C  C136  1  0.28530000  0.35390000  0.43960000  1.0
  C  C137  1  0.27260000  0.30930000  0.42590000  1.0
  C  C138  1  0.22260000  0.28600000  0.44930000  1.0
  C  C139  1  0.30620000  0.29230000  0.38780000  1.0
  C  C140  1  0.93180000  0.25460000  0.75670000  1.0
  C  C141  1  0.06420000  0.26130000  0.76210000  1.0
  C  C142  1  0.12980000  0.26130000  0.74330000  1.0
  C  C143  1  0.19350000  0.27120000  0.76930000  1.0
  C  C144  1  0.13620000  0.25880000  0.69930000  1.0
  C  C145  1  0.07460000  0.25290000  0.67370000  1.0
  C  C146  1  0.00880000  0.25050000  0.69190000  1.0
  C  C147  1  0.02910000  0.25050000  0.60030000  1.0
  C  C148  1  0.00450000  0.25560000  0.73660000  1.0
  C  C149  1  0.40240000  0.49220000  0.53820000  1.0
  C  C150  1  0.76490000  0.08280000  0.98860000  1.0
  C  C151  1  0.67000000  0.48740000  0.54390000  1.0
  C  C152  1  0.46980000  0.49300000  0.56330000  1.0
  C  C153  1  0.46710000  0.49730000  0.60730000  1.0
  C  C154  1  0.52990000  0.49850000  0.63020000  1.0
  C  C155  1  0.59710000  0.49710000  0.61040000  1.0
  C  C156  1  0.59950000  0.48920000  0.56630000  1.0
  C  C157  1  0.53550000  0.48940000  0.54160000  1.0
  C  C158  1  0.58730000  0.50770000  0.70120000  1.0
  C  C159  1  0.56440000  0.52200000  0.74740000  1.0
  C  C160  1  0.62880000  0.51990000  0.77520000  1.0
  C  C161  1  0.50610000  0.48920000  0.76390000  1.0
  C  C162  1  0.43500000  0.48060000  0.82730000  1.0
  C  C163  1  0.41430000  0.49760000  0.86770000  1.0
  C  C164  1  0.36740000  0.47390000  0.89430000  1.0
  C  C165  1  0.34090000  0.43480000  0.87930000  1.0
  C  C166  1  0.36140000  0.41780000  0.83930000  1.0
  C  C167  1  0.40750000  0.43950000  0.81330000  1.0
  C  C168  1  0.33410000  0.37520000  0.82470000  1.0
  C  C169  1  0.70710000  0.45620000  0.79680000  1.0
  C  C170  1  0.73430000  0.41860000  0.78070000  1.0
  C  C171  1  0.77600000  0.39500000  0.80630000  1.0
  C  C172  1  0.79220000  0.40960000  0.84670000  1.0
  C  C173  1  0.76620000  0.44880000  0.86180000  1.0
  C  C174  1  0.72490000  0.47370000  0.83550000  1.0
  C  C175  1  0.80180000  0.35030000  0.79150000  1.0
  C  C176  1  0.78520000  0.46520000  0.90710000  1.0
  C  C177  1  0.42860000  0.47290000  0.03160000  1.0
  C  C178  1  0.34480000  0.49440000  0.93620000  1.0
  C  C179  1  0.69090000  0.45570000  0.00860000  1.0
  C  C180  1  0.62050000  0.43630000  0.02140000  1.0
  C  C181  1  0.56120000  0.46330000  0.02200000  1.0
  C  C182  1  0.49430000  0.44480000  0.03390000  1.0
  C  C183  1  0.49040000  0.40060000  0.04630000  1.0
  C  C184  1  0.55000000  0.37460000  0.04480000  1.0
  C  C185  1  0.61370000  0.39110000  0.03270000  1.0
  C  C186  1  0.59020000  0.29790000  0.04760000  1.0
  C  C187  1  0.55580000  0.25380000  0.05460000  1.0
  C  C188  1  0.61260000  0.21610000  0.04450000  1.0
  C  C189  1  0.49360000  0.24890000  0.02430000  1.0
  C  C190  1  0.40430000  0.19340000  0.00450000  1.0
  C  C191  1  0.37950000  0.15190000  0.00970000  1.0
  C  C192  1  0.32700000  0.13320000  0.98450000  1.0
  C  C193  1  0.29790000  0.15850000  0.95230000  1.0
  C  C194  1  0.31990000  0.20360000  0.94720000  1.0
  C  C195  1  0.37190000  0.22100000  0.97430000  1.0
  C  C196  1  0.30290000  0.08740000  0.99000000  1.0
  C  C197  1  0.29150000  0.23130000  0.91080000  1.0
  C  C198  1  0.43740000  0.72790000  0.74760000  1.0
  C  C199  1  0.51260000  0.66170000  0.74080000  1.0
  C  C200  1  0.50980000  0.70600000  0.74690000  1.0
  C  C201  1  0.57140000  0.73200000  0.74940000  1.0
  C  C202  1  0.63770000  0.71130000  0.74160000  1.0
  C  C203  1  0.70510000  0.73710000  0.73990000  1.0
  C  C204  1  0.64140000  0.66430000  0.73440000  1.0
  C  C205  1  0.57900000  0.63980000  0.73650000  1.0
  C  C206  1  0.53360000  0.56680000  0.74860000  1.0
  C  C207  1  0.69000000  0.19780000  0.98640000  1.0
  C  C208  1  0.70130000  0.15540000  0.99980000  1.0
  C  C209  1  0.75310000  0.12980000  0.97600000  1.0
  C  C210  1  0.78530000  0.14610000  0.93960000  1.0
  C  C211  1  0.77260000  0.19070000  0.92590000  1.0
  C  C212  1  0.72260000  0.21400000  0.94930000  1.0
  C  C213  1  0.80620000  0.20770000  0.88780000  1.0
  C  C214  1  0.43180000  0.24540000  0.25670000  1.0
  C  C215  1  0.56420000  0.23870000  0.26210000  1.0
  C  C216  1  0.62980000  0.23870000  0.24330000  1.0
  C  C217  1  0.69350000  0.22880000  0.26930000  1.0
  C  C218  1  0.63620000  0.24120000  0.19930000  1.0
  C  C219  1  0.57460000  0.24710000  0.17370000  1.0
  C  C220  1  0.50880000  0.24950000  0.19190000  1.0
  C  C221  1  0.52910000  0.24950000  0.10030000  1.0
  C  C222  1  0.50450000  0.24440000  0.23660000  1.0
  C  C223  1  0.90240000  0.50780000  0.46180000  1.0
  C  C224  1  0.26490000  0.91720000  0.01140000  1.0
  C  C225  1  0.17000000  0.51260000  0.45610000  1.0
  C  C226  1  0.96980000  0.50700000  0.43670000  1.0
  C  C227  1  0.96710000  0.50270000  0.39270000  1.0
  C  C228  1  0.02990000  0.50150000  0.36980000  1.0
  C  C229  1  0.09710000  0.50290000  0.38960000  1.0
  C  C230  1  0.09950000  0.51080000  0.43370000  1.0
  C  C231  1  0.03550000  0.51060000  0.45840000  1.0
  C  C232  1  0.08730000  0.49230000  0.29880000  1.0
  C  C233  1  0.06440000  0.47800000  0.25260000  1.0
  C  C234  1  0.12880000  0.48010000  0.22480000  1.0
  C  C235  1  0.00610000  0.51080000  0.23610000  1.0
  C  C236  1  0.93500000  0.51940000  0.17270000  1.0
  C  C237  1  0.91430000  0.50240000  0.13230000  1.0
  C  C238  1  0.86740000  0.52610000  0.10570000  1.0
  C  C239  1  0.84090000  0.56520000  0.12070000  1.0
  C  C240  1  0.86140000  0.58220000  0.16070000  1.0
  C  C241  1  0.90750000  0.56050000  0.18670000  1.0
  C  C242  1  0.83410000  0.62480000  0.17530000  1.0
  C  C243  1  0.20710000  0.54380000  0.20320000  1.0
  C  C244  1  0.23430000  0.58140000  0.21930000  1.0
  C  C245  1  0.27600000  0.60500000  0.19370000  1.0
  C  C246  1  0.29220000  0.59040000  0.15330000  1.0
  C  C247  1  0.26620000  0.55120000  0.13820000  1.0
  C  C248  1  0.22490000  0.52630000  0.16450000  1.0
  C  C249  1  0.30180000  0.64970000  0.20850000  1.0
  C  C250  1  0.28520000  0.53480000  0.09290000  1.0
  C  C251  1  0.92860000  0.52710000  0.96840000  1.0
  C  C252  1  0.84480000  0.50560000  0.06380000  1.0
  C  C253  1  0.19090000  0.54430000  0.99140000  1.0
  C  C254  1  0.12050000  0.56370000  0.97860000  1.0
  C  C255  1  0.06120000  0.53670000  0.97800000  1.0
  C  C256  1  0.99430000  0.55520000  0.96610000  1.0
  C  C257  1  0.99040000  0.59940000  0.95370000  1.0
  C  C258  1  0.05000000  0.62540000  0.95520000  1.0
  C  C259  1  0.11370000  0.60890000  0.96730000  1.0
  C  C260  1  0.09020000  0.70210000  0.95240000  1.0
  C  C261  1  0.05580000  0.74620000  0.94540000  1.0
  C  C262  1  0.11260000  0.78390000  0.95550000  1.0
  C  C263  1  0.99360000  0.75110000  0.97570000  1.0
  C  C264  1  0.90430000  0.80660000  0.99550000  1.0
  C  C265  1  0.87950000  0.84810000  0.99030000  1.0
  C  C266  1  0.82700000  0.86680000  0.01550000  1.0
  C  C267  1  0.79790000  0.84150000  0.04770000  1.0
  C  C268  1  0.81990000  0.79640000  0.05280000  1.0
  C  C269  1  0.87190000  0.77900000  0.02570000  1.0
  C  C270  1  0.80290000  0.91260000  0.01000000  1.0
  C  C271  1  0.79150000  0.76870000  0.08920000  1.0
  C  C272  1  0.93740000  0.27210000  0.25240000  1.0
  C  C273  1  0.01260000  0.33830000  0.25920000  1.0
  C  C274  1  0.00980000  0.29400000  0.25310000  1.0
  C  C275  1  0.07140000  0.26800000  0.25060000  1.0
  C  C276  1  0.13770000  0.28870000  0.25840000  1.0
  C  C277  1  0.20510000  0.26290000  0.26010000  1.0
  C  C278  1  0.14140000  0.33570000  0.26560000  1.0
  C  C279  1  0.07900000  0.36020000  0.26350000  1.0
  C  C280  1  0.03360000  0.43320000  0.25140000  1.0
  C  C281  1  0.19000000  0.80220000  0.01360000  1.0
  C  C282  1  0.20130000  0.84460000  0.00020000  1.0
  C  C283  1  0.25310000  0.87020000  0.02400000  1.0
  C  C284  1  0.28530000  0.85390000  0.06040000  1.0
  C  C285  1  0.27260000  0.80930000  0.07410000  1.0
  C  C286  1  0.22260000  0.78600000  0.05070000  1.0
  C  C287  1  0.30620000  0.79230000  0.11220000  1.0
  C  C288  1  0.93180000  0.75460000  0.74330000  1.0
  C  C289  1  0.06420000  0.76130000  0.73790000  1.0
  C  C290  1  0.12980000  0.76130000  0.75670000  1.0
  C  C291  1  0.19350000  0.77120000  0.73070000  1.0
  C  C292  1  0.13620000  0.75880000  0.80070000  1.0
  C  C293  1  0.07460000  0.75290000  0.82630000  1.0
  C  C294  1  0.00880000  0.75050000  0.80810000  1.0
  C  C295  1  0.02910000  0.75050000  0.89970000  1.0
  C  C296  1  0.00450000  0.75560000  0.76340000  1.0
  O  O1  1  0.40930000  0.99433000  0.00264000  1.0
  O  O2  1  0.34650000  0.99129000  0.94101000  1.0
  O  O3  1  0.72300000  0.98908000  0.93289000  1.0
  O  O4  1  0.66700000  0.98727000  0.99825000  1.0
  O  O5  1  0.80460000  0.56150000  0.53819000  1.0
  O  O6  1  0.73620000  0.56667000  0.47883000  1.0
  O  O7  1  0.35500000  0.85922000  0.71095000  1.0
  O  O8  1  0.28750000  0.85626000  0.65194000  1.0
  O  O9  1  0.26300000  0.71217000  0.61983000  1.0
  O  O10  1  0.29230000  0.77120000  0.58515000  1.0
  O  O11  1  0.38500000  0.20510000  0.76011000  1.0
  O  O12  1  0.43590000  0.26840000  0.74716000  1.0
  O  O13  1  0.27120000  0.56730000  0.53868000  1.0
  O  O14  1  0.32650000  0.56835000  0.47440000  1.0
  O  O15  1  0.38040000  0.74595000  0.26848000  1.0
  O  O16  1  0.42760000  0.74768000  0.20232000  1.0
  O  O17  1  0.75160000  0.72248000  0.25162000  1.0
  O  O18  1  0.68850000  0.72479000  0.18980000  1.0
  O  O19  1  0.84130000  0.68440000  0.63810000  1.0
  O  O20  1  0.80100000  0.74920000  0.61989000  1.0
  O  O21  1  0.80530000  0.84470000  0.75210000  1.0
  O  O22  1  0.81410000  0.81996000  0.68227000  1.0
  O  O23  1  0.75820000  0.00116000  0.58139000  1.0
  O  O24  1  0.82420000  0.94004000  0.57099000  1.0
  O  O25  1  0.68940000  0.99605000  0.50041000  1.0
  O  O26  1  0.74390000  0.93079000  0.49193000  1.0
  O  O27  1  0.37100000  0.95237000  0.45991000  1.0
  O  O28  1  0.43520000  0.01317000  0.47794000  1.0
  O  O29  1  0.31030000  0.96608000  0.53940000  1.0
  O  O30  1  0.36290000  0.03159000  0.55468000  1.0
  O  O31  1  0.58750000  0.09600000  0.77065000  1.0
  O  O32  1  0.46170000  0.70603000  0.46951000  1.0
  O  O33  1  0.64020000  0.72592000  0.49623000  1.0
  O  O34  1  0.53810000  0.83158000  0.44204000  1.0
  O  O35  1  0.58820000  0.75117000  0.37091000  1.0
  O  O36  1  0.65840000  0.97580000  0.73260000  1.0
  O  O37  1  0.48470000  0.00531000  0.69392000  1.0
  O  O38  1  0.52130000  0.00868000  0.82579000  1.0
  O  O39  1  0.75040000  0.22708000  0.78817000  1.0
  O  O40  1  0.71350000  0.26540000  0.73230000  1.0
  O  O41  1  0.34370000  0.77021000  0.67483000  1.0
  O  O42  1  0.90930000  0.00567000  0.99736000  1.0
  O  O43  1  0.84650000  0.00871000  0.05899000  1.0
  O  O44  1  0.22300000  0.01092000  0.06711000  1.0
  O  O45  1  0.16700000  0.01273000  0.00175000  1.0
  O  O46  1  0.30460000  0.43850000  0.46181000  1.0
  O  O47  1  0.23620000  0.43333000  0.52117000  1.0
  O  O48  1  0.85500000  0.14078000  0.28905000  1.0
  O  O49  1  0.78750000  0.14374000  0.34806000  1.0
  O  O50  1  0.76300000  0.28783000  0.38017000  1.0
  O  O51  1  0.79230000  0.22880000  0.41485000  1.0
  O  O52  1  0.88500000  0.79490000  0.23989000  1.0
  O  O53  1  0.93590000  0.73160000  0.25284000  1.0
  O  O54  1  0.77120000  0.43270000  0.46132000  1.0
  O  O55  1  0.82650000  0.43165000  0.52560000  1.0
  O  O56  1  0.88040000  0.25405000  0.73152000  1.0
  O  O57  1  0.92760000  0.25232000  0.79768000  1.0
  O  O58  1  0.25160000  0.27752000  0.74838000  1.0
  O  O59  1  0.18850000  0.27521000  0.81020000  1.0
  O  O60  1  0.34130000  0.31560000  0.36190000  1.0
  O  O61  1  0.30100000  0.25080000  0.38011000  1.0
  O  O62  1  0.30530000  0.15530000  0.24790000  1.0
  O  O63  1  0.31410000  0.18004000  0.31773000  1.0
  O  O64  1  0.25820000  0.99884000  0.41861000  1.0
  O  O65  1  0.32420000  0.05996000  0.42901000  1.0
  O  O66  1  0.18940000  0.00395000  0.49959000  1.0
  O  O67  1  0.24390000  0.06921000  0.50807000  1.0
  O  O68  1  0.87100000  0.04763000  0.54009000  1.0
  O  O69  1  0.93520000  0.98683000  0.52206000  1.0
  O  O70  1  0.81030000  0.03392000  0.46060000  1.0
  O  O71  1  0.86290000  0.96841000  0.44532000  1.0
  O  O72  1  0.08750000  0.90400000  0.22935000  1.0
  O  O73  1  0.96170000  0.29397000  0.53049000  1.0
  O  O74  1  0.14020000  0.27408000  0.50377000  1.0
  O  O75  1  0.03810000  0.16842000  0.55796000  1.0
  O  O76  1  0.08820000  0.24883000  0.62909000  1.0
  O  O77  1  0.15840000  0.02420000  0.26740000  1.0
  O  O78  1  0.98470000  0.99469000  0.30608000  1.0
  O  O79  1  0.02130000  0.99132000  0.17421000  1.0
  O  O80  1  0.25040000  0.77292000  0.21183000  1.0
  O  O81  1  0.21350000  0.73460000  0.26770000  1.0
  O  O82  1  0.84370000  0.22979000  0.32517000  1.0
  O  O83  1  0.40930000  0.49433000  0.49736000  1.0
  O  O84  1  0.34650000  0.49129000  0.55899000  1.0
  O  O85  1  0.72300000  0.48908000  0.56711000  1.0
  O  O86  1  0.66700000  0.48727000  0.50175000  1.0
  O  O87  1  0.80460000  0.06150000  0.96181000  1.0
  O  O88  1  0.73620000  0.06667000  0.02117000  1.0
  O  O89  1  0.35500000  0.35922000  0.78905000  1.0
  O  O90  1  0.28750000  0.35626000  0.84806000  1.0
  O  O91  1  0.26300000  0.21217000  0.88017000  1.0
  O  O92  1  0.29230000  0.27120000  0.91485000  1.0
  O  O93  1  0.38500000  0.70510000  0.73989000  1.0
  O  O94  1  0.43590000  0.76840000  0.75284000  1.0
  O  O95  1  0.27120000  0.06730000  0.96132000  1.0
  O  O96  1  0.32650000  0.06835000  0.02560000  1.0
  O  O97  1  0.38040000  0.24595000  0.23152000  1.0
  O  O98  1  0.42760000  0.24768000  0.29768000  1.0
  O  O99  1  0.75160000  0.22248000  0.24838000  1.0
  O  O100  1  0.68850000  0.22479000  0.31020000  1.0
  O  O101  1  0.84130000  0.18440000  0.86190000  1.0
  O  O102  1  0.80100000  0.24920000  0.88011000  1.0
  O  O103  1  0.80530000  0.34470000  0.74790000  1.0
  O  O104  1  0.81410000  0.31996000  0.81773000  1.0
  O  O105  1  0.75820000  0.50116000  0.91861000  1.0
  O  O106  1  0.82420000  0.44004000  0.92901000  1.0
  O  O107  1  0.68940000  0.49605000  0.99959000  1.0
  O  O108  1  0.74390000  0.43079000  0.00807000  1.0
  O  O109  1  0.37100000  0.45237000  0.04009000  1.0
  O  O110  1  0.43520000  0.51317000  0.02206000  1.0
  O  O111  1  0.31030000  0.46608000  0.96060000  1.0
  O  O112  1  0.36290000  0.53159000  0.94532000  1.0
  O  O113  1  0.58750000  0.59600000  0.72935000  1.0
  O  O114  1  0.46170000  0.20603000  0.03049000  1.0
  O  O115  1  0.64020000  0.22592000  0.00377000  1.0
  O  O116  1  0.53810000  0.33158000  0.05796000  1.0
  O  O117  1  0.58820000  0.25117000  0.12909000  1.0
  O  O118  1  0.65840000  0.47580000  0.76740000  1.0
  O  O119  1  0.48470000  0.50531000  0.80608000  1.0
  O  O120  1  0.52130000  0.50868000  0.67421000  1.0
  O  O121  1  0.75040000  0.72708000  0.71183000  1.0
  O  O122  1  0.71350000  0.76540000  0.76770000  1.0
  O  O123  1  0.34370000  0.27021000  0.82517000  1.0
  O  O124  1  0.90930000  0.50567000  0.50264000  1.0
  O  O125  1  0.84650000  0.50871000  0.44101000  1.0
  O  O126  1  0.22300000  0.51092000  0.43289000  1.0
  O  O127  1  0.16700000  0.51273000  0.49825000  1.0
  O  O128  1  0.30460000  0.93850000  0.03819000  1.0
  O  O129  1  0.23620000  0.93333000  0.97883000  1.0
  O  O130  1  0.85500000  0.64078000  0.21095000  1.0
  O  O131  1  0.78750000  0.64374000  0.15194000  1.0
  O  O132  1  0.76300000  0.78783000  0.11983000  1.0
  O  O133  1  0.79230000  0.72880000  0.08515000  1.0
  O  O134  1  0.88500000  0.29490000  0.26011000  1.0
  O  O135  1  0.93590000  0.23160000  0.24716000  1.0
  O  O136  1  0.77120000  0.93270000  0.03868000  1.0
  O  O137  1  0.82650000  0.93165000  0.97440000  1.0
  O  O138  1  0.88040000  0.75405000  0.76848000  1.0
  O  O139  1  0.92760000  0.75232000  0.70232000  1.0
  O  O140  1  0.25160000  0.77752000  0.75162000  1.0
  O  O141  1  0.18850000  0.77521000  0.68980000  1.0
  O  O142  1  0.34130000  0.81560000  0.13810000  1.0
  O  O143  1  0.30100000  0.75080000  0.11989000  1.0
  O  O144  1  0.30530000  0.65530000  0.25210000  1.0
  O  O145  1  0.31410000  0.68004000  0.18227000  1.0
  O  O146  1  0.25820000  0.49884000  0.08139000  1.0
  O  O147  1  0.32420000  0.55996000  0.07099000  1.0
  O  O148  1  0.18940000  0.50395000  0.00041000  1.0
  O  O149  1  0.24390000  0.56921000  0.99193000  1.0
  O  O150  1  0.87100000  0.54763000  0.95991000  1.0
  O  O151  1  0.93520000  0.48683000  0.97794000  1.0
  O  O152  1  0.81030000  0.53392000  0.03940000  1.0
  O  O153  1  0.86290000  0.46841000  0.05468000  1.0
  O  O154  1  0.08750000  0.40400000  0.27065000  1.0
  O  O155  1  0.96170000  0.79397000  0.96951000  1.0
  O  O156  1  0.14020000  0.77408000  0.99623000  1.0
  O  O157  1  0.03810000  0.66842000  0.94204000  1.0
  O  O158  1  0.08820000  0.74883000  0.87091000  1.0
  O  O159  1  0.15840000  0.52420000  0.23260000  1.0
  O  O160  1  0.98470000  0.49469000  0.19392000  1.0
  O  O161  1  0.02130000  0.49132000  0.32579000  1.0
  O  O162  1  0.25040000  0.27292000  0.28817000  1.0
  O  O163  1  0.21350000  0.23460000  0.23230000  1.0
  O  O164  1  0.84370000  0.72979000  0.17483000  1.0
