# generated using pymatgen
data_ZnH12C15(NO2)2
_symmetry_space_group_name_H-M   'P 1'
_cell_length_a   12.23617000
_cell_length_b   24.98856000
_cell_length_c   31.40214000
_cell_angle_alpha   89.98007000
_cell_angle_beta   89.99490000
_cell_angle_gamma   83.21967000
_symmetry_Int_Tables_number   1
_chemical_formula_structural   ZnH12C15(NO2)2
_chemical_formula_sum   'Zn16 H192 C240 N32 O64'
_cell_volume   9534.49875792
_cell_formula_units_Z   16
loop_
 _symmetry_equiv_pos_site_id
 _symmetry_equiv_pos_as_xyz
  1  'x, y, z'
loop_
 _atom_site_type_symbol
 _atom_site_label
 _atom_site_symmetry_multiplicity
 _atom_site_fract_x
 _atom_site_fract_y
 _atom_site_fract_z
 _atom_site_occupancy
  Zn  Zn1  1  0.41490000  0.20766000  0.74077000  1.0
  Zn  Zn2  1  0.60731000  0.25263000  0.72995000  1.0
  Zn  Zn3  1  0.30033000  0.43051000  0.35955000  1.0
  Zn  Zn4  1  0.70031000  0.08639000  0.12584000  1.0
  Zn  Zn5  1  0.08582000  0.29230000  0.24078000  1.0
  Zn  Zn6  1  0.89250000  0.24746000  0.22996000  1.0
  Zn  Zn7  1  0.19943000  0.06875000  0.85952000  1.0
  Zn  Zn8  1  0.79981000  0.41381000  0.62592000  1.0
  Zn  Zn9  1  0.58511000  0.79233000  0.25923000  1.0
  Zn  Zn10  1  0.39270000  0.74736000  0.27005000  1.0
  Zn  Zn11  1  0.69968000  0.56949000  0.64045000  1.0
  Zn  Zn12  1  0.29971000  0.91360000  0.87416000  1.0
  Zn  Zn13  1  0.91419000  0.70770000  0.75922000  1.0
  Zn  Zn14  1  0.10751000  0.75254000  0.77003000  1.0
  Zn  Zn15  1  0.80058000  0.93125000  0.14048000  1.0
  Zn  Zn16  1  0.20020000  0.58618000  0.37408000  1.0
  H  H1  1  0.35515000  0.10903000  0.78969000  1.0
  H  H2  1  0.29787000  0.16554000  0.82016000  1.0
  H  H3  1  0.18726000  0.23980000  0.78513000  1.0
  H  H4  1  0.16006000  0.23697000  0.72933000  1.0
  H  H5  1  0.23846000  0.15946000  0.68822000  1.0
  H  H6  1  0.31983000  0.10500000  0.71394000  1.0
  H  H7  1  0.01379000  0.13542000  0.81224000  1.0
  H  H8  1  0.10332000  0.18081000  0.83318000  1.0
  H  H9  1  0.23452000  0.04654000  0.76126000  1.0
  H  H10  1  0.09012000  0.05793000  0.77115000  1.0
  H  H11  1  0.04313000  0.17536000  0.70191000  1.0
  H  H12  1  0.98064000  0.13158000  0.73731000  1.0
  H  H13  1  0.72311000  0.30602000  0.65526000  1.0
  H  H14  1  0.65343000  0.35688000  0.68827000  1.0
  H  H15  1  0.68121000  0.35367000  0.76484000  1.0
  H  H16  1  0.77047000  0.29998000  0.78796000  1.0
  H  H17  1  0.86550000  0.23087000  0.74307000  1.0
  H  H18  1  0.84414000  0.23308000  0.68671000  1.0
  H  H19  1  0.90067000  0.41849000  0.71570000  1.0
  H  H20  1  0.75574000  0.42124000  0.72353000  1.0
  H  H21  1  0.92103000  0.30162000  0.64499000  1.0
  H  H22  1  0.99603000  0.34916000  0.67104000  1.0
  H  H23  1  0.96554000  0.29435000  0.77720000  1.0
  H  H24  1  0.02230000  0.34515000  0.74711000  1.0
  H  H25  1  0.47016000  0.42238000  0.76794000  1.0
  H  H26  1  0.45015000  0.52032000  0.78831000  1.0
  H  H27  1  0.33218000  0.60867000  0.79362000  1.0
  H  H28  1  0.05527000  0.53796000  0.74519000  1.0
  H  H29  1  0.07288000  0.44051000  0.72822000  1.0
  H  H30  1  0.18958000  0.35126000  0.72339000  1.0
  H  H31  1  0.74437000  0.23427000  0.85595000  1.0
  H  H32  1  0.79711000  0.21236000  0.93132000  1.0
  H  H33  1  0.74912000  0.17709000  0.00214000  1.0
  H  H34  1  0.42600000  0.13118000  0.02392000  1.0
  H  H35  1  0.37134000  0.15751000  0.94915000  1.0
  H  H36  1  0.41870000  0.19202000  0.87913000  1.0
  H  H37  1  0.56691000  0.30236000  0.60132000  1.0
  H  H38  1  0.59200000  0.35726000  0.53774000  1.0
  H  H39  1  0.52766000  0.38979000  0.46553000  1.0
  H  H40  1  0.27513000  0.28412000  0.46728000  1.0
  H  H41  1  0.24783000  0.22979000  0.53277000  1.0
  H  H42  1  0.30286000  0.20347000  0.60711000  1.0
  H  H43  1  0.58113000  0.44447000  0.34634000  1.0
  H  H44  1  0.77057000  0.39571000  0.34526000  1.0
  H  H45  1  0.97254000  0.39815000  0.34871000  1.0
  H  H46  1  0.92488000  0.56910000  0.37141000  1.0
  H  H47  1  0.73359000  0.61697000  0.37714000  1.0
  H  H48  1  0.53184000  0.61459000  0.37220000  1.0
  H  H49  1  0.14487000  0.39087000  0.28961000  1.0
  H  H50  1  0.20198000  0.33429000  0.32007000  1.0
  H  H51  1  0.31278000  0.26015000  0.28510000  1.0
  H  H52  1  0.34010000  0.26297000  0.22933000  1.0
  H  H53  1  0.26176000  0.34062000  0.18819000  1.0
  H  H54  1  0.18027000  0.39501000  0.21392000  1.0
  H  H55  1  0.48615000  0.36451000  0.31225000  1.0
  H  H56  1  0.39677000  0.31900000  0.33316000  1.0
  H  H57  1  0.26543000  0.45341000  0.26131000  1.0
  H  H58  1  0.40983000  0.44204000  0.27124000  1.0
  H  H59  1  0.45692000  0.32470000  0.20191000  1.0
  H  H60  1  0.51945000  0.36843000  0.23731000  1.0
  H  H61  1  0.77674000  0.19420000  0.15531000  1.0
  H  H62  1  0.84644000  0.14329000  0.18830000  1.0
  H  H63  1  0.81885000  0.14636000  0.26482000  1.0
  H  H64  1  0.72957000  0.19997000  0.28802000  1.0
  H  H65  1  0.63427000  0.26921000  0.24313000  1.0
  H  H66  1  0.65561000  0.26702000  0.18676000  1.0
  H  H67  1  0.59919000  0.08162000  0.21571000  1.0
  H  H68  1  0.74414000  0.07878000  0.22350000  1.0
  H  H69  1  0.57857000  0.19853000  0.14505000  1.0
  H  H70  1  0.50382000  0.15093000  0.17114000  1.0
  H  H71  1  0.53449000  0.20562000  0.27730000  1.0
  H  H72  1  0.47769000  0.15485000  0.24722000  1.0
  H  H73  1  0.03014000  0.07758000  0.26797000  1.0
  H  H74  1  0.04985000  0.97969000  0.28840000  1.0
  H  H75  1  0.16732000  0.89123000  0.29362000  1.0
  H  H76  1  0.44471000  0.96167000  0.24515000  1.0
  H  H77  1  0.42752000  0.05920000  0.22828000  1.0
  H  H78  1  0.31081000  0.14849000  0.22343000  1.0
  H  H79  1  0.75658000  0.26567000  0.35579000  1.0
  H  H80  1  0.70294000  0.28753000  0.43102000  1.0
  H  H81  1  0.74991000  0.32307000  0.50196000  1.0
  H  H82  1  0.07240000  0.36961000  0.52407000  1.0
  H  H83  1  0.12818000  0.34269000  0.44955000  1.0
  H  H84  1  0.08181000  0.30814000  0.37950000  1.0
  H  H85  1  0.93272000  0.19781000  0.10135000  1.0
  H  H86  1  0.90798000  0.14279000  0.03759000  1.0
  H  H87  1  0.97323000  0.11021000  0.96556000  1.0
  H  H88  1  0.22520000  0.21622000  0.96756000  1.0
  H  H89  1  0.25201000  0.27042000  0.03295000  1.0
  H  H90  1  0.19651000  0.29676000  0.10723000  1.0
  H  H91  1  0.91897000  0.05533000  0.84623000  1.0
  H  H92  1  0.72895000  0.10419000  0.84540000  1.0
  H  H93  1  0.52736000  0.10161000  0.84883000  1.0
  H  H94  1  0.57543000  0.93054000  0.87158000  1.0
  H  H95  1  0.76643000  0.88287000  0.87728000  1.0
  H  H96  1  0.96815000  0.88531000  0.87214000  1.0
  H  H97  1  0.64486000  0.89096000  0.21031000  1.0
  H  H98  1  0.70214000  0.83445000  0.17984000  1.0
  H  H99  1  0.81275000  0.76020000  0.21487000  1.0
  H  H100  1  0.83995000  0.76302000  0.27067000  1.0
  H  H101  1  0.76155000  0.84053000  0.31178000  1.0
  H  H102  1  0.68019000  0.89500000  0.28606000  1.0
  H  H103  1  0.98622000  0.86458000  0.18776000  1.0
  H  H104  1  0.89669000  0.81918000  0.16682000  1.0
  H  H105  1  0.76549000  0.95345000  0.23874000  1.0
  H  H106  1  0.90989000  0.94206000  0.22885000  1.0
  H  H107  1  0.95688000  0.82464000  0.29809000  1.0
  H  H108  1  0.01937000  0.86841000  0.26269000  1.0
  H  H109  1  0.27690000  0.69398000  0.34474000  1.0
  H  H110  1  0.34658000  0.64312000  0.31173000  1.0
  H  H111  1  0.31881000  0.64633000  0.23516000  1.0
  H  H112  1  0.22954000  0.70002000  0.21204000  1.0
  H  H113  1  0.13451000  0.76913000  0.25693000  1.0
  H  H114  1  0.15587000  0.76692000  0.31329000  1.0
  H  H115  1  0.09934000  0.58150000  0.28430000  1.0
  H  H116  1  0.24427000  0.57875000  0.27647000  1.0
  H  H117  1  0.07898000  0.69837000  0.35501000  1.0
  H  H118  1  0.00398000  0.65083000  0.32896000  1.0
  H  H119  1  0.03447000  0.70564000  0.22280000  1.0
  H  H120  1  0.97771000  0.65485000  0.25289000  1.0
  H  H121  1  0.52985000  0.57762000  0.23206000  1.0
  H  H122  1  0.54986000  0.47968000  0.21169000  1.0
  H  H123  1  0.66783000  0.39133000  0.20638000  1.0
  H  H124  1  0.94475000  0.46204000  0.25481000  1.0
  H  H125  1  0.92713000  0.55948000  0.27178000  1.0
  H  H126  1  0.81043000  0.64873000  0.27661000  1.0
  H  H127  1  0.25564000  0.76572000  0.14405000  1.0
  H  H128  1  0.20290000  0.78763000  0.06868000  1.0
  H  H129  1  0.25089000  0.82291000  0.99786000  1.0
  H  H130  1  0.57401000  0.86882000  0.97608000  1.0
  H  H131  1  0.62867000  0.84248000  0.05085000  1.0
  H  H132  1  0.58131000  0.80798000  0.12087000  1.0
  H  H133  1  0.43310000  0.69763000  0.39868000  1.0
  H  H134  1  0.40801000  0.64273000  0.46226000  1.0
  H  H135  1  0.47235000  0.61021000  0.53447000  1.0
  H  H136  1  0.72488000  0.71588000  0.53272000  1.0
  H  H137  1  0.75218000  0.77021000  0.46723000  1.0
  H  H138  1  0.69715000  0.79652000  0.39289000  1.0
  H  H139  1  0.41888000  0.55553000  0.65366000  1.0
  H  H140  1  0.22944000  0.60429000  0.65474000  1.0
  H  H141  1  0.02747000  0.60184000  0.65129000  1.0
  H  H142  1  0.07513000  0.43089000  0.62859000  1.0
  H  H143  1  0.26642000  0.38303000  0.62286000  1.0
  H  H144  1  0.46817000  0.38540000  0.62780000  1.0
  H  H145  1  0.85514000  0.60912000  0.71039000  1.0
  H  H146  1  0.79803000  0.66570000  0.67993000  1.0
  H  H147  1  0.68723000  0.73985000  0.71490000  1.0
  H  H148  1  0.65991000  0.73702000  0.77067000  1.0
  H  H149  1  0.73826000  0.65937000  0.81181000  1.0
  H  H150  1  0.81975000  0.60499000  0.78608000  1.0
  H  H151  1  0.51386000  0.63548000  0.68775000  1.0
  H  H152  1  0.60324000  0.68099000  0.66684000  1.0
  H  H153  1  0.73458000  0.54658000  0.73869000  1.0
  H  H154  1  0.59019000  0.55795000  0.72876000  1.0
  H  H155  1  0.54309000  0.67529000  0.79809000  1.0
  H  H156  1  0.48056000  0.63157000  0.76269000  1.0
  H  H157  1  0.22327000  0.80580000  0.84469000  1.0
  H  H158  1  0.15357000  0.85671000  0.81170000  1.0
  H  H159  1  0.18116000  0.85363000  0.73518000  1.0
  H  H160  1  0.27044000  0.80002000  0.71198000  1.0
  H  H161  1  0.36575000  0.73079000  0.75687000  1.0
  H  H162  1  0.34440000  0.73298000  0.81324000  1.0
  H  H163  1  0.40082000  0.91838000  0.78429000  1.0
  H  H164  1  0.25587000  0.92122000  0.77650000  1.0
  H  H165  1  0.42145000  0.80146000  0.85495000  1.0
  H  H166  1  0.49619000  0.84907000  0.82886000  1.0
  H  H167  1  0.46552000  0.79438000  0.72270000  1.0
  H  H168  1  0.52232000  0.84514000  0.75278000  1.0
  H  H169  1  0.96987000  0.92242000  0.73203000  1.0
  H  H170  1  0.95016000  0.02030000  0.71160000  1.0
  H  H171  1  0.83269000  0.10876000  0.70638000  1.0
  H  H172  1  0.55530000  0.03832000  0.75485000  1.0
  H  H173  1  0.57249000  0.94079000  0.77172000  1.0
  H  H174  1  0.68920000  0.85151000  0.77657000  1.0
  H  H175  1  0.24343000  0.73433000  0.64421000  1.0
  H  H176  1  0.29707000  0.71246000  0.56898000  1.0
  H  H177  1  0.25010000  0.67692000  0.49804000  1.0
  H  H178  1  0.92762000  0.63038000  0.47593000  1.0
  H  H179  1  0.87183000  0.65730000  0.55045000  1.0
  H  H180  1  0.91820000  0.69185000  0.62050000  1.0
  H  H181  1  0.06729000  0.80218000  0.89865000  1.0
  H  H182  1  0.09203000  0.85720000  0.96241000  1.0
  H  H183  1  0.02678000  0.88979000  0.03444000  1.0
  H  H184  1  0.77481000  0.78377000  0.03244000  1.0
  H  H185  1  0.74800000  0.72957000  0.96705000  1.0
  H  H186  1  0.80350000  0.70323000  0.89277000  1.0
  H  H187  1  0.08104000  0.94467000  0.15377000  1.0
  H  H188  1  0.27106000  0.89581000  0.15460000  1.0
  H  H189  1  0.47265000  0.89839000  0.15117000  1.0
  H  H190  1  0.42458000  0.06946000  0.12842000  1.0
  H  H191  1  0.23359000  0.11713000  0.12272000  1.0
  H  H192  1  0.03187000  0.11469000  0.12786000  1.0
  C  C1  1  0.28355000  0.13942000  0.79325000  1.0
  C  C2  1  0.17105000  0.21321000  0.75867000  1.0
  C  C3  1  0.24778000  0.13528000  0.71739000  1.0
  C  C4  1  0.08731000  0.15541000  0.80592000  1.0
  C  C5  1  0.16364000  0.07757000  0.76439000  1.0
  C  C6  1  0.05468000  0.15119000  0.73108000  1.0
  C  C7  1  0.73012000  0.33001000  0.68410000  1.0
  C  C8  1  0.75859000  0.32728000  0.76064000  1.0
  C  C9  1  0.85251000  0.25745000  0.71532000  1.0
  C  C10  1  0.83259000  0.39420000  0.71969000  1.0
  C  C11  1  0.92760000  0.32478000  0.67436000  1.0
  C  C12  1  0.95244000  0.32162000  0.74983000  1.0
  C  C13  1  0.40311000  0.32791000  0.74221000  1.0
  C  C14  1  0.33643000  0.38204000  0.74563000  1.0
  C  C15  1  0.38325000  0.42674000  0.75958000  1.0
  C  C16  1  0.31929000  0.47765000  0.76351000  1.0
  C  C17  1  0.36405000  0.52414000  0.77866000  1.0
  C  C18  1  0.29940000  0.57306000  0.78153000  1.0
  C  C19  1  0.18698000  0.57841000  0.76905000  1.0
  C  C20  1  0.14119000  0.53357000  0.75483000  1.0
  C  C21  1  0.20490000  0.48260000  0.75198000  1.0
  C  C22  1  0.15917000  0.43612000  0.73756000  1.0
  C  C23  1  0.22298000  0.38712000  0.73468000  1.0
  C  C24  1  0.12020000  0.63269000  0.76987000  1.0
  C  C25  1  0.55151000  0.22414000  0.81714000  1.0
  C  C26  1  0.57829000  0.21424000  0.86309000  1.0
  C  C27  1  0.68582000  0.22031000  0.87818000  1.0
  C  C28  1  0.71469000  0.20817000  0.91973000  1.0
  C  C29  1  0.63782000  0.18888000  0.94824000  1.0
  C  C30  1  0.66640000  0.17370000  0.99056000  1.0
  C  C31  1  0.59109000  0.15304000  0.01716000  1.0
  C  C32  1  0.48293000  0.14783000  0.00240000  1.0
  C  C33  1  0.45283000  0.16245000  0.96134000  1.0
  C  C34  1  0.52897000  0.18308000  0.93326000  1.0
  C  C35  1  0.50113000  0.19661000  0.89048000  1.0
  C  C36  1  0.62650000  0.13248000  0.06001000  1.0
  C  C37  1  0.46745000  0.23849000  0.65402000  1.0
  C  C38  1  0.43818000  0.25176000  0.60870000  1.0
  C  C39  1  0.49718000  0.28666000  0.58630000  1.0
  C  C40  1  0.46685000  0.30331000  0.54445000  1.0
  C  C41  1  0.52274000  0.34159000  0.52218000  1.0
  C  C42  1  0.48777000  0.35936000  0.48236000  1.0
  C  C43  1  0.39717000  0.33849000  0.46257000  1.0
  C  C44  1  0.34368000  0.29988000  0.48311000  1.0
  C  C45  1  0.37516000  0.28224000  0.52466000  1.0
  C  C46  1  0.31749000  0.24547000  0.54790000  1.0
  C  C47  1  0.34758000  0.23089000  0.58897000  1.0
  C  C48  1  0.35450000  0.36006000  0.42059000  1.0
  C  C49  1  0.42458000  0.52778000  0.35483000  1.0
  C  C50  1  0.54541000  0.52916000  0.35803000  1.0
  C  C51  1  0.61552000  0.48189000  0.35260000  1.0
  C  C52  1  0.73074000  0.48164000  0.35596000  1.0
  C  C53  1  0.80409000  0.43355000  0.35089000  1.0
  C  C54  1  0.91609000  0.43473000  0.35275000  1.0
  C  C55  1  0.95933000  0.48442000  0.35909000  1.0
  C  C56  1  0.88981000  0.53180000  0.36523000  1.0
  C  C57  1  0.77435000  0.53156000  0.36433000  1.0
  C  C58  1  0.70040000  0.57933000  0.37034000  1.0
  C  C59  1  0.58848000  0.57819000  0.36749000  1.0
  C  C60  1  0.08024000  0.48576000  0.35844000  1.0
  C  C61  1  0.21645000  0.36046000  0.29320000  1.0
  C  C62  1  0.32910000  0.28674000  0.25864000  1.0
  C  C63  1  0.25236000  0.36475000  0.21736000  1.0
  C  C64  1  0.41272000  0.34447000  0.30591000  1.0
  C  C65  1  0.33635000  0.42240000  0.26442000  1.0
  C  C66  1  0.44541000  0.34883000  0.23108000  1.0
  C  C67  1  0.76972000  0.17014000  0.18413000  1.0
  C  C68  1  0.74142000  0.17274000  0.26067000  1.0
  C  C69  1  0.64732000  0.24263000  0.21539000  1.0
  C  C70  1  0.66735000  0.10587000  0.21969000  1.0
  C  C71  1  0.57222000  0.17533000  0.17443000  1.0
  C  C72  1  0.54755000  0.17838000  0.24992000  1.0
  C  C73  1  0.09844000  0.17214000  0.24222000  1.0
  C  C74  1  0.16423000  0.11780000  0.24567000  1.0
  C  C75  1  0.11705000  0.07318000  0.25959000  1.0
  C  C76  1  0.18086000  0.02222000  0.26351000  1.0
  C  C77  1  0.13591000  0.97579000  0.27868000  1.0
  C  C78  1  0.20029000  0.92680000  0.28154000  1.0
  C  C79  1  0.31273000  0.92128000  0.26904000  1.0
  C  C80  1  0.35879000  0.96607000  0.25482000  1.0
  C  C81  1  0.29529000  0.01712000  0.25198000  1.0
  C  C82  1  0.34123000  0.06356000  0.23758000  1.0
  C  C83  1  0.27757000  0.11258000  0.23470000  1.0
  C  C84  1  0.37883000  0.86683000  0.26995000  1.0
  C  C85  1  0.95007000  0.27581000  0.31721000  1.0
  C  C86  1  0.92263000  0.28575000  0.36314000  1.0
  C  C87  1  0.81492000  0.27967000  0.37808000  1.0
  C  C88  1  0.78546000  0.29183000  0.41958000  1.0
  C  C89  1  0.86185000  0.31122000  0.44822000  1.0
  C  C90  1  0.83270000  0.32651000  0.49048000  1.0
  C  C91  1  0.90749000  0.34747000  0.51713000  1.0
  C  C92  1  0.01582000  0.35270000  0.50255000  1.0
  C  C93  1  0.04655000  0.33779000  0.46162000  1.0
  C  C94  1  0.97084000  0.31705000  0.43343000  1.0
  C  C95  1  0.99928000  0.30348000  0.39070000  1.0
  C  C96  1  0.87121000  0.36817000  0.55984000  1.0
  C  C97  1  0.03107000  0.26149000  0.15403000  1.0
  C  C98  1  0.06116000  0.24839000  0.10875000  1.0
  C  C99  1  0.00247000  0.21344000  0.08630000  1.0
  C  C100  1  0.03309000  0.19677000  0.04450000  1.0
  C  C101  1  0.97742000  0.15849000  0.02216000  1.0
  C  C102  1  0.01281000  0.14073000  0.98240000  1.0
  C  C103  1  0.10334000  0.16174000  0.96266000  1.0
  C  C104  1  0.15662000  0.20035000  0.98328000  1.0
  C  C105  1  0.12491000  0.21788000  0.02482000  1.0
  C  C106  1  0.18237000  0.25469000  0.04808000  1.0
  C  C107  1  0.15193000  0.26929000  0.08912000  1.0
  C  C108  1  0.14586000  0.14057000  0.92051000  1.0
  C  C109  1  0.07568000  0.97203000  0.85482000  1.0
  C  C110  1  0.95470000  0.97077000  0.85804000  1.0
  C  C111  1  0.88441000  0.01799000  0.85261000  1.0
  C  C112  1  0.76914000  0.01820000  0.85594000  1.0
  C  C113  1  0.69567000  0.06626000  0.85090000  1.0
  C  C114  1  0.58371000  0.06499000  0.85276000  1.0
  C  C115  1  0.54043000  0.01529000  0.85905000  1.0
  C  C116  1  0.61007000  0.96793000  0.86524000  1.0
  C  C117  1  0.72556000  0.96827000  0.86433000  1.0
  C  C118  1  0.79961000  0.92053000  0.87042000  1.0
  C  C119  1  0.91154000  0.92173000  0.86756000  1.0
  C  C120  1  0.41938000  0.01432000  0.85846000  1.0
  C  C121  1  0.71646000  0.86057000  0.20675000  1.0
  C  C122  1  0.82897000  0.78678000  0.24133000  1.0
  C  C123  1  0.75223000  0.86471000  0.28261000  1.0
  C  C124  1  0.91270000  0.84459000  0.19408000  1.0
  C  C125  1  0.83637000  0.92243000  0.23561000  1.0
  C  C126  1  0.94533000  0.84880000  0.26892000  1.0
  C  C127  1  0.26989000  0.66998000  0.31590000  1.0
  C  C128  1  0.24143000  0.67272000  0.23936000  1.0
  C  C129  1  0.14751000  0.74254000  0.28468000  1.0
  C  C130  1  0.16742000  0.60580000  0.28031000  1.0
  C  C131  1  0.07241000  0.67522000  0.32564000  1.0
  C  C132  1  0.04757000  0.67837000  0.25017000  1.0
  C  C133  1  0.59690000  0.67209000  0.25779000  1.0
  C  C134  1  0.66358000  0.61795000  0.25437000  1.0
  C  C135  1  0.61676000  0.57326000  0.24042000  1.0
  C  C136  1  0.68072000  0.52235000  0.23649000  1.0
  C  C137  1  0.63596000  0.47585000  0.22134000  1.0
  C  C138  1  0.70061000  0.42693000  0.21847000  1.0
  C  C139  1  0.81303000  0.42158000  0.23095000  1.0
  C  C140  1  0.85882000  0.46643000  0.24517000  1.0
  C  C141  1  0.79511000  0.51740000  0.24802000  1.0
  C  C142  1  0.84084000  0.56388000  0.26243000  1.0
  C  C143  1  0.77703000  0.61288000  0.26532000  1.0
  C  C144  1  0.87981000  0.36730000  0.23013000  1.0
  C  C145  1  0.44850000  0.77586000  0.18286000  1.0
  C  C146  1  0.42172000  0.78575000  0.13691000  1.0
  C  C147  1  0.31420000  0.77968000  0.12182000  1.0
  C  C148  1  0.28532000  0.79182000  0.08027000  1.0
  C  C149  1  0.36219000  0.81112000  0.05176000  1.0
  C  C150  1  0.33361000  0.82630000  0.00944000  1.0
  C  C151  1  0.40892000  0.84696000  0.98284000  1.0
  C  C152  1  0.51708000  0.85217000  0.99760000  1.0
  C  C153  1  0.54718000  0.83754000  0.03865000  1.0
  C  C154  1  0.47104000  0.81692000  0.06674000  1.0
  C  C155  1  0.49888000  0.80339000  0.10952000  1.0
  C  C156  1  0.37351000  0.86751000  0.93999000  1.0
  C  C157  1  0.53256000  0.76150000  0.34598000  1.0
  C  C158  1  0.56183000  0.74824000  0.39130000  1.0
  C  C159  1  0.50283000  0.71333000  0.41370000  1.0
  C  C160  1  0.53316000  0.69668000  0.45555000  1.0
  C  C161  1  0.47728000  0.65840000  0.47782000  1.0
  C  C162  1  0.51225000  0.64064000  0.51764000  1.0
  C  C163  1  0.60284000  0.66150000  0.53743000  1.0
  C  C164  1  0.65633000  0.70011000  0.51689000  1.0
  C  C165  1  0.62486000  0.71776000  0.47534000  1.0
  C  C166  1  0.68252000  0.75452000  0.45210000  1.0
  C  C167  1  0.65243000  0.76911000  0.41103000  1.0
  C  C168  1  0.64551000  0.63993000  0.57941000  1.0
  C  C169  1  0.57543000  0.47221000  0.64517000  1.0
  C  C170  1  0.45460000  0.47084000  0.64197000  1.0
  C  C171  1  0.38449000  0.51811000  0.64740000  1.0
  C  C172  1  0.26927000  0.51836000  0.64404000  1.0
  C  C173  1  0.19592000  0.56645000  0.64911000  1.0
  C  C174  1  0.08392000  0.56527000  0.64725000  1.0
  C  C175  1  0.04068000  0.51557000  0.64091000  1.0
  C  C176  1  0.11020000  0.46820000  0.63477000  1.0
  C  C177  1  0.22566000  0.46844000  0.63567000  1.0
  C  C178  1  0.29961000  0.42067000  0.62966000  1.0
  C  C179  1  0.41153000  0.42180000  0.63251000  1.0
  C  C180  1  0.91978000  0.51424000  0.64156000  1.0
  C  C181  1  0.78356000  0.63953000  0.70680000  1.0
  C  C182  1  0.67091000  0.71325000  0.74136000  1.0
  C  C183  1  0.74766000  0.63525000  0.78264000  1.0
  C  C184  1  0.58729000  0.65552000  0.69409000  1.0
  C  C185  1  0.66366000  0.57760000  0.73558000  1.0
  C  C186  1  0.55461000  0.65116000  0.76892000  1.0
  C  C187  1  0.23029000  0.82986000  0.81587000  1.0
  C  C188  1  0.25859000  0.82725000  0.73933000  1.0
  C  C189  1  0.35269000  0.75736000  0.78461000  1.0
  C  C190  1  0.33266000  0.89413000  0.78031000  1.0
  C  C191  1  0.42779000  0.82467000  0.82557000  1.0
  C  C192  1  0.45246000  0.82161000  0.75008000  1.0
  C  C193  1  0.90158000  0.82786000  0.75778000  1.0
  C  C194  1  0.83578000  0.88219000  0.75433000  1.0
  C  C195  1  0.88296000  0.92681000  0.74041000  1.0
  C  C196  1  0.81915000  0.97777000  0.73649000  1.0
  C  C197  1  0.86410000  0.02420000  0.72132000  1.0
  C  C198  1  0.79972000  0.07320000  0.71846000  1.0
  C  C199  1  0.68728000  0.07871000  0.73096000  1.0
  C  C200  1  0.64122000  0.03392000  0.74518000  1.0
  C  C201  1  0.70472000  0.98287000  0.74802000  1.0
  C  C202  1  0.65878000  0.93644000  0.76242000  1.0
  C  C203  1  0.72244000  0.88742000  0.76530000  1.0
  C  C204  1  0.62119000  0.13316000  0.73005000  1.0
  C  C205  1  0.04994000  0.72418000  0.68279000  1.0
  C  C206  1  0.07738000  0.71424000  0.63686000  1.0
  C  C207  1  0.18509000  0.72032000  0.62192000  1.0
  C  C208  1  0.21455000  0.70816000  0.58042000  1.0
  C  C209  1  0.13816000  0.68877000  0.55178000  1.0
  C  C210  1  0.16731000  0.67348000  0.50952000  1.0
  C  C211  1  0.09252000  0.65253000  0.48287000  1.0
  C  C212  1  0.98419000  0.64730000  0.49745000  1.0
  C  C213  1  0.95346000  0.66220000  0.53838000  1.0
  C  C214  1  0.02917000  0.68295000  0.56657000  1.0
  C  C215  1  0.00073000  0.69652000  0.60930000  1.0
  C  C216  1  0.12880000  0.63182000  0.44016000  1.0
  C  C217  1  0.96894000  0.73850000  0.84597000  1.0
  C  C218  1  0.93886000  0.75160000  0.89125000  1.0
  C  C219  1  0.99754000  0.78656000  0.91370000  1.0
  C  C220  1  0.96692000  0.80322000  0.95550000  1.0
  C  C221  1  0.02260000  0.84150000  0.97784000  1.0
  C  C222  1  0.98720000  0.85927000  0.01760000  1.0
  C  C223  1  0.89668000  0.83826000  0.03734000  1.0
  C  C224  1  0.84339000  0.79965000  0.01672000  1.0
  C  C225  1  0.87511000  0.78211000  0.97518000  1.0
  C  C226  1  0.81765000  0.74530000  0.95192000  1.0
  C  C227  1  0.84808000  0.73070000  0.91088000  1.0
  C  C228  1  0.85415000  0.85942000  0.07949000  1.0
  C  C229  1  0.92433000  0.02796000  0.14518000  1.0
  C  C230  1  0.04531000  0.02922000  0.14196000  1.0
  C  C231  1  0.11560000  0.98201000  0.14739000  1.0
  C  C232  1  0.23087000  0.98179000  0.14406000  1.0
  C  C233  1  0.30434000  0.93373000  0.14910000  1.0
  C  C234  1  0.41630000  0.93501000  0.14724000  1.0
  C  C235  1  0.45958000  0.98471000  0.14095000  1.0
  C  C236  1  0.38994000  0.03207000  0.13476000  1.0
  C  C237  1  0.27445000  0.03173000  0.13567000  1.0
  C  C238  1  0.20040000  0.07946000  0.12958000  1.0
  C  C239  1  0.08847000  0.07826000  0.13244000  1.0
  C  C240  1  0.58064000  0.98567000  0.14154000  1.0
  N  N1  1  0.27005000  0.17202000  0.75350000  1.0
  N  N2  1  0.18383000  0.11242000  0.80197000  1.0
  N  N3  1  0.14893000  0.10923000  0.72532000  1.0
  N  N4  1  0.07177000  0.18745000  0.76704000  1.0
  N  N5  1  0.74679000  0.29351000  0.72149000  1.0
  N  N6  1  0.82352000  0.36257000  0.67933000  1.0
  N  N7  1  0.85098000  0.35877000  0.75651000  1.0
  N  N8  1  0.94606000  0.28866000  0.71091000  1.0
  N  N9  1  0.23013000  0.32794000  0.25343000  1.0
  N  N10  1  0.31615000  0.38741000  0.30195000  1.0
  N  N11  1  0.35116000  0.39081000  0.22534000  1.0
  N  N12  1  0.42836000  0.31250000  0.26702000  1.0
  N  N13  1  0.75310000  0.20660000  0.22155000  1.0
  N  N14  1  0.67639000  0.13756000  0.17934000  1.0
  N  N15  1  0.64905000  0.14123000  0.25654000  1.0
  N  N16  1  0.55387000  0.21138000  0.21100000  1.0
  N  N17  1  0.72996000  0.82798000  0.24650000  1.0
  N  N18  1  0.81618000  0.88757000  0.19803000  1.0
  N  N19  1  0.85108000  0.89077000  0.27468000  1.0
  N  N20  1  0.92824000  0.81255000  0.23296000  1.0
  N  N21  1  0.25323000  0.70649000  0.27851000  1.0
  N  N22  1  0.17650000  0.63743000  0.32067000  1.0
  N  N23  1  0.14903000  0.64123000  0.24349000  1.0
  N  N24  1  0.05395000  0.71133000  0.28909000  1.0
  N  N25  1  0.76988000  0.67205000  0.74657000  1.0
  N  N26  1  0.68386000  0.61258000  0.69805000  1.0
  N  N27  1  0.64885000  0.60919000  0.77466000  1.0
  N  N28  1  0.57165000  0.68750000  0.73298000  1.0
  N  N29  1  0.24691000  0.79340000  0.77845000  1.0
  N  N30  1  0.32362000  0.86244000  0.82066000  1.0
  N  N31  1  0.35096000  0.85876000  0.74346000  1.0
  N  N32  1  0.44614000  0.78862000  0.78900000  1.0
  O  O1  1  0.50774000  0.32548000  0.74384000  1.0
  O  O2  1  0.34876000  0.28767000  0.73767000  1.0
  O  O3  1  0.01926000  0.63542000  0.75855000  1.0
  O  O4  1  0.16998000  0.67252000  0.78111000  1.0
  O  O5  1  0.62896000  0.23788000  0.79355000  1.0
  O  O6  1  0.45537000  0.21713000  0.80420000  1.0
  O  O7  1  0.56019000  0.10985000  0.08371000  1.0
  O  O8  1  0.72563000  0.13524000  0.07276000  1.0
  O  O9  1  0.55011000  0.25917000  0.66909000  1.0
  O  O10  1  0.40774000  0.20893000  0.67481000  1.0
  O  O11  1  0.28591000  0.33714000  0.39968000  1.0
  O  O12  1  0.39130000  0.40458000  0.40809000  1.0
  O  O13  1  0.36314000  0.56883000  0.36882000  1.0
  O  O14  1  0.39005000  0.48650000  0.33764000  1.0
  O  O15  1  0.14051000  0.44157000  0.36682000  1.0
  O  O16  1  0.11715000  0.52950000  0.34782000  1.0
  O  O17  1  0.99387000  0.17476000  0.24379000  1.0
  O  O18  1  0.15345000  0.21218000  0.23771000  1.0
  O  O19  1  0.47995000  0.86371000  0.25871000  1.0
  O  O20  1  0.32822000  0.82724000  0.28112000  1.0
  O  O21  1  0.87290000  0.26199000  0.29356000  1.0
  O  O22  1  0.04624000  0.28286000  0.30429000  1.0
  O  O23  1  0.93674000  0.39167000  0.58337000  1.0
  O  O24  1  0.77263000  0.36462000  0.57273000  1.0
  O  O25  1  0.94828000  0.24077000  0.16895000  1.0
  O  O26  1  0.09034000  0.29110000  0.17496000  1.0
  O  O27  1  0.21220000  0.16444000  0.89930000  1.0
  O  O28  1  0.11097000  0.09544000  0.90830000  1.0
  O  O29  1  0.13702000  0.93104000  0.86891000  1.0
  O  O30  1  0.11096000  0.01309000  0.83746000  1.0
  O  O31  1  0.35977000  0.05873000  0.86679000  1.0
  O  O32  1  0.38114000  0.97083000  0.84792000  1.0
  O  O33  1  0.49228000  0.67451000  0.25616000  1.0
  O  O34  1  0.65126000  0.71233000  0.26233000  1.0
  O  O35  1  0.98075000  0.36457000  0.24145000  1.0
  O  O36  1  0.83003000  0.32747000  0.21889000  1.0
  O  O37  1  0.37105000  0.76211000  0.20645000  1.0
  O  O38  1  0.54464000  0.78287000  0.19580000  1.0
  O  O39  1  0.43982000  0.89014000  0.91629000  1.0
  O  O40  1  0.27438000  0.86476000  0.92724000  1.0
  O  O41  1  0.44990000  0.74083000  0.33091000  1.0
  O  O42  1  0.59227000  0.79107000  0.32519000  1.0
  O  O43  1  0.71410000  0.66286000  0.60032000  1.0
  O  O44  1  0.60871000  0.59542000  0.59191000  1.0
  O  O45  1  0.63687000  0.43116000  0.63118000  1.0
  O  O46  1  0.60996000  0.51349000  0.66236000  1.0
  O  O47  1  0.85950000  0.55843000  0.63318000  1.0
  O  O48  1  0.88286000  0.47049000  0.65218000  1.0
  O  O49  1  0.00615000  0.82523000  0.75621000  1.0
  O  O50  1  0.84656000  0.78781000  0.76229000  1.0
  O  O51  1  0.52006000  0.13628000  0.74129000  1.0
  O  O52  1  0.67179000  0.17276000  0.71888000  1.0
  O  O53  1  0.12712000  0.73800000  0.70644000  1.0
  O  O54  1  0.95378000  0.71713000  0.69571000  1.0
  O  O55  1  0.06328000  0.60833000  0.41663000  1.0
  O  O56  1  0.22738000  0.63538000  0.42727000  1.0
  O  O57  1  0.05173000  0.75923000  0.83105000  1.0
  O  O58  1  0.90967000  0.70890000  0.82504000  1.0
  O  O59  1  0.78781000  0.83556000  0.10070000  1.0
  O  O60  1  0.88904000  0.90456000  0.09170000  1.0
  O  O61  1  0.86299000  0.06896000  0.13109000  1.0
  O  O62  1  0.88905000  0.98690000  0.16254000  1.0
  O  O63  1  0.64024000  0.94126000  0.13321000  1.0
  O  O64  1  0.61887000  0.02917000  0.15208000  1.0
