# generated using pymatgen
data_H8C15N5O
_symmetry_space_group_name_H-M   'P 1'
_cell_length_a   20.86810000
_cell_length_b   20.86810000
_cell_length_c   35.50050000
_cell_angle_alpha   90.00000000
_cell_angle_beta   90.00000000
_cell_angle_gamma   120.00000000
_symmetry_Int_Tables_number   1
_chemical_formula_structural   H8C15N5O
_chemical_formula_sum   'H96 C180 N60 O12'
_cell_volume   13388.46907931
_cell_formula_units_Z   12
loop_
 _symmetry_equiv_pos_site_id
 _symmetry_equiv_pos_as_xyz
  1  'x, y, z'
loop_
 _atom_site_type_symbol
 _atom_site_label
 _atom_site_symmetry_multiplicity
 _atom_site_fract_x
 _atom_site_fract_y
 _atom_site_fract_z
 _atom_site_occupancy
  C  1  1  0.41714650  0.46318350  0.97488800  1
  C  2  1  0.38812850  0.50722850  0.96005300  1
  C  3  1  0.38974650  0.52005550  0.92042900  1
  C  4  1  0.40850700  0.47760800  0.89660300  1
  C  5  1  0.43037700  0.42749500  0.90986500  1
  C  6  1  0.44070750  0.42567450  0.94954700  1
  C  7  1  0.35919100  0.53769800  0.98598300  1
  C  8  1  0.47732250  0.39044450  0.96518500  1
  C  10  1  0.42447700  0.45849600  0.01495700  1
  C  11  1  0.39178050  0.48708650  0.04042500  1
  C  12  1  0.39582550  0.47900950  0.08017600  1
  C  13  1  0.44538700  0.45622100  0.09315600  1
  C  14  1  0.48298250  0.43213250  0.06899300  1
  C  15  1  0.46621650  0.42683150  0.02967300  1
  C  16  1  0.35916500  0.52625100  0.02481100  1
  C  18  1  0.49129250  0.39261250  0.00381100  1
  C  23  1  0.43910250  0.38378650  0.88177700  1
  C  24  1  0.53747750  0.41810750  0.08469400  1
  C  25  1  0.35355050  0.48951550  0.10838400  1
  C  26  1  0.37707600  0.57483600  0.90381600  1
  C  31  1  0.92478750  0.45176050  0.30820100  1
  C  32  1  0.99786700  0.48083300  0.29337300  1
  C  33  1  0.00910350  0.47927050  0.25374800  1
  C  34  1  0.94789800  0.46048000  0.22991800  1
  C  35  1  0.87589650  0.43854850  0.24317100  1
  C  36  1  0.86372850  0.42820650  0.28285200  1
  C  37  1  0.05726350  0.50974850  0.31930800  1
  C  38  1  0.79187950  0.39153250  0.29848000  1
  C  40  1  0.91275150  0.44442350  0.34826800  1
  C  41  1  0.97402000  0.47715400  0.37374400  1
  C  42  1  0.96187500  0.47316500  0.41349300  1
  C  43  1  0.88951850  0.42360850  0.42646700  1
  C  44  1  0.82786650  0.38592050  0.40229600  1
  C  45  1  0.83934100  0.40266300  0.36297200  1
  C  46  1  0.04579850  0.50968050  0.35813600  1
  C  48  1  0.78005850  0.37750450  0.33710200  1
  C  53  1  0.82347050  0.42977450  0.21507300  1
  C  54  1  0.75934850  0.33139650  0.41798800  1
  C  55  1  0.01464450  0.51544450  0.44170600  1
  C  56  1  0.07656450  0.49195650  0.23714300  1
  C  61  1  0.40568600  0.94410800  0.64155400  1
  C  62  1  0.36162600  0.87104700  0.62672100  1
  C  63  1  0.34882050  0.85982950  0.58709600  1
  C  64  1  0.39129850  0.92102650  0.56326800  1
  C  65  1  0.44140150  0.99301350  0.57653300  1
  C  66  1  0.44323250  0.00517050  0.61621400  1
  C  67  1  0.33111700  0.81164400  0.65265600  1
  C  68  1  0.47851400  0.07701600  0.63184500  1
  C  70  1  0.41038800  0.95613500  0.68162100  1
  C  71  1  0.38182950  0.89485350  0.70709100  1
  C  72  1  0.38996150  0.90699150  0.74684200  1
  C  73  1  0.41274550  0.97934250  0.75981900  1
  C  74  1  0.43675050  0.04100750  0.73565100  1
  C  75  1  0.44205850  0.02954450  0.69633100  1
  C  76  1  0.34258700  0.82307500  0.69148000  1
  C  78  1  0.47619650  0.08883050  0.67046100  1
  C  83  1  0.48513150  0.04543750  0.54845100  1
  C  84  1  0.45078350  0.10953250  0.75135100  1
  C  85  1  0.37943450  0.85420750  0.77505200  1
  C  86  1  0.29408200  0.79234900  0.57049000  1
  C  91  1  0.44182750  0.17330150  0.80947400  1
  C  93  1  0.44071250  0.20835750  0.87383100  1
  C  94  1  0.44342950  0.27407150  0.86223600  1
  C  96  1  0.44489750  0.23982550  0.79749000  1
  C  98  1  0.43967850  0.25930450  0.76006100  1
  C  105  1  0.61023150  0.42709050  0.14280900  1
  C  107  1  0.64649850  0.42832550  0.20715700  1
  C  108  1  0.70946650  0.42557450  0.19555200  1
  C  110  1  0.67367250  0.42400950  0.13081500  1
  C  112  1  0.69833800  0.42917000  0.09337300  1
  C  119  1  0.69558050  0.25865850  0.47611400  1
  C  121  1  0.66058450  0.22246750  0.54047700  1
  C  122  1  0.59487850  0.15945650  0.52889100  1
  C  124  1  0.62912350  0.19511150  0.46414300  1
  C  126  1  0.60956350  0.17063350  0.42668400  1
  C  133  1  0.37775500  0.73945800  0.79265500  1
  C  135  1  0.37441300  0.70026600  0.85659600  1
  C  136  1  0.37584550  0.63692650  0.84409000  1
  C  138  1  0.37865350  0.67551850  0.77976600  1
  C  140  1  0.38039150  0.65660950  0.74154400  1
  C  147  1  0.24049850  0.49123050  0.12599000  1
  C  149  1  0.20467600  0.49463300  0.18993000  1
  C  150  1  0.13993450  0.49325950  0.17742300  1
  C  152  1  0.17567200  0.49035300  0.11310000  1
  C  154  1  0.15501500  0.48858800  0.07487800  1
  C  161  1  0.12938150  0.62852250  0.45931700  1
  C  163  1  0.16857750  0.66433750  0.52326000  1
  C  164  1  0.23194300  0.72909100  0.51075900  1
  C  166  1  0.19331400  0.69337300  0.44643300  1
  C  168  1  0.21222450  0.71406450  0.40821700  1
  C  697  1  0.08170650  0.79862350  0.97488800  1
  C  698  1  0.05268850  0.84266850  0.96005300  1
  C  699  1  0.05430650  0.85549550  0.92042900  1
  C  700  1  0.07306700  0.81304800  0.89660300  1
  C  701  1  0.09493700  0.76293500  0.90986500  1
  C  702  1  0.10526750  0.76111450  0.94954700  1
  C  703  1  0.02375100  0.87313800  0.98598300  1
  C  704  1  0.14188250  0.72588450  0.96518500  1
  C  706  1  0.08903700  0.79393600  0.01495700  1
  C  707  1  0.05634050  0.82252650  0.04042500  1
  C  708  1  0.06038550  0.81444950  0.08017600  1
  C  709  1  0.10994700  0.79166100  0.09315600  1
  C  710  1  0.14754250  0.76757250  0.06899300  1
  C  711  1  0.13077650  0.76227150  0.02967300  1
  C  712  1  0.02372500  0.86169100  0.02481100  1
  C  714  1  0.15585250  0.72805250  0.00381100  1
  C  719  1  0.10366250  0.71922650  0.88177700  1
  C  720  1  0.20203750  0.75354750  0.08469400  1
  C  721  1  0.01811050  0.82495550  0.10838400  1
  C  722  1  0.04163600  0.91027600  0.90381600  1
  C  727  1  0.58934750  0.78720070  0.30820100  1
  C  728  1  0.66242700  0.81627320  0.29337300  1
  C  729  1  0.67366350  0.81471070  0.25374800  1
  C  730  1  0.61245800  0.79592020  0.22991800  1
  C  731  1  0.54045650  0.77398850  0.24317100  1
  C  732  1  0.52828850  0.76364650  0.28285200  1
  C  733  1  0.72182350  0.84518870  0.31930800  1
  C  734  1  0.45643950  0.72697250  0.29848000  1
  C  736  1  0.57731150  0.77986350  0.34826800  1
  C  737  1  0.63858000  0.81259420  0.37374400  1
  C  738  1  0.62643500  0.80860520  0.41349300  1
  C  739  1  0.55407850  0.75904850  0.42646700  1
  C  740  1  0.49242650  0.72136050  0.40229600  1
  C  741  1  0.50390100  0.73810300  0.36297200  1
  C  742  1  0.71035850  0.84512070  0.35813600  1
  C  744  1  0.44461850  0.71294450  0.33710200  1
  C  749  1  0.48803050  0.76521450  0.21507300  1
  C  750  1  0.42390850  0.66683650  0.41798800  1
  C  751  1  0.67920450  0.85088470  0.44170600  1
  C  752  1  0.74112450  0.82739670  0.23714300  1
  C  757  1  0.07024600  0.27954800  0.64155400  1
  C  758  1  0.02618600  0.20648720  0.62672100  1
  C  759  1  0.01338050  0.19526970  0.58709600  1
  C  760  1  0.05585850  0.25646650  0.56326800  1
  C  761  1  0.10596150  0.32845350  0.57653300  1
  C  762  1  0.10779250  0.34061050  0.61621400  1
  C  763  1  0.99567689  0.14708409  0.65265600  1
  C  764  1  0.14307400  0.41245600  0.63184500  1
  C  766  1  0.07494800  0.29157500  0.68162100  1
  C  767  1  0.04638950  0.23029370  0.70709100  1
  C  768  1  0.05452150  0.24243170  0.74684200  1
  C  769  1  0.07730550  0.31478250  0.75981900  1
  C  770  1  0.10131050  0.37644750  0.73565100  1
  C  771  1  0.10661850  0.36498450  0.69633100  1
  C  772  1  0.00714700  0.15851520  0.69148000  1
  C  774  1  0.14075650  0.42427050  0.67046100  1
  C  779  1  0.14969150  0.38087750  0.54845100  1
  C  780  1  0.11534350  0.44497250  0.75135100  1
  C  781  1  0.04399450  0.18964770  0.77505200  1
  C  782  1  0.95864190  0.12778910  0.57049000  1
  C  787  1  0.10638750  0.50874150  0.80947400  1
  C  789  1  0.10527250  0.54379750  0.87383100  1
  C  790  1  0.10798950  0.60951150  0.86223600  1
  C  792  1  0.10945750  0.57526550  0.79749000  1
  C  794  1  0.10423850  0.59474450  0.76006100  1
  C  801  1  0.27479150  0.76253050  0.14280900  1
  C  803  1  0.31105850  0.76376550  0.20715700  1
  C  804  1  0.37402650  0.76101450  0.19555200  1
  C  806  1  0.33823250  0.75944950  0.13081500  1
  C  808  1  0.36289800  0.76461000  0.09337300  1
  C  815  1  0.36014050  0.59409850  0.47611400  1
  C  817  1  0.32514450  0.55790750  0.54047700  1
  C  818  1  0.25943850  0.49489650  0.52889100  1
  C  820  1  0.29368350  0.53055150  0.46414300  1
  C  822  1  0.27412350  0.50607350  0.42668400  1
  C  829  1  0.04231500  0.07489820  0.79265500  1
  C  831  1  0.03897300  0.03570600  0.85659600  1
  C  832  1  0.04040550  0.97236650  0.84409000  1
  C  834  1  0.04321350  0.01095850  0.77976600  1
  C  836  1  0.04495150  0.99204950  0.74154400  1
  C  843  1  0.90505840  0.82667040  0.12599000  1
  C  845  1  0.86923590  0.83007290  0.18993000  1
  C  846  1  0.80449440  0.82869960  0.17742300  1
  C  848  1  0.84023190  0.82579290  0.11310000  1
  C  850  1  0.81957490  0.82402812  0.07487800  1
  C  857  1  0.79394150  0.96396270  0.45931700  1
  C  859  1  0.83313740  0.99977760  0.52326000  1
  C  860  1  0.89650290  0.06453110  0.51075900  1
  C  862  1  0.85787390  0.02881310  0.44643300  1
  C  864  1  0.87678440  0.04950460  0.40821700  1
  H  9  1  0.40541200  0.48287900  0.86805900  1
  H  17  1  0.45275900  0.45504000  0.12164000  1
  H  19  1  0.34035950  0.55310650  0.04148400  1
  H  20  1  0.33508600  0.56723100  0.97720400  1
  H  21  1  0.51854050  0.36610350  0.01248700  1
  H  22  1  0.50018250  0.36734450  0.94861200  1
  H  27  1  0.43546750  0.39558450  0.85408200  1
  H  28  1  0.56747900  0.40434600  0.06751200  1
  H  29  1  0.36502450  0.48591250  0.13612500  1
  H  30  1  0.37151350  0.61155650  0.92040800  1
  H  39  1  0.95626900  0.46356600  0.20137400  1
  H  47  1  0.88095900  0.41621600  0.45495400  1
  H  49  1  0.09148500  0.52874700  0.37481100  1
  H  50  1  0.11091400  0.53401500  0.31053400  1
  H  51  1  0.72629550  0.35031750  0.34577500  1
  H  52  1  0.74592350  0.36867850  0.28190000  1
  H  57  1  0.83888050  0.43346550  0.18737500  1
  H  58  1  0.71563100  0.30134600  0.40079400  1
  H  59  1  0.99955450  0.50397950  0.46944400  1
  H  60  1  0.11884750  0.49752650  0.25374000  1
  H  69  1  0.38604200  0.91266100  0.53472500  1
  H  77  1  0.41389050  0.98789150  0.78830500  1
  H  79  1  0.31583650  0.77742150  0.70816500  1
  H  80  1  0.30166350  0.75800350  0.64387500  1
  H  81  1  0.50275450  0.14259050  0.67913700  1
  H  82  1  0.50151450  0.12299150  0.61527600  1
  H  87  1  0.47338950  0.03002650  0.52074800  1
  H  88  1  0.46449850  0.15328250  0.73416900  1
  H  89  1  0.38305150  0.86928850  0.80279200  1
  H  90  1  0.25726150  0.75013350  0.58708200  1
  H  97  1  0.43825350  0.19510850  0.90170600  1
  H  101  1  0.34356050  0.16621850  0.74597600  1
  H  102  1  0.37573050  0.23268350  0.71333600  1
  H  111  1  0.63569650  0.43073750  0.23503600  1
  H  115  1  0.70147750  0.52536950  0.07934200  1
  H  116  1  0.73553650  0.49306650  0.04664400  1
  H  125  1  0.67379600  0.23332200  0.56835200  1
  H  129  1  0.70237850  0.16722750  0.41248100  1
  H  130  1  0.63570750  0.13295050  0.37994400  1
  H  139  1  0.37390700  0.71133400  0.88455500  1
  H  143  1  0.44887100  0.75828900  0.71911900  1
  H  144  1  0.41945450  0.68867350  0.68868600  1
  H  153  1  0.21622200  0.49509000  0.21788700  1
  H  157  1  0.18831650  0.42014050  0.05241600  1
  H  158  1  0.14809900  0.44957600  0.02201100  1
  H  167  1  0.15755050  0.65271750  0.55121700  1
  H  171  1  0.11047700  0.68063200  0.38571800  1
  H  172  1  0.18014450  0.72078950  0.35531900  1
  H  705  1  0.06997200  0.81831900  0.86805900  1
  H  713  1  0.11731900  0.79048000  0.12164000  1
  H  715  1  0.00491950  0.88854650  0.04148400  1
  H  716  1  0.99964589  0.90267089  0.97720400  1
  H  717  1  0.18310050  0.70154350  0.01248700  1
  H  718  1  0.16474250  0.70278450  0.94861200  1
  H  723  1  0.10002750  0.73102450  0.85408200  1
  H  724  1  0.23203900  0.73978600  0.06751200  1
  H  725  1  0.02958450  0.82135250  0.13612500  1
  H  726  1  0.03607350  0.94699650  0.92040800  1
  H  735  1  0.62082900  0.79900620  0.20137400  1
  H  743  1  0.54551900  0.75165600  0.45495400  1
  H  745  1  0.75604500  0.86418720  0.37481100  1
  H  746  1  0.77547400  0.86945520  0.31053400  1
  H  747  1  0.39085550  0.68575750  0.34577500  1
  H  748  1  0.41048350  0.70411850  0.28190000  1
  H  753  1  0.50344050  0.76890550  0.18737500  1
  H  754  1  0.38019100  0.63678600  0.40079400  1
  H  755  1  0.66411450  0.83941970  0.46944400  1
  H  756  1  0.78340750  0.83296670  0.25374000  1
  H  765  1  0.05060200  0.24810120  0.53472500  1
  H  773  1  0.07845050  0.32333150  0.78830500  1
  H  775  1  0.98039639  0.11286159  0.70816500  1
  H  776  1  0.96622340  0.09344360  0.64387500  1
  H  777  1  0.16731450  0.47803050  0.67913700  1
  H  778  1  0.16607450  0.45843150  0.61527600  1
  H  783  1  0.13794950  0.36546650  0.52074800  1
  H  784  1  0.12905850  0.48872250  0.73416900  1
  H  785  1  0.04761150  0.20472870  0.80279200  1
  H  786  1  0.92182140  0.08557360  0.58708200  1
  H  793  1  0.10281350  0.53054850  0.90170600  1
  H  797  1  0.00812050  0.50165850  0.74597600  1
  H  798  1  0.04029050  0.56812350  0.71333600  1
  H  807  1  0.30025650  0.76617750  0.23503600  1
  H  811  1  0.36603750  0.86080950  0.07934200  1
  H  812  1  0.40009650  0.82850650  0.04664400  1
  H  821  1  0.33835600  0.56876200  0.56835200  1
  H  825  1  0.36693850  0.50266770  0.41248100  1
  H  826  1  0.30026750  0.46839070  0.37994400  1
  H  835  1  0.03846700  0.04677422  0.88455500  1
  H  839  1  0.11343100  0.09372900  0.71911900  1
  H  840  1  0.08401450  0.02411350  0.68868600  1
  H  849  1  0.88078190  0.83052990  0.21788700  1
  H  853  1  0.85287640  0.75558040  0.05241600  1
  H  854  1  0.81265890  0.78501590  0.02201100  1
  H  863  1  0.82211040  0.98815760  0.55121700  1
  H  867  1  0.77503700  0.01607200  0.38571800  1
  H  868  1  0.84470440  0.05622940  0.35531900  1
  N  92  1  0.43961000  0.16111300  0.84721600  1
  N  95  1  0.44502050  0.28610950  0.82452100  1
  N  100  1  0.38144550  0.21524150  0.73781900  1
  N  103  1  0.44158050  0.11910450  0.78830000  1
  N  104  1  0.44100300  0.32075400  0.88800000  1
  N  106  1  0.60030950  0.42936350  0.18055200  1
  N  109  1  0.71986300  0.42391400  0.15783700  1
  N  114  1  0.71248300  0.48741000  0.07115100  1
  N  117  1  0.55627100  0.42733400  0.12164000  1
  N  118  1  0.75856950  0.42795350  0.22130700  1
  N  120  1  0.70777450  0.26864450  0.51385500  1
  N  123  1  0.58281650  0.14898750  0.49117900  1
  N  128  1  0.65342550  0.15636650  0.40434900  1
  N  131  1  0.74975450  0.31263850  0.45494000  1
  N  132  1  0.54817450  0.11037850  0.55466000  1
  N  134  1  0.37569250  0.74856250  0.83058200  1
  N  137  1  0.37760950  0.62792650  0.80633500  1
  N  142  1  0.41715950  0.70598850  0.71380400  1
  N  145  1  0.37868250  0.79003750  0.76833900  1
  N  146  1  0.37860550  0.58547550  0.86609400  1
  N  148  1  0.25166650  0.49329650  0.16391600  1
  N  151  1  0.12914700  0.49144400  0.13966800  1
  N  156  1  0.16743850  0.45162050  0.04717700  1
  N  159  1  0.29014100  0.49028300  0.10167200  1
  N  160  1  0.08570100  0.49045800  0.19942200  1
  N  162  1  0.12028400  0.61733200  0.49724400  1
  N  165  1  0.24092450  0.73989250  0.47300700  1
  N  170  1  0.16283750  0.70150350  0.38049000  1
  N  173  1  0.07880850  0.57887150  0.43499700  1
  N  174  1  0.28342200  0.78327100  0.53276700  1
  N  788  1  0.10417000  0.49655300  0.84721600  1
  N  791  1  0.10958050  0.62154950  0.82452100  1
  N  796  1  0.04600550  0.55068150  0.73781900  1
  N  799  1  0.10614050  0.45454450  0.78830000  1
  N  800  1  0.10556300  0.65619400  0.88800000  1
  N  802  1  0.26486950  0.76480350  0.18055200  1
  N  805  1  0.38442300  0.75935400  0.15783700  1
  N  810  1  0.37704300  0.82285000  0.07115100  1
  N  813  1  0.22083100  0.76277400  0.12164000  1
  N  814  1  0.42312950  0.76339350  0.22130700  1
  N  816  1  0.37233450  0.60408450  0.51385500  1
  N  819  1  0.24737650  0.48442750  0.49117900  1
  N  824  1  0.31798550  0.49180670  0.40434900  1
  N  827  1  0.41431450  0.64807850  0.45494000  1
  N  828  1  0.21273450  0.44581850  0.55466000  1
  N  830  1  0.04025250  0.08400270  0.83058200  1
  N  833  1  0.04216950  0.96336650  0.80633500  1
  N  838  1  0.08171950  0.04142850  0.71380400  1
  N  841  1  0.04324250  0.12547770  0.76833900  1
  N  842  1  0.04316550  0.92091550  0.86609400  1
  N  844  1  0.91622640  0.82873640  0.16391600  1
  N  847  1  0.79370700  0.82688420  0.13966800  1
  N  852  1  0.83199840  0.78706040  0.04717700  1
  N  855  1  0.95470090  0.82572290  0.10167200  1
  N  856  1  0.75026100  0.82589820  0.19942200  1
  N  858  1  0.78484400  0.95277220  0.49724400  1
  N  861  1  0.90548440  0.07533260  0.47300700  1
  N  866  1  0.82739740  0.03694340  0.38049000  1
  N  869  1  0.74336850  0.91431170  0.43499700  1
  N  870  1  0.94798190  0.11871110  0.53276700  1
  O  99  1  0.48296550  0.33066750  0.74940500  1
  O  113  1  0.72596750  0.38549750  0.08273400  1
  O  127  1  0.53806650  0.14247250  0.41624800  1
  O  141  1  0.34887500  0.58399200  0.73258300  1
  O  155  1  0.11395400  0.52014100  0.06590300  1
  O  169  1  0.28485250  0.75499250  0.39924800  1
  O  795  1  0.14752550  0.66610750  0.74940500  1
  O  809  1  0.39052750  0.72093750  0.08273400  1
  O  823  1  0.20262650  0.47791250  0.41624800  1
  O  837  1  0.01343500  0.91943200  0.73258300  1
  O  851  1  0.77851400  0.85558120  0.06590300  1
  O  865  1  0.94941240  0.09043260  0.39924800  1
