# generated using pymatgen
data_Cd3H12(C9O4)4
_symmetry_space_group_name_H-M   'P 1'
_cell_length_a   9.94176000
_cell_length_b   10.50647000
_cell_length_c   13.48083000
_cell_angle_alpha   68.17659000
_cell_angle_beta   68.91336000
_cell_angle_gamma   77.65409000
_symmetry_Int_Tables_number   1
_chemical_formula_structural   Cd3H12(C9O4)4
_chemical_formula_sum   'Cd3 H12 C36 O16'
_cell_volume   1214.44166702
_cell_formula_units_Z   1
loop_
 _symmetry_equiv_pos_site_id
 _symmetry_equiv_pos_as_xyz
  1  'x, y, z'
loop_
 _atom_site_type_symbol
 _atom_site_label
 _atom_site_symmetry_multiplicity
 _atom_site_fract_x
 _atom_site_fract_y
 _atom_site_fract_z
 _atom_site_occupancy
  Cd  Cd0  1  0.01146000  0.31725000  0.75763000  1
  Cd  Cd1  1  0.98854000  0.68275000  0.24237000  1
  Cd  Cd2  1  0.00000000  0.00000000  0.00000000  1
  H  H3  1  0.52863000  0.26839000  0.80144000  1
  H  H4  1  0.56340000  0.10214000  0.13629000  1
  H  H5  1  0.15110000  0.13522000  0.08403000  1
  H  H6  1  0.02189000  0.75959000  0.78143000  1
  H  H7  1  0.13858000  0.74097000  0.44695000  1
  H  H8  1  0.19365000  0.10877000  0.49909000  1
  H  H9  1  0.47136000  0.73161000  0.19856000  1
  H  H10  1  0.43660000  0.89786000  0.86371000  1
  H  H11  1  0.84890000  0.86478000  0.91598000  1
  H  H12  1  0.97812000  0.24041000  0.21857000  1
  H  H13  1  0.86142000  0.25903000  0.55305000  1
  H  H14  1  0.80635000  0.89123000  0.50091000  1
  C  C15  1  0.33087000  0.20521000  0.93498000  1
  C  C16  1  0.47928000  0.22434000  0.89169000  1
  C  C17  1  0.56288000  0.18497000  0.96477000  1
  C  C18  1  0.49746000  0.13266000  0.08063000  1
  C  C19  1  0.34837000  0.11381000  0.12428000  1
  C  C20  1  0.26584000  0.14965000  0.05025000  1
  C  C21  1  0.24009000  0.24619000  0.85814000  1
  C  C22  1  0.72441000  0.19328000  0.92201000  1
  C  C23  1  0.28415000  0.05321000  0.24068000  1
  C  C24  1  0.23208000  0.99582000  0.34227000  1
  C  C25  1  0.10270000  0.94423000  0.64797000  1
  C  C26  1  0.06295000  0.80904000  0.69106000  1
  C  C27  1  0.07758000  0.73555000  0.61843000  1
  C  C28  1  0.12958000  0.79745000  0.50267000  1
  C  C29  1  0.17518000  0.93226000  0.45847000  1
  C  C30  1  0.16177000  0.00452000  0.53263000  1
  C  C31  1  0.07524000  0.02729000  0.72500000  1
  C  C32  1  0.04104000  0.58944000  0.66638000  1
  C  C33  1  0.66912000  0.79479000  0.06502000  1
  C  C34  1  0.52072000  0.77566000  0.10831000  1
  C  C35  1  0.43711000  0.81503000  0.03523000  1
  C  C36  1  0.50254000  0.86734000  0.91938000  1
  C  C37  1  0.65162000  0.88619000  0.87572000  1
  C  C38  1  0.73416000  0.85035000  0.94975000  1
  C  C39  1  0.75990000  0.75380000  0.14186000  1
  C  C40  1  0.27559000  0.80672000  0.07799000  1
  C  C41  1  0.71583000  0.94678000  0.75934000  1
  C  C42  1  0.76792000  0.00419000  0.65772000  1
  C  C43  1  0.89730000  0.05577000  0.35203000  1
  C  C44  1  0.93706000  0.19095000  0.30894000  1
  C  C45  1  0.92242000  0.26445000  0.38157000  1
  C  C46  1  0.87041000  0.20255000  0.49733000  1
  C  C47  1  0.82481000  0.06774000  0.54153000  1
  C  C48  1  0.83823000  0.99548000  0.46738000  1
  C  C49  1  0.92476000  0.97271000  0.27500000  1
  C  C50  1  0.95899000  0.41055000  0.33362000  1
  O  O51  1  0.10872000  0.20770000  0.90215000  1
  O  O52  1  0.28762000  0.31755000  0.75765000  1
  O  O53  1  0.77935000  0.26119000  0.81872000  1
  O  O54  1  0.79092000  0.13168000  0.99415000  1
  O  O55  1  0.08792000  0.15549000  0.67474000  1
  O  O56  1  0.04056000  0.96295000  0.82957000  1
  O  O57  1  0.98792000  0.53738000  0.77298000  1
  O  O58  1  0.06645000  0.51957000  0.60092000  1
  O  O59  1  0.89128000  0.79229000  0.09785000  1
  O  O60  1  0.71238000  0.68244000  0.24235000  1
  O  O61  1  0.22066000  0.73880000  0.18128000  1
  O  O62  1  0.20907000  0.86832000  0.00585000  1
  O  O63  1  0.91207000  0.84450000  0.32526000  1
  O  O64  1  0.95944000  0.03704000  0.17043000  1
  O  O65  1  0.01218000  0.46260000  0.22702000  1
  O  O66  1  0.93354000  0.48043000  0.39908000  1
