# generated using pymatgen
data_H7C11NO
_symmetry_space_group_name_H-M   'P 1'
_cell_length_a   9.99913333
_cell_length_b   61.40325000
_cell_length_c   61.40320000
_cell_angle_alpha   119.99991919
_cell_angle_beta   90.00000000
_cell_angle_gamma   90.00000000
_symmetry_Int_Tables_number   1
_chemical_formula_structural   H7C11NO
_chemical_formula_sum   'H126 C198 N18 O18'
_cell_volume   32649.43784815
_cell_formula_units_Z   18
loop_
 _symmetry_equiv_pos_site_id
 _symmetry_equiv_pos_as_xyz
  1  'x, y, z'
loop_
 _atom_site_type_symbol
 _atom_site_label
 _atom_site_symmetry_multiplicity
 _atom_site_fract_x
 _atom_site_fract_y
 _atom_site_fract_z
 _atom_site_occupancy
  C  1  1  0.00612600  0.82586100  0.43855000  1
  C  2  1  0.99225600  0.85225100  0.45170500  1
  C  3  1  0.99134100  0.86609800  0.43888600  1
  C  4  1  0.00024100  0.85259300  0.41225900  1
  C  5  1  0.01294600  0.82613800  0.39862700  1
  C  6  1  0.01626600  0.81307500  0.41210600  1
  C  7  1  0.98754400  0.89299700  0.45240900  1
  C  8  1  0.06472600  0.90701600  0.47446900  1
  C  9  1  0.06632500  0.93344400  0.48717700  1
  C  10  1  0.99283600  0.94690000  0.47805000  1
  C  11  1  0.91257300  0.93299500  0.45644000  1
  C  12  1  0.91031800  0.90655200  0.44382500  1
  C  13  1  0.01218100  0.81189000  0.45117000  1
  C  14  1  0.89565200  0.80752200  0.46139600  1
  C  15  1  0.89596800  0.78942300  0.46909800  1
  C  16  1  0.01289700  0.77553100  0.46721100  1
  C  17  1  0.13084600  0.78100900  0.45807000  1
  C  18  1  0.13030100  0.79875400  0.44998800  1
  C  19  1  0.01979700  0.81249200  0.37189800  1
  C  20  1  0.12101600  0.79431400  0.35952400  1
  C  21  1  0.11691600  0.77805600  0.33337800  1
  C  22  1  0.01044200  0.77925500  0.31884800  1
  C  23  1  0.91292900  0.79827200  0.33102000  1
  C  24  1  0.91792500  0.81478700  0.35719000  1
  C  40  1  0.00581600  0.61254400  0.17410000  1
  C  41  1  0.99206600  0.59930900  0.14770900  1
  C  42  1  0.99154600  0.57264400  0.13385800  1
  C  43  1  0.00073100  0.55952000  0.14735600  1
  C  44  1  0.01336100  0.57234300  0.17381300  1
  C  45  1  0.01628700  0.59888700  0.18688300  1
  C  46  1  0.98782000  0.55927200  0.10695900  1
  C  47  1  0.06488500  0.56734700  0.09295500  1
  C  48  1  0.06650100  0.55364300  0.06652700  1
  C  49  1  0.99314100  0.53104600  0.05305400  1
  C  50  1  0.91304000  0.52330400  0.06694800  1
  C  51  1  0.91078900  0.53711100  0.09339200  1
  C  52  1  0.01152500  0.63913700  0.18807400  1
  C  53  1  0.89473700  0.65367900  0.19248600  1
  C  54  1  0.89481700  0.67947700  0.21059100  1
  C  55  1  0.01174600  0.69153100  0.22445200  1
  C  56  1  0.12994000  0.67696600  0.21892900  1
  C  57  1  0.12962600  0.65114200  0.20118000  1
  C  58  1  0.02054700  0.55926000  0.18745400  1
  C  59  1  0.12184000  0.56508100  0.20562200  1
  C  60  1  0.11780000  0.55522100  0.22188767  1
  C  61  1  0.01164000  0.53942300  0.22067600  1
  C  62  1  0.91418800  0.53252600  0.20164000  1
  C  63  1  0.91883000  0.54223200  0.18516500  1
  C  79  1  0.00628500  0.56141500  0.38735900  1
  C  80  1  0.99222000  0.54823800  0.40056800  1
  C  81  1  0.99131100  0.56102800  0.42723200  1
  C  82  1  0.00028100  0.58765500  0.44038300  1
  C  83  1  0.01315000  0.60131100  0.42758800  1
  C  84  1  0.01658200  0.58785700  0.40104500  1
  C  85  1  0.98745500  0.54747200  0.44057700  1
  C  86  1  0.06459000  0.52540000  0.43250200  1
  C  87  1  0.06621700  0.51266600  0.44619500  1
  C  88  1  0.99270100  0.52175700  0.46877100  1
  C  89  1  0.91242700  0.54336900  0.47649900  1
  C  90  1  0.91023800  0.55602900  0.46271300  1
  C  91  1  0.01236200  0.54881700  0.36076200  1
  C  92  1  0.89601300  0.53844400  0.34615600  1
  C  93  1  0.89626600  0.53073800  0.32035400  1
  C  94  1  0.01300600  0.53270400  0.30835700  1
  C  95  1  0.13083200  0.54198400  0.32299500  1
  C  96  1  0.13035100  0.55008400  0.34882400  1
  C  97  1  0.02021300  0.62803500  0.44068900  1
  C  98  1  0.12177600  0.64040100  0.43495300  1
  C  99  1  0.11781100  0.66654700  0.44483100  1
  C  100  1  0.01117000  0.68109400  0.46049300  1
  C  101  1  0.91341900  0.66893800  0.46731200  1
  C  102  1  0.91810000  0.64275800  0.45761400  1
  C  118  1  0.00884200  0.17294600  0.56333500  1
  C  119  1  0.99411500  0.14658200  0.55101600  1
  C  120  1  0.99074000  0.13378500  0.56484200  1
  C  121  1  0.99763600  0.14805600  0.59143200  1
  C  122  1  0.01122100  0.17448600  0.60419800  1
  C  123  1  0.01714100  0.18661700  0.58982300  1
  C  124  1  0.98617500  0.10703200  0.55228500  1
  C  125  1  0.89128600  0.09323600  0.53319300  1
  C  126  1  0.88823500  0.06678800  0.52084000  1
  C  127  1  0.98127400  0.05319600  0.52685200  1
  C  128  1  0.07724200  0.06710700  0.54574100  1
  C  129  1  0.07911300  0.09352100  0.55834700  1
  C  130  1  0.01597100  0.18611100  0.54990000  1
  C  131  1  0.89979200  0.18998300  0.53921800  1
  C  132  1  0.89970800  0.20776100  0.53110500  1
  C  133  1  0.01583700  0.22187500  0.53309800  1
  C  134  1  0.13375600  0.21683400  0.54261700  1
  C  135  1  0.13354000  0.19940200  0.55110300  1
  C  136  1  0.01712700  0.18896900  0.63090700  1
  C  137  1  0.11909000  0.20708300  0.64288500  1
  C  138  1  0.11580000  0.22380700  0.66894300  1
  C  139  1  0.00954500  0.22313500  0.68380100  1
  C  140  1  0.91099300  0.20424500  0.67203800  1
  C  141  1  0.91505400  0.18729500  0.64595100  1
  C  157  1  0.00835100  0.39036100  0.82700100  1
  C  158  1  0.99370500  0.40439600  0.85336900  1
  C  159  1  0.99029600  0.43101700  0.86617200  1
  C  160  1  0.99697200  0.44334400  0.85190600  1
  C  161  1  0.01041200  0.42969000  0.82547200  1
  C  162  1  0.01642100  0.40318500  0.81333400  1
  C  163  1  0.98587600  0.44520500  0.89292500  1
  C  164  1  0.89109600  0.43990300  0.90673100  1
  C  165  1  0.88818700  0.45399000  0.93318100  1
  C  166  1  0.98115000  0.47361300  0.94676200  1
  C  167  1  0.07701700  0.47859600  0.93283800  1
  C  168  1  0.07877200  0.46478900  0.90642200  1
  C  169  1  0.01566200  0.36376400  0.81382700  1
  C  170  1  0.89948300  0.34918600  0.80985400  1
  C  171  1  0.89967700  0.32329900  0.79205500  1
  C  172  1  0.01603100  0.31120700  0.77800300  1
  C  173  1  0.13379300  0.32581900  0.78311300  1
  C  174  1  0.13346700  0.35171800  0.80061500  1
  C  175  1  0.01614600  0.44192800  0.81099900  1
  C  176  1  0.11788100  0.43578300  0.79284100  1
  C  177  1  0.11439600  0.44514600  0.77614000  1
  C  178  1  0.00825200  0.46073600  0.77690100  1
  C  179  1  0.91001000  0.46789000  0.79584700  1
  C  180  1  0.91414000  0.45868800  0.81274300  1
  C  196  1  0.00805700  0.43647700  0.60957700  1
  C  197  1  0.99347100  0.44882000  0.59555100  1
  C  198  1  0.99037500  0.43501900  0.56892800  1
  C  199  1  0.99727600  0.40842700  0.55658700  1
  C  200  1  0.01065100  0.39563400  0.57023000  1
  C  201  1  0.01637100  0.40998700  0.59673800  1
  C  202  1  0.98600400  0.44759300  0.55474700  1
  C  203  1  0.89106200  0.46666900  0.56001500  1
  C  204  1  0.88815100  0.47902900  0.54592600  1
  C  205  1  0.98122400  0.47301100  0.52632600  1
  C  206  1  0.07728300  0.45414600  0.52138500  1
  C  207  1  0.07905300  0.44153900  0.53519300  1
  C  208  1  0.01505700  0.44988600  0.63617700  1
  C  209  1  0.89878600  0.46051900  0.65071900  1
  C  210  1  0.89868700  0.46863200  0.67661000  1
  C  211  1  0.01487200  0.46669400  0.68875500  1
  C  212  1  0.13273000  0.45715400  0.67418300  1
  C  213  1  0.13259200  0.44868200  0.64826900  1
  C  214  1  0.01654100  0.36892500  0.55797400  1
  C  215  1  0.11827000  0.35692300  0.56413600  1
  C  216  1  0.11502600  0.33085100  0.55473500  1
  C  217  1  0.00890600  0.31601200  0.53914300  1
  C  218  1  0.91056300  0.32779900  0.53200500  1
  C  219  1  0.91463900  0.35389300  0.54119500  1
  C  235  1  0.99656100  0.97365200  0.49032200  1
  C  237  1  0.86637900  0.01129700  0.50477400  1
  C  238  1  0.98184000  0.02641000  0.51424600  1
  C  240  1  0.11363000  0.98866200  0.49962200  1
  C  242  1  0.24125200  0.97905900  0.49623600  1
  C  245  1  0.35944600  0.95173700  0.46040700  1
  C  249  1  0.99673600  0.51660400  0.02630100  1
  C  251  1  0.86640500  0.49343800  0.98867200  1
  C  252  1  0.98180600  0.48779500  0.97354500  1
  C  254  1  0.11374100  0.51092900  0.01127800  1
  C  256  1  0.24155600  0.51715700  0.02091100  1
  C  259  1  0.36237700  0.50852800  0.04785400  1
  C  263  1  0.99641100  0.50945300  0.48322300  1
  C  265  1  0.86627500  0.49502400  0.50644300  1
  C  266  1  0.98176400  0.48558800  0.51211800  1
  C  268  1  0.11347400  0.50014900  0.48893100  1
  C  270  1  0.24112100  0.50352300  0.48267300  1
  C  273  1  0.36232100  0.53895100  0.49105900  1
  C  277  1  0.99695600  0.75983900  0.29337500  1
  C  279  1  0.11548500  0.73279000  0.25525900  1
  C  280  1  0.00552500  0.71617000  0.24587000  1
  C  282  1  0.88275200  0.74407000  0.28357700  1
  C  284  1  0.76837600  0.74687000  0.29728700  1
  C  287  1  0.55685900  0.76194100  0.29690100  1
  C  291  1  0.99834200  0.53333200  0.24007200  1
  C  293  1  0.11709000  0.52229600  0.26712200  1
  C  294  1  0.00694100  0.52940100  0.28368800  1
  C  296  1  0.88393600  0.53916700  0.25577000  1
  C  298  1  0.76954700  0.55012200  0.25304200  1
  C  301  1  0.55790800  0.53474600  0.23797500  1
  C  305  1  0.99805600  0.70657800  0.46655300  1
  C  307  1  0.11703600  0.74462900  0.47751200  1
  C  308  1  0.00682600  0.75414600  0.47048600  1
  C  310  1  0.88359700  0.71647800  0.46076400  1
  C  312  1  0.76862100  0.70284600  0.44992100  1
  C  315  1  0.55694800  0.70367600  0.46548700  1
  C  319  1  0.99803600  0.24278700  0.70921800  1
  C  321  1  0.11899100  0.26991800  0.74700500  1
  C  322  1  0.00914600  0.28653200  0.75666100  1
  C  324  1  0.88419600  0.25862500  0.71924600  1
  C  326  1  0.76820100  0.25579400  0.70588700  1
  C  329  1  0.55682400  0.24157800  0.70767500  1
  C  333  1  0.99645100  0.46655900  0.75729500  1
  C  335  1  0.11740100  0.47715700  0.73011400  1
  C  336  1  0.00769600  0.47009400  0.71345400  1
  C  338  1  0.88269700  0.46069900  0.74143600  1
  C  340  1  0.76723200  0.45006600  0.74425500  1
  C  343  1  0.55626300  0.46624100  0.75883000  1
  C  347  1  0.99721600  0.29057400  0.53330000  1
  C  349  1  0.11832500  0.25280400  0.52267200  1
  C  350  1  0.00863700  0.24318500  0.52971400  1
  C  352  1  0.88335800  0.28053000  0.53907500  1
  C  354  1  0.76796500  0.29396900  0.54978000  1
  C  357  1  0.55677300  0.29250100  0.53373800  1
  H  25  1  0.80778500  0.78564600  0.47501900  1
  H  26  1  0.80735400  0.81602100  0.46151200  1
  H  27  1  0.21598400  0.77066400  0.45511600  1
  H  28  1  0.21495700  0.80095500  0.44189100  1
  H  29  1  0.19587800  0.79205100  0.36959900  1
  H  30  1  0.18765800  0.76418500  0.32535900  1
  H  31  1  0.84124800  0.82729500  0.36560200  1
  H  32  1  0.83443800  0.79961600  0.32106800  1
  H  33  1  0.85115900  0.89727400  0.42821500  1
  H  34  1  0.85712600  0.94199100  0.44928600  1
  H  35  1  0.12215000  0.94273300  0.50322400  1
  H  36  1  0.12361100  0.89811800  0.48126000  1
  H  37  1  0.98442500  0.86144000  0.47090200  1
  H  38  1  0.02327700  0.79383300  0.40248100  1
  H  39  1  0.00299500  0.86216600  0.40258300  1
  H  64  1  0.80646900  0.68913200  0.21442000  1
  H  65  1  0.80645900  0.64525400  0.18401600  1
  H  66  1  0.21503300  0.68439800  0.22927500  1
  H  67  1  0.21445900  0.64088100  0.19895400  1
  H  68  1  0.19641700  0.57748300  0.20792200  1
  H  69  1  0.18859100  0.56108700  0.23577100  1
  H  70  1  0.84221300  0.53808500  0.17263500  1
  H  71  1  0.83580200  0.52120800  0.20029100  1
  H  72  1  0.85172800  0.53075400  0.10266000  1
  H  73  1  0.85768300  0.50714300  0.05794200  1
  H  74  1  0.12218000  0.56043200  0.05724700  1
  H  75  1  0.12363100  0.58305500  0.10186300  1
  H  76  1  0.98402500  0.60931600  0.13852300  1
  H  77  1  0.02326200  0.60850400  0.20612600  1
  H  78  1  0.00376100  0.54027100  0.13777900  1
  H  103  1  0.80823500  0.52469100  0.31062500  1
  H  104  1  0.80783500  0.53824400  0.35453000  1
  H  105  1  0.21570700  0.54502400  0.31560000  1
  H  106  1  0.21479900  0.55830600  0.35913400  1
  H  107  1  0.19659200  0.63031000  0.42261000  1
  H  108  1  0.18863600  0.67453700  0.43896300  1
  H  109  1  0.84141700  0.63436400  0.46173200  1
  H  110  1  0.83487700  0.67889700  0.47858500  1
  H  111  1  0.85112300  0.57164700  0.46907000  1
  H  112  1  0.85703400  0.55051400  0.49265400  1
  H  113  1  0.12202100  0.49661200  0.43941200  1
  H  114  1  0.12356300  0.51863800  0.41682600  1
  H  115  1  0.98435500  0.52904300  0.39054000  1
  H  116  1  0.02367700  0.59750200  0.39144900  1
  H  117  1  0.00300600  0.59731300  0.45963400  1
  H  142  1  0.81162000  0.21122100  0.52489000  1
  H  143  1  0.81181500  0.18137100  0.53905800  1
  H  144  1  0.21796000  0.22746500  0.54578700  1
  H  145  1  0.21761000  0.19770200  0.55966900  1
  H  146  1  0.19439800  0.20886100  0.63258000  1
  H  147  1  0.18757100  0.23751200  0.67666500  1
  H  148  1  0.83815800  0.17476900  0.63784000  1
  H  149  1  0.83281800  0.20321400  0.68223400  1
  H  150  1  0.15098800  0.10279400  0.57173000  1
  H  151  1  0.14630200  0.05815300  0.55082200  1
  H  152  1  0.81913400  0.05757700  0.50690100  1
  H  153  1  0.82228600  0.10236300  0.52831400  1
  H  154  1  0.99175600  0.13658000  0.53175800  1
  H  155  1  0.02453700  0.20584100  0.59882300  1
  H  156  1  0.99424500  0.13906300  0.60168300  1
  H  181  1  0.81162100  0.31360300  0.78853600  1
  H  182  1  0.81136400  0.35761200  0.81841300  1
  H  183  1  0.21835900  0.31836300  0.77259600  1
  H  184  1  0.21757100  0.36200400  0.80239400  1
  H  185  1  0.19308800  0.42366100  0.79100400  1
  H  186  1  0.18594700  0.43914800  0.76239700  1
  H  187  1  0.83744700  0.46311500  0.82531100  1
  H  188  1  0.83180700  0.47912400  0.79691200  1
  H  189  1  0.15060300  0.46889800  0.89714000  1
  H  190  1  0.14605300  0.49263500  0.94178100  1
  H  191  1  0.81907600  0.44927400  0.94240100  1
  H  192  1  0.82209500  0.42589500  0.89761400  1
  H  193  1  0.99161600  0.39513900  0.86336800  1
  H  194  1  0.02375700  0.39296400  0.79410900  1
  H  195  1  0.99357500  0.46258700  0.86090600  1
  H  220  1  0.81057000  0.47483600  0.68628200  1
  H  221  1  0.81080600  0.46066700  0.64226200  1
  H  222  1  0.21719400  0.45411400  0.68168200  1
  H  223  1  0.21688500  0.44022400  0.63802500  1
  H  224  1  0.19336700  0.36722300  0.57628400  1
  H  225  1  0.18647600  0.32312800  0.56077500  1
  H  226  1  0.83794800  0.36202200  0.53675400  1
  H  227  1  0.83251800  0.31761000  0.52072900  1
  H  228  1  0.15098200  0.42817000  0.53110500  1
  H  229  1  0.14637200  0.44905800  0.50735400  1
  H  230  1  0.81890500  0.49293900  0.55061800  1
  H  231  1  0.82198100  0.47154400  0.57400800  1
  H  232  1  0.99121000  0.46807700  0.60481900  1
  H  233  1  0.02363700  0.40097100  0.60694800  1
  H  234  1  0.99407500  0.39819400  0.53734200  1
  H  241  1  0.77327100  0.01891300  0.50681400  1
  H  246  1  0.40962000  0.95139200  0.44447600  1
  H  247  1  0.28140500  0.93734400  0.45304900  1
  H  248  1  0.43339700  0.94720100  0.47065900  1
  H  255  1  0.77330000  0.48782100  0.98107100  1
  H  260  1  0.41046500  0.49277900  0.04821400  1
  H  261  1  0.28721000  0.51635100  0.06277600  1
  H  262  1  0.43883800  0.52271500  0.05159500  1
  H  269  1  0.77319800  0.49303400  0.51206600  1
  H  274  1  0.41434600  0.55465100  0.50656000  1
  H  275  1  0.28446000  0.54665300  0.48434100  1
  H  276  1  0.43485200  0.52853800  0.47603300  1
  H  283  1  0.20369200  0.72901100  0.24565200  1
  H  288  1  0.46582600  0.75635600  0.28561600  1
  H  289  1  0.59391100  0.77922300  0.29801200  1
  H  290  1  0.53112600  0.76559300  0.31574500  1
  H  297  1  0.20549300  0.51658500  0.27096600  1
  H  302  1  0.46691000  0.52900400  0.24352700  1
  H  303  1  0.59482600  0.51863000  0.22063400  1
  H  304  1  0.53215700  0.55001600  0.23443900  1
  H  311  1  0.20536300  0.75420200  0.48329200  1
  H  316  1  0.46693500  0.71524700  0.47140300  1
  H  317  1  0.59345200  0.70218600  0.48147800  1
  H  318  1  0.52967600  0.68500900  0.45014300  1
  H  325  1  0.20778300  0.27368700  0.75643400  1
  H  330  1  0.46634000  0.24784600  0.71909700  1
  H  331  1  0.59352200  0.22477500  0.70762000  1
  H  332  1  0.53026200  0.23683300  0.68851900  1
  H  339  1  0.20630700  0.48275300  0.72631300  1
  H  344  1  0.46599100  0.47172200  0.75281500  1
  H  345  1  0.59367500  0.48274500  0.77578300  1
  H  346  1  0.52912700  0.45161100  0.76322700  1
  H  353  1  0.20732400  0.24343900  0.51712600  1
  H  358  1  0.46650600  0.28100500  0.52821700  1
  H  359  1  0.59395700  0.29309200  0.51729500  1
  H  360  1  0.52971100  0.31148400  0.54847700  1
  N  236  1  0.87856700  0.98596000  0.49346800  1
  N  239  1  0.09963400  0.01404500  0.51089200  1
  N  250  1  0.87870600  0.50743900  0.01400800  1
  N  253  1  0.09962900  0.49681100  0.98589500  1
  N  264  1  0.87844600  0.50632500  0.49240900  1
  N  267  1  0.09953400  0.48892300  0.50308600  1
  N  278  1  0.10782900  0.75327100  0.27856300  1
  N  281  1  0.89483800  0.72287900  0.26072500  1
  N  292  1  0.10940500  0.52516600  0.24667000  1
  N  295  1  0.89615900  0.53751000  0.27696300  1
  N  306  1  0.10918000  0.72133000  0.47469100  1
  N  309  1  0.89596700  0.73933000  0.46242600  1
  N  320  1  0.10991400  0.24936500  0.72377600  1
  N  323  1  0.89748300  0.27982200  0.74205600  1
  N  334  1  0.10833400  0.47450700  0.75068200  1
  N  337  1  0.89606300  0.46221200  0.72018400  1
  N  348  1  0.10920400  0.27604200  0.52536700  1
  N  351  1  0.89691300  0.25777100  0.53757400  1
  O  243  1  0.31211300  0.98760800  0.51497400  1
  O  244  1  0.30412600  0.97645400  0.47584700  1
  O  257  1  0.31085700  0.52745000  0.01227300  1
  O  258  1  0.30270100  0.49921600  0.02346800  1
  O  271  1  0.30845600  0.48435600  0.47176200  1
  O  272  1  0.30642100  0.52355400  0.50033700  1
  O  285  1  0.77559800  0.73886000  0.31191900  1
  O  286  1  0.65211100  0.74179000  0.28487300  1
  O  299  1  0.77678800  0.57277800  0.26113000  1
  O  300  1  0.65330500  0.54275000  0.25808700  1
  O  313  1  0.77704100  0.68821100  0.42730700  1
  O  314  1  0.65362200  0.71562500  0.45753800  1
  O  327  1  0.77719700  0.26298700  0.69060800  1
  O  328  1  0.65287700  0.26168900  0.71858400  1
  O  341  1  0.77361800  0.42751200  0.73675400  1
  O  342  1  0.65193700  0.45723600  0.73866400  1
  O  355  1  0.77448300  0.30893800  0.57235400  1
  O  356  1  0.65264500  0.28121900  0.54257800  1
