# generated using pymatgen
data_SrH2C6SO4
_symmetry_space_group_name_H-M   'P 1'
_cell_length_a   6.42546000
_cell_length_b   10.59466000
_cell_length_c   18.48362000
_cell_angle_alpha   89.76912000
_cell_angle_beta   95.61340000
_cell_angle_gamma   89.65338000
_symmetry_Int_Tables_number   1
_chemical_formula_structural   SrH2C6SO4
_chemical_formula_sum   'Sr4 H8 C24 S4 O16'
_cell_volume   1252.21240870
_cell_formula_units_Z   4
loop_
 _symmetry_equiv_pos_site_id
 _symmetry_equiv_pos_as_xyz
  1  'x, y, z'
loop_
 _atom_site_type_symbol
 _atom_site_label
 _atom_site_symmetry_multiplicity
 _atom_site_fract_x
 _atom_site_fract_y
 _atom_site_fract_z
 _atom_site_occupancy
  Sr  Sr1  1  0.24949000  0.10235000  0.99435000  1.0
  Sr  Sr2  1  0.25250000  0.59992000  0.50611000  1.0
  Sr  Sr3  1  0.75051000  0.89765000  0.00565000  1.0
  Sr  Sr4  1  0.74751000  0.40008000  0.49389000  1.0
  H  H1  1  0.85453000  0.36228000  0.16858000  1.0
  H  H2  1  0.86123000  0.44207000  0.30549000  1.0
  H  H3  1  0.65572000  0.85805000  0.32868000  1.0
  H  H4  1  0.63582000  0.94379000  0.19195000  1.0
  H  H5  1  0.14547000  0.63772000  0.83142000  1.0
  H  H6  1  0.13878000  0.55793000  0.69451000  1.0
  H  H7  1  0.34429000  0.14195000  0.67132000  1.0
  H  H8  1  0.36418000  0.05621000  0.80805000  1.0
  C  C1  1  0.15771000  0.27774000  0.19880000  1.0
  C  C2  1  0.97854000  0.34427000  0.21169000  1.0
  C  C3  1  0.98061000  0.38331000  0.28459000  1.0
  C  C4  1  0.16346000  0.34674000  0.32620000  1.0
  C  C5  1  0.22447000  0.38432000  0.40133000  1.0
  C  C6  1  0.20569000  0.22397000  0.12854000  1.0
  C  C7  1  0.35251000  0.77450000  0.30060000  1.0
  C  C8  1  0.52896000  0.84172000  0.28652000  1.0
  C  C9  1  0.52056000  0.88356000  0.21375000  1.0
  C  C10  1  0.33631000  0.84808000  0.17328000  1.0
  C  C11  1  0.27419000  0.88475000  0.09778000  1.0
  C  C12  1  0.30961000  0.71818000  0.37111000  1.0
  C  C13  1  0.84229000  0.72226000  0.80120000  1.0
  C  C14  1  0.02146000  0.65573000  0.78831000  1.0
  C  C15  1  0.01939000  0.61669000  0.71541000  1.0
  C  C16  1  0.83654000  0.65326000  0.67379000  1.0
  C  C17  1  0.77554000  0.61568000  0.59867000  1.0
  C  C18  1  0.79432000  0.77603000  0.87146000  1.0
  C  C19  1  0.64749000  0.22550000  0.69940000  1.0
  C  C20  1  0.47105000  0.15828000  0.71348000  1.0
  C  C21  1  0.47944000  0.11644000  0.78625000  1.0
  C  C22  1  0.66369000  0.15192000  0.82672000  1.0
  C  C23  1  0.72581000  0.11525000  0.90221000  1.0
  C  C24  1  0.69040000  0.28182000  0.62889000  1.0
  S  S1  1  0.33155000  0.26365000  0.27586000  1.0
  S  S2  1  0.17393000  0.76306000  0.22465000  1.0
  S  S3  1  0.66845000  0.73635000  0.72414000  1.0
  S  S4  1  0.82608000  0.23694000  0.77535000  1.0
  O  O1  1  0.07203000  0.24417000  0.07345000  1.0
  O  O2  1  0.37461000  0.16049000  0.12596000  1.0
  O  O3  1  0.41628000  0.40653000  0.42192000  1.0
  O  O4  1  0.08107000  0.40009000  0.44454000  1.0
  O  O5  1  0.44798000  0.73269000  0.42519000  1.0
  O  O6  1  0.13831000  0.65838000  0.37473000  1.0
  O  O7  1  0.08235000  0.90692000  0.07650000  1.0
  O  O8  1  0.41762000  0.89982000  0.05452000  1.0
  O  O9  1  0.92797000  0.75583000  0.92655000  1.0
  O  O10  1  0.62539000  0.83951000  0.87404000  1.0
  O  O11  1  0.58372000  0.59347000  0.57808000  1.0
  O  O12  1  0.91894000  0.59991000  0.55546000  1.0
  O  O13  1  0.55203000  0.26732000  0.57480000  1.0
  O  O14  1  0.86169000  0.34162000  0.62527000  1.0
  O  O15  1  0.91765000  0.09308000  0.92350000  1.0
  O  O16  1  0.58238000  0.10018000  0.94547000  1.0
