# generated using pymatgen
data_H40C45(N4O)2
_symmetry_space_group_name_H-M   'P 1'
_cell_length_a   26.24610000
_cell_length_b   30.30640000
_cell_length_c   31.11110000
_cell_angle_alpha   90.00000000
_cell_angle_beta   90.00000000
_cell_angle_gamma   90.00000000
_symmetry_Int_Tables_number   1
_chemical_formula_structural   H40C45(N4O)2
_chemical_formula_sum   'H240 C270 N48 O12'
_cell_volume   24746.54065208
_cell_formula_units_Z   6
loop_
 _symmetry_equiv_pos_site_id
 _symmetry_equiv_pos_as_xyz
  1  'x, y, z'
loop_
 _atom_site_type_symbol
 _atom_site_label
 _atom_site_symmetry_multiplicity
 _atom_site_fract_x
 _atom_site_fract_y
 _atom_site_fract_z
 _atom_site_occupancy
  H  6  1  0.94094700  0.86294000  0.83990400  1
  H  7  1  0.95492700  0.85989800  0.89540500  1
  H  9  1  0.87377700  0.85923900  0.96456300  1
  H  11  1  0.89756600  0.99220300  0.90709700  1
  H  17  1  0.91888200  0.79669500  0.94151600  1
  H  18  1  0.98609500  0.82463000  0.85960300  1
  H  19  1  0.88455000  0.75318300  0.91733600  1
  H  20  1  0.95112700  0.75796300  0.90980600  1
  H  23  1  0.72138500  0.87412700  0.86761800  1
  H  26  1  0.90525100  0.79123700  0.80180800  1
  H  27  1  0.94812700  0.75752400  0.83060400  1
  H  30  1  0.75766500  0.79613900  0.78406100  1
  H  31  1  0.88213000  0.74714800  0.83361600  1
  H  32  1  0.99084700  0.13613600  0.96799000  1
  H  35  1  0.95125100  0.05044100  0.93546400  1
  H  38  1  0.60410100  0.85547600  0.80640200  1
  H  40  1  0.53759600  0.84843700  0.75616800  1
  H  43  1  0.40693700  0.79987600  0.77862900  1
  H  48  1  0.14963000  0.96246300  0.94251800  1
  H  50  1  0.14434500  0.93632300  0.86421300  1
  H  55  1  0.31298400  0.89361200  0.82864700  1
  H  59  1  0.10241500  0.91258700  0.76810300  1
  H  60  1  0.09007400  0.96036500  0.79904200  1
  H  61  1  0.09106900  0.98305100  0.99636600  1
  H  65  1  0.10048700  0.07193500  0.86562900  1
  H  69  1  0.04132400  0.09356400  0.92069300  1
  H  71  1  0.14735900  0.03228000  0.79107400  1
  H  72  1  0.19192900  0.03559300  0.74879100  1
  H  74  1  0.70202700  0.78559800  0.72362700  1
  H  76  1  0.63458300  0.77772700  0.67317800  1
  H  79  1  0.53671200  0.89815200  0.68882200  1
  H  80  1  0.48298600  0.77403300  0.74471400  1
  H  86  1  0.38295200  0.88785600  0.67561400  1
  H  87  1  0.60894800  0.86593900  0.54931500  1
  H  89  1  0.65295300  0.93869000  0.53124800  1
  H  97  1  0.45730200  0.86210400  0.64204700  1
  H  98  1  0.55807900  0.95727100  0.64205700  1
  H  102  1  0.48066600  0.79302000  0.60150600  1
  H  103  1  0.58785500  0.80677700  0.59576800  1
  H  104  1  0.56720000  0.71987200  0.69071600  1
  H  109  1  0.47093500  0.72927400  0.55842100  1
  H  110  1  0.58181600  0.68486500  0.51173400  1
  H  111  1  0.55980100  0.65644900  0.64585300  1
  H  118  1  0.57604400  0.62017900  0.57275700  1
  H  119  1  0.51561900  0.48400300  0.51718200  1
  H  122  1  0.63546700  0.10424900  0.50672300  1
  H  124  1  0.30731400  0.89693200  0.71220300  1
  H  125  1  0.07112700  0.95866200  0.74530100  1
  H  127  1  0.19456200  0.97123500  0.69056100  1
  H  128  1  0.12774100  0.97267400  0.68537100  1
  H  129  1  0.15852600  0.92237300  0.69739600  1
  H  130  1  0.12578200  0.03756000  0.73800600  1
  H  131  1  0.69621400  0.31002700  0.28034000  1
  H  133  1  0.66010200  0.92651700  0.42600200  1
  H  134  1  0.61488400  0.88385500  0.41896600  1
  H  135  1  0.63473800  0.89804500  0.47071000  1
  H  137  1  0.54400500  0.91415400  0.49707000  1
  H  140  1  0.55143400  0.92514100  0.37832200  1
  H  141  1  0.59581000  0.96870600  0.37495300  1
  H  143  1  0.50449000  0.95153300  0.46910600  1
  H  144  1  0.51837000  0.89895200  0.44736400  1
  H  145  1  0.53294400  0.97901300  0.39294300  1
  H  146  1  0.60188000  0.70041700  0.46059100  1
  H  147  1  0.62484300  0.65075000  0.48323900  1
  H  148  1  0.56527600  0.67329700  0.39527000  1
  H  151  1  0.50037900  0.70523400  0.44625900  1
  H  152  1  0.48399600  0.67930900  0.49479400  1
  H  158  1  0.59424400  0.62184600  0.40603800  1
  H  159  1  0.52881000  0.62468000  0.39267300  1
  H  160  1  0.46453400  0.65578900  0.44583100  1
  H  161  1  0.53212100  0.50282100  0.40206200  1
  H  162  1  0.63135500  0.31930900  0.33311600  1
  H  169  1  0.55967600  0.44383700  0.35750600  1
  H  171  1  0.48039500  0.37438300  0.45379900  1
  H  177  1  0.58395000  0.28841800  0.41370400  1
  H  178  1  0.48374400  0.30934700  0.41105300  1
  H  181  1  0.56216700  0.37937500  0.31448900  1
  H  186  1  0.52693200  0.25562600  0.25101000  1
  H  187  1  0.47626900  0.33172900  0.26873000  1
  H  190  1  0.60771300  0.22565200  0.45504300  1
  H  194  1  0.61160700  0.09618100  0.39366300  1
  H  195  1  0.45309200  0.23695000  0.36606900  1
  H  200  1  0.55500400  0.14225700  0.35608500  1
  H  204  1  0.53091700  0.20409900  0.31529900  1
  H  205  1  0.38054800  0.21010400  0.32929400  1
  H  208  1  0.94452900  0.90463400  0.00784600  1
  H  212  1  0.74312200  0.30941300  0.21191200  1
  H  214  1  0.78513300  0.34280900  0.05018500  1
  H  215  1  0.72308300  0.36294600  0.04066700  1
  H  217  1  0.78299700  0.37278900  0.12988900  1
  H  218  1  0.72629000  0.36606100  0.15981800  1
  H  219  1  0.72510500  0.39639500  0.11204400  1
  H  224  1  0.73659400  0.30659200  0.03241900  1
  H  228  1  0.93138300  0.18849500  0.00040200  1
  H  231  1  0.86069400  0.23046900  0.04217100  1
  H  233  1  0.83957700  0.18696700  0.14931600  1
  H  238  1  0.89419700  0.09893300  0.09924100  1
  H  241  1  0.95241600  0.04746500  0.07070100  1
  H  244  1  0.40216600  0.30559600  0.23262100  1
  H  245  1  0.65042200  0.34060800  0.08548700  1
  H  246  1  0.66370700  0.28338200  0.08547100  1
  H  247  1  0.65688300  0.31249200  0.13430300  1
  H  249  1  0.37241000  0.28301000  0.10183200  1
  H  250  1  0.35159500  0.28870500  0.15481900  1
  H  251  1  0.59092600  0.24709000  0.19876200  1
  H  252  1  0.40808000  0.22628200  0.18321800  1
  H  254  1  0.40619000  0.17335300  0.15956000  1
  H  255  1  0.43468600  0.21824100  0.13229700  1
  H  258  1  0.38430900  0.21221900  0.06631700  1
  H  259  1  0.35740900  0.16314000  0.08658600  1
  H  260  1  0.00267800  0.96081300  0.03700300  1
  H  261  1  0.31223700  0.27502800  0.21918200  1
  H  262  1  0.30668900  0.27867700  0.11363100  1
  H  267  1  0.19289700  0.14662600  0.20993200  1
  H  268  1  0.31752900  0.20592000  0.06738800  1
  H  273  1  0.22189200  0.11926200  0.09810300  1
  H  274  1  0.08293000  0.12147600  0.00849500  1
  H  282  1  0.13955200  0.14718700  0.06137400  1
  H  283  1  0.10626300  0.03663300  0.13849100  1
  H  284  1  0.04750400  0.01044300  0.08469600  1
  H  291  1  0.63614000  0.46698400  0.83990400  1
  H  292  1  0.65012000  0.46394200  0.89540500  1
  H  294  1  0.56897000  0.46328300  0.96456300  1
  H  296  1  0.59275900  0.59624700  0.90709700  1
  H  302  1  0.61407500  0.40073900  0.94151600  1
  H  303  1  0.68128800  0.42867400  0.85960300  1
  H  304  1  0.57974300  0.35722700  0.91733600  1
  H  305  1  0.64632000  0.36200700  0.90980600  1
  H  308  1  0.41657800  0.47817100  0.86761800  1
  H  311  1  0.60044400  0.39528100  0.80180800  1
  H  312  1  0.64332000  0.36156800  0.83060400  1
  H  315  1  0.45285800  0.40018300  0.78406100  1
  H  316  1  0.57732300  0.35119200  0.83361600  1
  H  317  1  0.68604000  0.74018000  0.96799000  1
  H  320  1  0.64644400  0.65448500  0.93546400  1
  H  323  1  0.29929400  0.45952000  0.80640200  1
  H  325  1  0.23278900  0.45248100  0.75616800  1
  H  328  1  0.10213000  0.40392000  0.77862900  1
  H  333  1  0.84482300  0.56650700  0.94251800  1
  H  335  1  0.83953800  0.54036700  0.86421300  1
  H  340  1  0.00817700  0.49765600  0.82864700  1
  H  344  1  0.79760800  0.51663100  0.76810300  1
  H  345  1  0.78526700  0.56440900  0.79904200  1
  H  346  1  0.78626200  0.58709500  0.99636600  1
  H  350  1  0.79568000  0.67597900  0.86562900  1
  H  354  1  0.73651700  0.69760800  0.92069300  1
  H  356  1  0.84255200  0.63632400  0.79107400  1
  H  357  1  0.88712200  0.63963700  0.74879100  1
  H  359  1  0.39722000  0.38964200  0.72362700  1
  H  361  1  0.32977600  0.38177100  0.67317800  1
  H  364  1  0.23190500  0.50219600  0.68882200  1
  H  365  1  0.17817900  0.37807700  0.74471400  1
  H  371  1  0.07814500  0.49190000  0.67561400  1
  H  372  1  0.30414100  0.46998300  0.54931500  1
  H  374  1  0.34814600  0.54273400  0.53124800  1
  H  382  1  0.15249500  0.46614800  0.64204700  1
  H  383  1  0.25327200  0.56131500  0.64205700  1
  H  387  1  0.17585900  0.39706400  0.60150600  1
  H  388  1  0.28304800  0.41082100  0.59576800  1
  H  389  1  0.26239300  0.32391600  0.69071600  1
  H  394  1  0.16612800  0.33333333  0.55842100  1
  H  395  1  0.27700900  0.28890900  0.51173400  1
  H  396  1  0.25499400  0.26049300  0.64585300  1
  H  403  1  0.27123700  0.22422300  0.57275700  1
  H  404  1  0.21081200  0.08804700  0.51718200  1
  H  407  1  0.33066000  0.70829300  0.50672300  1
  H  409  1  0.00250700  0.50097600  0.71220300  1
  H  410  1  0.76632000  0.56270600  0.74530100  1
  H  412  1  0.88975500  0.57527900  0.69056100  1
  H  413  1  0.82293400  0.57671800  0.68537100  1
  H  414  1  0.85371900  0.52641700  0.69739600  1
  H  415  1  0.82097500  0.64160400  0.73800600  1
  H  416  1  0.39140700  0.91407100  0.28034000  1
  H  418  1  0.35529500  0.53056100  0.42600200  1
  H  419  1  0.31007700  0.48789900  0.41896600  1
  H  420  1  0.32993100  0.50208900  0.47071000  1
  H  422  1  0.23919800  0.51819800  0.49707000  1
  H  425  1  0.24662700  0.52918500  0.37832200  1
  H  426  1  0.29100300  0.57275000  0.37495300  1
  H  428  1  0.19968300  0.55557700  0.46910600  1
  H  429  1  0.21356300  0.50299600  0.44736400  1
  H  430  1  0.22813700  0.58305700  0.39294300  1
  H  431  1  0.29707300  0.30446100  0.46059100  1
  H  432  1  0.32003600  0.25479400  0.48323900  1
  H  433  1  0.26046900  0.27734100  0.39527000  1
  H  436  1  0.19557200  0.30927800  0.44625900  1
  H  437  1  0.17918900  0.28335300  0.49479400  1
  H  443  1  0.28943700  0.22589000  0.40603800  1
  H  444  1  0.22400300  0.22872400  0.39267300  1
  H  445  1  0.15972700  0.25983300  0.44583100  1
  H  446  1  0.22731400  0.10686500  0.40206200  1
  H  447  1  0.32654800  0.92335300  0.33311600  1
  H  454  1  0.25486900  0.04788100  0.35750600  1
  H  456  1  0.17558800  0.97842700  0.45379900  1
  H  462  1  0.27914300  0.89246200  0.41370400  1
  H  463  1  0.17893700  0.91339100  0.41105300  1
  H  466  1  0.25736000  0.98341900  0.31448900  1
  H  471  1  0.22212500  0.85967000  0.25101000  1
  H  472  1  0.17146200  0.93577300  0.26873000  1
  H  475  1  0.30290600  0.82969600  0.45504300  1
  H  479  1  0.30680000  0.70022500  0.39366300  1
  H  480  1  0.14828500  0.84099400  0.36606900  1
  H  485  1  0.25019700  0.74630100  0.35608500  1
  H  489  1  0.22611000  0.80814300  0.31529900  1
  H  490  1  0.07574100  0.81414800  0.32929400  1
  H  493  1  0.63972200  0.50867800  0.00784600  1
  H  497  1  0.43831500  0.91345700  0.21191200  1
  H  499  1  0.48032600  0.94685300  0.05018500  1
  H  500  1  0.41827600  0.96699000  0.04066700  1
  H  502  1  0.47819000  0.97683300  0.12988900  1
  H  503  1  0.42148300  0.97010500  0.15981800  1
  H  504  1  0.42029800  0.00043900  0.11204400  1
  H  509  1  0.43178700  0.91063600  0.03241900  1
  H  513  1  0.62657600  0.79253900  0.00040200  1
  H  516  1  0.55588700  0.83451300  0.04217100  1
  H  518  1  0.53477000  0.79101100  0.14931600  1
  H  523  1  0.58939000  0.70297700  0.09924100  1
  H  526  1  0.64760900  0.65150900  0.07070100  1
  H  529  1  0.09735900  0.90964000  0.23262100  1
  H  530  1  0.34561500  0.94465200  0.08548700  1
  H  531  1  0.35890000  0.88742600  0.08547100  1
  H  532  1  0.35207600  0.91653600  0.13430300  1
  H  534  1  0.06760300  0.88705400  0.10183200  1
  H  535  1  0.04678800  0.89274900  0.15481900  1
  H  536  1  0.28611900  0.85113400  0.19876200  1
  H  537  1  0.10327300  0.83032600  0.18321800  1
  H  539  1  0.10138300  0.77739700  0.15956000  1
  H  540  1  0.12987900  0.82228500  0.13229700  1
  H  543  1  0.07950200  0.81626300  0.06631700  1
  H  544  1  0.05260200  0.76718400  0.08658600  1
  H  545  1  0.69787100  0.56485700  0.03700300  1
  H  546  1  0.00743000  0.87907200  0.21918200  1
  H  547  1  0.00188200  0.88272100  0.11363100  1
  H  552  1  0.88809000  0.75067000  0.20993200  1
  H  553  1  0.01272200  0.80996400  0.06738800  1
  H  558  1  0.91708480  0.72330600  0.09810300  1
  H  559  1  0.77812300  0.72552000  0.00849500  1
  H  567  1  0.83474500  0.75123100  0.06137400  1
  H  568  1  0.80145600  0.64067700  0.13849100  1
  H  569  1  0.74269700  0.61448700  0.08469600  1
  C  1  1  0.94508100  0.93517400  0.99064700  1
  C  2  1  0.91543600  0.94330600  0.95343600  1
  C  4  1  0.83732600  0.85879200  0.90532800  1
  C  5  1  0.94953100  0.84044000  0.86637100  1
  C  8  1  0.86815200  0.87586200  0.93749800  1
  C  10  1  0.91802000  0.98518200  0.93435300  1
  C  12  1  0.85402400  0.82736800  0.87405400  1
  C  14  1  0.90612400  0.80538100  0.87161500  1
  C  15  1  0.91070000  0.77332800  0.83194800  1
  C  16  1  0.91565800  0.77665100  0.91263000  1
  C  24  1  0.78693200  0.87539400  0.90146600  1
  C  25  1  0.77126300  0.83174500  0.83933600  1
  C  29  1  0.74189800  0.81668800  0.80514000  1
  C  33  1  0.98120000  0.01371700  0.98832400  1
  C  34  1  0.94992500  0.02091600  0.95140800  1
  C  36  1  0.96992300  0.12729000  0.99421500  1
  C  37  1  0.61049500  0.83723500  0.77917700  1
  C  39  1  0.65918600  0.81978600  0.77093800  1
  C  41  1  0.57059500  0.83202600  0.74944600  1
  C  42  1  0.41693400  0.81273200  0.74937400  1
  C  45  1  0.24793400  0.92671400  0.84162400  1
  C  47  1  0.12707000  0.98952900  0.93734700  1
  C  49  1  0.16650100  0.96032900  0.85278800  1
  C  51  1  0.20411400  0.94770300  0.82426100  1
  C  53  1  0.27758000  0.90724200  0.77209100  1
  C  56  1  0.19790000  0.94744200  0.77865200  1
  C  57  1  0.15425900  0.96761600  0.75308300  1
  C  58  1  0.10137500  0.94862100  0.76739400  1
  C  63  1  0.12982900  0.01622100  0.89836700  1
  C  64  1  0.09891400  0.05412100  0.89354900  1
  C  66  1  0.05954400  0.04258500  0.96482400  1
  C  67  1  0.09249800  0.00536200  0.96925200  1
  C  68  1  0.06423800  0.06697900  0.92612600  1
  C  70  1  0.15492200  0.02218000  0.75816400  1
  C  73  1  0.66666667  0.79712100  0.73174200  1
  C  75  1  0.62641200  0.79213700  0.70209300  1
  C  77  1  0.44786100  0.84823600  0.67089600  1
  C  78  1  0.40276800  0.86309400  0.69039200  1
  C  81  1  0.57627200  0.80797500  0.71037200  1
  C  82  1  0.53537500  0.80824900  0.67492000  1
  C  83  1  0.48142000  0.81816600  0.69166500  1
  C  84  1  0.46182900  0.79751400  0.72922500  1
  C  85  1  0.38757000  0.84688100  0.73098700  1
  C  88  1  0.62299000  0.95836100  0.53499200  1
  C  90  1  0.61680400  0.99351100  0.50746800  1
  C  91  1  0.55610200  0.84553000  0.64638000  1
  C  92  1  0.55270300  0.89039600  0.65982600  1
  C  93  1  0.56535300  0.92557100  0.63239800  1
  C  94  1  0.58580900  0.91725900  0.59144800  1
  C  95  1  0.59484600  0.87308900  0.57918200  1
  C  96  1  0.58103100  0.83808500  0.60646800  1
  C  100  1  0.52736600  0.76478500  0.65023700  1
  C  101  1  0.49722100  0.76451500  0.61215500  1
  C  105  1  0.54771200  0.72314600  0.66251000  1
  C  106  1  0.54299100  0.68526300  0.63622600  1
  C  107  1  0.51563900  0.68674100  0.59707900  1
  C  108  1  0.49148600  0.72673600  0.58629600  1
  C  113  1  0.53196900  0.59175600  0.52591200  1
  C  114  1  0.52381500  0.54697700  0.53773700  1
  C  117  1  0.54209200  0.62194500  0.55864000  1
  C  120  1  0.62945800  0.03963500  0.52237000  1
  C  123  1  0.31200400  0.88941500  0.74307500  1
  C  126  1  0.15907100  0.95787700  0.70352300  1
  C  132  1  0.62558300  0.91173400  0.43935100  1
  C  136  1  0.59953300  0.98867400  0.46414000  1
  C  138  1  0.58170500  0.94663300  0.44178100  1
  C  139  1  0.56438900  0.95540500  0.39403600  1
  C  142  1  0.53431900  0.92667600  0.46537400  1
  C  149  1  0.59132200  0.67188400  0.48015000  1
  C  150  1  0.49567400  0.67317200  0.46186100  1
  C  153  1  0.53745100  0.60102200  0.48096700  1
  C  154  1  0.52585000  0.52301500  0.46486000  1
  C  156  1  0.54599400  0.64566200  0.45954300  1
  C  157  1  0.55939400  0.64109200  0.41033900  1
  C  163  1  0.52005400  0.41568400  0.41032000  1
  C  164  1  0.54318500  0.41573700  0.36922200  1
  C  165  1  0.54549800  0.37702300  0.34405100  1
  C  166  1  0.52642500  0.33589900  0.35901300  1
  C  167  1  0.49994100  0.33741400  0.39892500  1
  C  168  1  0.49789900  0.37585500  0.42439800  1
  C  172  1  0.52599400  0.49192900  0.43178800  1
  C  173  1  0.53089800  0.29236700  0.33402900  1
  C  174  1  0.44291900  0.25267600  0.33832900  1
  C  175  1  0.55149100  0.25362300  0.36077800  1
  C  176  1  0.57670700  0.25799200  0.40103100  1
  C  179  1  0.65986600  0.30044800  0.27303100  1
  C  180  1  0.62121400  0.30612700  0.30408100  1
  C  182  1  0.47576200  0.28443800  0.31910500  1
  C  183  1  0.45532900  0.30740400  0.28316300  1
  C  184  1  0.56998600  0.29239000  0.29702300  1
  C  185  1  0.56110800  0.27032900  0.25725500  1
  C  188  1  0.41124600  0.29221200  0.26182600  1
  C  189  1  0.38411400  0.25525000  0.27749300  1
  C  192  1  0.61108100  0.07048700  0.45421400  1
  C  193  1  0.60746500  0.10405400  0.42454900  1
  C  196  1  0.54778800  0.20987600  0.34437200  1
  C  197  1  0.56237700  0.17289100  0.36841800  1
  C  198  1  0.58425800  0.17785000  0.40958100  1
  C  199  1  0.59166900  0.22094700  0.42538200  1
  C  203  1  0.39926700  0.23698300  0.31703500  1
  C  209  1  0.97729500  0.96833700  0.01108600  1
  C  211  1  0.72798900  0.28538200  0.19434200  1
  C  213  1  0.74466700  0.33485700  0.05313900  1
  C  216  1  0.74192800  0.36743400  0.12745900  1
  C  220  1  0.76004100  0.28535200  0.11896700  1
  C  221  1  0.75672500  0.26737900  0.16139900  1
  C  223  1  0.73032600  0.32448900  0.10125000  1
  C  225  1  0.67180900  0.31454100  0.10175800  1
  C  226  1  0.78739400  0.23018200  0.17116700  1
  C  230  1  0.82250300  0.22940400  0.10063000  1
  C  234  1  0.85448300  0.21304400  0.06874700  1
  C  235  1  0.90682800  0.14844400  0.05228000  1
  C  236  1  0.93502200  0.15826400  0.01468900  1
  C  237  1  0.91357200  0.10707600  0.07172000  1
  C  239  1  0.97797600  0.08570100  0.01724800  1
  C  240  1  0.94806800  0.07665700  0.05455600  1
  C  242  1  0.64940600  0.27921200  0.23357300  1
  C  243  1  0.59947200  0.26414600  0.22629200  1
  C  248  1  0.34485100  0.27055000  0.12521900  1
  C  253  1  0.40297800  0.20868200  0.15308000  1
  C  256  1  0.35054700  0.21952500  0.13156400  1
  C  257  1  0.35259000  0.19893500  0.08507600  1
  C  263  1  0.31862600  0.24336100  0.22534400  1
  C  264  1  0.29324400  0.21169500  0.20147200  1
  C  265  1  0.25049400  0.18994700  0.21982200  1
  C  269  1  0.30670500  0.20090800  0.15818500  1
  C  271  1  0.23536400  0.14973400  0.15549800  1
  C  272  1  0.20733700  0.12359800  0.12747200  1
  C  275  1  0.02106200  0.05101900  0.00434900  1
  C  276  1  0.05921600  0.06242900  0.04016300  1
  C  277  1  0.08760200  0.10229900  0.03528600  1
  C  278  1  0.12146200  0.11768500  0.06650000  1
  C  279  1  0.12998500  0.09353100  0.10450600  1
  C  280  1  0.10188200  0.05418300  0.11063300  1
  C  281  1  0.06753000  0.03865200  0.07882100  1
  C  286  1  0.64027400  0.53921800  0.99064700  1
  C  287  1  0.61062900  0.54735000  0.95343600  1
  C  289  1  0.53251900  0.46283600  0.90532800  1
  C  290  1  0.64472400  0.44448400  0.86637100  1
  C  293  1  0.56334500  0.47990600  0.93749800  1
  C  295  1  0.61321300  0.58922600  0.93435300  1
  C  297  1  0.54921700  0.43141200  0.87405400  1
  C  299  1  0.60131700  0.40942500  0.87161500  1
  C  300  1  0.60589300  0.37737200  0.83194800  1
  C  301  1  0.61085100  0.38069500  0.91263000  1
  C  309  1  0.48212500  0.47943800  0.90146600  1
  C  310  1  0.46645600  0.43578900  0.83933600  1
  C  314  1  0.43709100  0.42073200  0.80514000  1
  C  318  1  0.67639300  0.61776100  0.98832400  1
  C  319  1  0.64511800  0.62496000  0.95140800  1
  C  321  1  0.66511600  0.73133400  0.99421500  1
  C  322  1  0.30568800  0.44127900  0.77917700  1
  C  324  1  0.35437900  0.42383000  0.77093800  1
  C  326  1  0.26578800  0.43607000  0.74944600  1
  C  327  1  0.11212700  0.41677600  0.74937400  1
  C  330  1  0.94312680  0.53075800  0.84162400  1
  C  332  1  0.82226300  0.59357300  0.93734700  1
  C  334  1  0.86169400  0.56437300  0.85278800  1
  C  336  1  0.89930700  0.55174700  0.82426100  1
  C  338  1  0.97277280  0.51128600  0.77209100  1
  C  341  1  0.89309300  0.55148600  0.77865200  1
  C  342  1  0.84945200  0.57166000  0.75308300  1
  C  343  1  0.79656800  0.55266500  0.76739400  1
  C  348  1  0.82502200  0.62026500  0.89836700  1
  C  349  1  0.79410700  0.65816500  0.89354900  1
  C  351  1  0.75473700  0.64662900  0.96482400  1
  C  352  1  0.78769100  0.60940600  0.96925200  1
  C  353  1  0.75943100  0.67102300  0.92612600  1
  C  355  1  0.85011500  0.62622400  0.75816400  1
  C  358  1  0.36189300  0.40116500  0.73174200  1
  C  360  1  0.32160500  0.39618100  0.70209300  1
  C  362  1  0.14305400  0.45228000  0.67089600  1
  C  363  1  0.09796100  0.46713800  0.69039200  1
  C  366  1  0.27146500  0.41201900  0.71037200  1
  C  367  1  0.23056800  0.41229300  0.67492000  1
  C  368  1  0.17661300  0.42221000  0.69166500  1
  C  369  1  0.15702200  0.40155800  0.72922500  1
  C  370  1  0.08276300  0.45092500  0.73098700  1
  C  373  1  0.31818300  0.56240500  0.53499200  1
  C  375  1  0.31199700  0.59755500  0.50746800  1
  C  376  1  0.25129500  0.44957400  0.64638000  1
  C  377  1  0.24789600  0.49444000  0.65982600  1
  C  378  1  0.26054600  0.52961500  0.63239800  1
  C  379  1  0.28100200  0.52130300  0.59144800  1
  C  380  1  0.29003900  0.47713300  0.57918200  1
  C  381  1  0.27622400  0.44212900  0.60646800  1
  C  385  1  0.22255900  0.36882900  0.65023700  1
  C  386  1  0.19241400  0.36855900  0.61215500  1
  C  390  1  0.24290500  0.32719000  0.66251000  1
  C  391  1  0.23818400  0.28930700  0.63622600  1
  C  392  1  0.21083200  0.29078500  0.59707900  1
  C  393  1  0.18667900  0.33078000  0.58629600  1
  C  398  1  0.22716200  0.19580000  0.52591200  1
  C  399  1  0.21900800  0.15102100  0.53773700  1
  C  402  1  0.23728500  0.22598900  0.55864000  1
  C  405  1  0.32465100  0.64367900  0.52237000  1
  C  408  1  0.00719700  0.49345900  0.74307500  1
  C  411  1  0.85426400  0.56192100  0.70352300  1
  C  417  1  0.32077600  0.51577800  0.43935100  1
  C  421  1  0.29472600  0.59271800  0.46414000  1
  C  423  1  0.27689800  0.55067700  0.44178100  1
  C  424  1  0.25958200  0.55944900  0.39403600  1
  C  427  1  0.22951200  0.53072000  0.46537400  1
  C  434  1  0.28651500  0.27592800  0.48015000  1
  C  435  1  0.19086700  0.27721600  0.46186100  1
  C  438  1  0.23264400  0.20506600  0.48096700  1
  C  439  1  0.22104300  0.12705900  0.46486000  1
  C  441  1  0.24118700  0.24970600  0.45954300  1
  C  442  1  0.25458700  0.24513600  0.41033900  1
  C  448  1  0.21524700  0.01972800  0.41032000  1
  C  449  1  0.23837800  0.01978100  0.36922200  1
  C  450  1  0.24069100  0.98106700  0.34405100  1
  C  451  1  0.22161800  0.93994300  0.35901300  1
  C  452  1  0.19513400  0.94145800  0.39892500  1
  C  453  1  0.19309200  0.97989900  0.42439800  1
  C  457  1  0.22118700  0.09597300  0.43178800  1
  C  458  1  0.22609100  0.89641100  0.33402900  1
  C  459  1  0.13811200  0.85672000  0.33832900  1
  C  460  1  0.24668400  0.85766700  0.36077800  1
  C  461  1  0.27190000  0.86203600  0.40103100  1
  C  464  1  0.35505900  0.90449200  0.27303100  1
  C  465  1  0.31640700  0.91017100  0.30408100  1
  C  467  1  0.17095500  0.88848200  0.31910500  1
  C  468  1  0.15052200  0.91144800  0.28316300  1
  C  469  1  0.26517900  0.89643400  0.29702300  1
  C  470  1  0.25630100  0.87437300  0.25725500  1
  C  473  1  0.10643900  0.89625600  0.26182600  1
  C  474  1  0.07930700  0.85929400  0.27749300  1
  C  477  1  0.30627400  0.67453100  0.45421400  1
  C  478  1  0.30265800  0.70809800  0.42454900  1
  C  481  1  0.24298100  0.81392000  0.34437200  1
  C  482  1  0.25757000  0.77693500  0.36841800  1
  C  483  1  0.27945100  0.78189400  0.40958100  1
  C  484  1  0.28686200  0.82499100  0.42538200  1
  C  488  1  0.09446000  0.84102700  0.31703500  1
  C  494  1  0.67248800  0.57238100  0.01108600  1
  C  496  1  0.42318200  0.88942600  0.19434200  1
  C  498  1  0.43986000  0.93890100  0.05313900  1
  C  501  1  0.43712100  0.97147800  0.12745900  1
  C  505  1  0.45523400  0.88939600  0.11896700  1
  C  506  1  0.45191800  0.87142300  0.16139900  1
  C  508  1  0.42551900  0.92853300  0.10125000  1
  C  510  1  0.36700200  0.91858500  0.10175800  1
  C  511  1  0.48258700  0.83422600  0.17116700  1
  C  515  1  0.51769600  0.83344800  0.10063000  1
  C  519  1  0.54967600  0.81708800  0.06874700  1
  C  520  1  0.60202100  0.75248800  0.05228000  1
  C  521  1  0.63021500  0.76230800  0.01468900  1
  C  522  1  0.60876500  0.71112000  0.07172000  1
  C  524  1  0.67316900  0.68974500  0.01724800  1
  C  525  1  0.64326100  0.68070100  0.05455600  1
  C  527  1  0.34459900  0.88325600  0.23357300  1
  C  528  1  0.29466500  0.86819000  0.22629200  1
  C  533  1  0.04004400  0.87459400  0.12521900  1
  C  538  1  0.09817100  0.81272600  0.15308000  1
  C  541  1  0.04574000  0.82356900  0.13156400  1
  C  542  1  0.04778300  0.80297900  0.08507600  1
  C  548  1  0.01381900  0.84740500  0.22534400  1
  C  549  1  0.98843680  0.81573900  0.20147200  1
  C  550  1  0.94568680  0.79399100  0.21982200  1
  C  554  1  0.00189800  0.80495200  0.15818500  1
  C  556  1  0.93055680  0.75377800  0.15549800  1
  C  557  1  0.90252980  0.72764200  0.12747200  1
  C  560  1  0.71625500  0.65506300  0.00434900  1
  C  561  1  0.75440900  0.66647300  0.04016300  1
  C  562  1  0.78279500  0.70634300  0.03528600  1
  C  563  1  0.81665500  0.72172900  0.06650000  1
  C  564  1  0.82517800  0.69757500  0.10450600  1
  C  565  1  0.79707500  0.65822700  0.11063300  1
  C  566  1  0.76272300  0.64269600  0.07882100  1
  N  3  1  0.88643500  0.91471200  0.93237500  1
  N  13  1  0.81944800  0.81611600  0.84316100  1
  N  21  1  0.75560100  0.86169600  0.86923200  1
  N  28  1  0.69522800  0.82846200  0.79999400  1
  N  44  1  0.34978500  0.86473500  0.75411000  1
  N  52  1  0.28329200  0.90755000  0.81558400  1
  N  54  1  0.23569200  0.92738100  0.75579700  1
  N  62  1  0.16219900  0.00304600  0.86778000  1
  N  99  1  0.58947400  0.95064100  0.56405600  1
  N  112  1  0.51142100  0.65336000  0.56899900  1
  N  115  1  0.52064900  0.51432400  0.50760000  1
  N  155  1  0.53377800  0.56573900  0.45388600  1
  N  170  1  0.51956300  0.45016900  0.43746400  1
  N  191  1  0.62599200  0.07520500  0.49582300  1
  N  201  1  0.59426000  0.14349100  0.43499900  1
  N  202  1  0.59829800  0.02961100  0.44045700  1
  N  206  1  0.35181600  0.23191500  0.25354000  1
  N  210  1  0.68390200  0.26957300  0.20354800  1
  N  222  1  0.79302200  0.26487500  0.09148800  1
  N  229  1  0.81882800  0.21228800  0.14108500  1
  N  232  1  0.87549900  0.17515800  0.07325000  1
  N  266  1  0.22272600  0.16016700  0.19670500  1
  N  270  1  0.27625800  0.17070300  0.13843900  1
  N  285  1  0.16101800  0.11099600  0.13421900  1
  N  288  1  0.58162800  0.51875600  0.93237500  1
  N  298  1  0.51464100  0.42016000  0.84316100  1
  N  306  1  0.45079400  0.46574000  0.86923200  1
  N  313  1  0.39042100  0.43250600  0.79999400  1
  N  329  1  0.04497800  0.46877900  0.75411000  1
  N  337  1  0.97848480  0.51159400  0.81558400  1
  N  339  1  0.93088480  0.53142500  0.75579700  1
  N  347  1  0.85739200  0.60709000  0.86778000  1
  N  384  1  0.28466700  0.55468500  0.56405600  1
  N  397  1  0.20661400  0.25740400  0.56899900  1
  N  400  1  0.21584200  0.11836800  0.50760000  1
  N  440  1  0.22897100  0.16978300  0.45388600  1
  N  455  1  0.21475600  0.05421300  0.43746400  1
  N  476  1  0.32118500  0.67924900  0.49582300  1
  N  486  1  0.28945300  0.74753500  0.43499900  1
  N  487  1  0.29349100  0.63365500  0.44045700  1
  N  491  1  0.04700900  0.83595900  0.25354000  1
  N  495  1  0.37909500  0.87361700  0.20354800  1
  N  507  1  0.48821500  0.86891900  0.09148800  1
  N  514  1  0.51402100  0.81633200  0.14108500  1
  N  517  1  0.57069200  0.77920200  0.07325000  1
  N  551  1  0.91791880  0.76421100  0.19670500  1
  N  555  1  0.97145080  0.77474700  0.13843900  1
  N  570  1  0.85621100  0.71504000  0.13421900  1
  O  22  1  0.76856300  0.90582200  0.92945500  1
  O  46  1  0.25561900  0.92440000  0.88470300  1
  O  116  1  0.51985200  0.53511800  0.57965200  1
  O  121  1  0.64578700  0.04645900  0.56320100  1
  O  207  1  0.23526200  0.19903400  0.26052400  1
  O  227  1  0.78680300  0.21153900  0.21082800  1
  O  307  1  0.46375600  0.50986600  0.92945500  1
  O  331  1  0.95081180  0.52844400  0.88470300  1
  O  401  1  0.21504500  0.13916200  0.57965200  1
  O  406  1  0.34098000  0.65050300  0.56320100  1
  O  492  1  0.93045480  0.80307800  0.26052400  1
  O  512  1  0.48199600  0.81558300  0.21082800  1
