# generated using pymatgen
data_ZnH8C14SO6
_symmetry_space_group_name_H-M   'P 1'
_cell_length_a   16.25899000
_cell_length_b   16.78012000
_cell_length_c   20.75765000
_cell_angle_alpha   90.00249000
_cell_angle_beta   90.00090000
_cell_angle_gamma   100.71162000
_symmetry_Int_Tables_number   1
_chemical_formula_structural   ZnH8C14SO6
_chemical_formula_sum   'Zn12 H96 C168 S12 O72'
_cell_volume   5564.58235754
_cell_formula_units_Z   12
loop_
 _symmetry_equiv_pos_site_id
 _symmetry_equiv_pos_as_xyz
  1  'x, y, z'
loop_
 _atom_site_type_symbol
 _atom_site_label
 _atom_site_symmetry_multiplicity
 _atom_site_fract_x
 _atom_site_fract_y
 _atom_site_fract_z
 _atom_site_occupancy
  Zn  Zn1  1  0.51906000  0.74744000  0.82294000  1.0
  Zn  Zn2  1  0.40670000  0.57345000  0.84899000  1.0
  Zn  Zn3  1  0.59922000  0.92366000  0.85842000  1.0
  Zn  Zn4  1  0.98095000  0.75257000  0.32294000  1.0
  Zn  Zn5  1  0.09328000  0.92653000  0.34901000  1.0
  Zn  Zn6  1  0.90078000  0.57623000  0.35839000  1.0
  Zn  Zn7  1  0.48095000  0.25257000  0.17706000  1.0
  Zn  Zn8  1  0.59330000  0.42655000  0.15101000  1.0
  Zn  Zn9  1  0.40078000  0.07635000  0.14158000  1.0
  Zn  Zn10  1  0.01905000  0.24743000  0.67706000  1.0
  Zn  Zn11  1  0.90672000  0.07347000  0.65099000  1.0
  Zn  Zn12  1  0.09922000  0.42377000  0.64161000  1.0
  H  H1  1  0.81756000  0.68040000  0.94456000  1.0
  H  H2  1  0.84075000  0.93418000  0.77583000  1.0
  H  H3  1  0.98111000  0.90927000  0.74172000  1.0
  H  H4  1  0.72749000  0.43346000  0.00506000  1.0
  H  H5  1  0.75390000  0.67754000  0.79913000  1.0
  H  H6  1  0.03827000  0.84369000  0.60658000  1.0
  H  H7  1  0.36991000  0.50633000  0.52158000  1.0
  H  H8  1  0.00131000  0.78931000  0.49477000  1.0
  H  H9  1  0.97168000  0.54542000  0.56745000  1.0
  H  H10  1  0.89476000  0.65209000  0.76609000  1.0
  H  H11  1  0.01782000  0.56814000  0.78422000  1.0
  H  H12  1  0.36522000  0.50149000  0.64154000  1.0
  H  H13  1  0.88074000  0.38027000  0.95426000  1.0
  H  H14  1  0.54100000  0.72741000  0.64996000  1.0
  H  H15  1  0.01026000  0.59873000  0.67807000  1.0
  H  H16  1  0.67198000  0.69030000  0.90877000  1.0
  H  H17  1  0.16728000  0.63521000  0.36733000  1.0
  H  H18  1  0.58381000  0.44288000  0.96603000  1.0
  H  H19  1  0.54184000  0.73537000  0.52949000  1.0
  H  H20  1  0.44080000  0.79493000  0.44031000  1.0
  H  H21  1  0.32247000  0.86463000  0.41437000  1.0
  H  H22  1  0.93073000  0.32460000  0.85234000  1.0
  H  H23  1  0.96441000  0.62355000  0.88289000  1.0
  H  H24  1  0.28743000  0.56459000  0.39202000  1.0
  H  H25  1  0.68241000  0.81991000  0.44444000  1.0
  H  H26  1  0.65920000  0.56576000  0.27592000  1.0
  H  H27  1  0.51890000  0.59072000  0.24180000  1.0
  H  H28  1  0.77248000  0.06682000  0.50483000  1.0
  H  H29  1  0.74620000  0.82240000  0.29915000  1.0
  H  H30  1  0.46157000  0.65626000  0.10682000  1.0
  H  H31  1  0.13010000  0.99376000  0.02166000  1.0
  H  H32  1  0.49872000  0.71051000  0.99496000  1.0
  H  H33  1  0.52834000  0.95448000  0.06747000  1.0
  H  H34  1  0.60537000  0.84792000  0.26614000  1.0
  H  H35  1  0.48244000  0.93201000  0.28416000  1.0
  H  H36  1  0.13483000  0.99856000  0.14161000  1.0
  H  H37  1  0.61939000  0.11991000  0.45424000  1.0
  H  H38  1  0.95889000  0.77272000  0.15001000  1.0
  H  H39  1  0.48947000  0.90126000  0.17810000  1.0
  H  H40  1  0.82801000  0.80994000  0.40876000  1.0
  H  H41  1  0.33264000  0.86466000  0.86732000  1.0
  H  H42  1  0.91619000  0.05737000  0.46600000  1.0
  H  H43  1  0.95800000  0.76483000  0.02955000  1.0
  H  H44  1  0.05917000  0.70505000  0.94047000  1.0
  H  H45  1  0.17746000  0.63530000  0.91442000  1.0
  H  H46  1  0.56973000  0.17563000  0.35216000  1.0
  H  H47  1  0.53552000  0.87666000  0.38300000  1.0
  H  H48  1  0.21252000  0.93537000  0.89204000  1.0
  H  H49  1  0.18244000  0.31960000  0.05544000  1.0
  H  H50  1  0.15925000  0.06583000  0.22417000  1.0
  H  H51  1  0.01889000  0.09074000  0.25828000  1.0
  H  H52  1  0.27251000  0.56654000  0.99494000  1.0
  H  H53  1  0.24610000  0.32246000  0.20087000  1.0
  H  H54  1  0.96174000  0.15631000  0.39342000  1.0
  H  H55  1  0.63009000  0.49367000  0.47842000  1.0
  H  H56  1  0.99869000  0.21069000  0.50523000  1.0
  H  H57  1  0.02832000  0.45458000  0.43255000  1.0
  H  H58  1  0.10524000  0.34791000  0.23391000  1.0
  H  H59  1  0.98218000  0.43187000  0.21578000  1.0
  H  H60  1  0.63478000  0.49852000  0.35846000  1.0
  H  H61  1  0.11926000  0.61974000  0.04574000  1.0
  H  H62  1  0.45900000  0.27259000  0.35004000  1.0
  H  H63  1  0.98974000  0.40128000  0.32193000  1.0
  H  H64  1  0.32802000  0.30970000  0.09123000  1.0
  H  H65  1  0.83272000  0.36479000  0.63267000  1.0
  H  H66  1  0.41619000  0.55713000  0.03397000  1.0
  H  H67  1  0.45816000  0.26464000  0.47051000  1.0
  H  H68  1  0.55920000  0.20508000  0.55969000  1.0
  H  H69  1  0.67753000  0.13537000  0.58563000  1.0
  H  H70  1  0.06927000  0.67540000  0.14766000  1.0
  H  H71  1  0.03559000  0.37645000  0.11711000  1.0
  H  H72  1  0.71257000  0.43542000  0.60798000  1.0
  H  H73  1  0.31759000  0.18010000  0.55556000  1.0
  H  H74  1  0.34080000  0.43424000  0.72408000  1.0
  H  H75  1  0.48110000  0.40928000  0.75820000  1.0
  H  H76  1  0.22752000  0.93318000  0.49517000  1.0
  H  H77  1  0.25380000  0.17761000  0.70085000  1.0
  H  H78  1  0.53844000  0.34375000  0.89318000  1.0
  H  H79  1  0.86990000  0.00624000  0.97834000  1.0
  H  H80  1  0.50128000  0.28949000  0.00504000  1.0
  H  H81  1  0.47166000  0.04553000  0.93253000  1.0
  H  H82  1  0.39463000  0.15208000  0.73386000  1.0
  H  H83  1  0.51756000  0.06800000  0.71584000  1.0
  H  H84  1  0.86517000  0.00144000  0.85839000  1.0
  H  H85  1  0.38061000  0.88009000  0.54576000  1.0
  H  H86  1  0.04111000  0.22729000  0.84999000  1.0
  H  H87  1  0.51054000  0.09875000  0.82190000  1.0
  H  H88  1  0.17199000  0.19006000  0.59124000  1.0
  H  H89  1  0.66736000  0.13535000  0.13268000  1.0
  H  H90  1  0.08381000  0.94263000  0.53400000  1.0
  H  H91  1  0.04200000  0.23517000  0.97045000  1.0
  H  H92  1  0.94083000  0.29496000  0.05953000  1.0
  H  H93  1  0.82254000  0.36470000  0.08558000  1.0
  H  H94  1  0.43027000  0.82438000  0.64784000  1.0
  H  H95  1  0.46448000  0.12334000  0.61700000  1.0
  H  H96  1  0.78748000  0.06464000  0.10797000  1.0
  C  C1  1  0.76598000  0.62912000  0.94929000  1.0
  C  C2  1  0.85296000  0.87278000  0.77408000  1.0
  C  C3  1  0.93106000  0.85922000  0.75435000  1.0
  C  C4  1  0.71516000  0.48862000  0.98263000  1.0
  C  C5  1  0.80413000  0.72762000  0.78697000  1.0
  C  C6  1  0.02386000  0.77880000  0.59707000  1.0
  C  C7  1  0.37011000  0.67598000  0.41726000  1.0
  C  C8  1  0.40582000  0.55509000  0.55008000  1.0
  C  C9  1  0.00355000  0.74868000  0.53538000  1.0
  C  C10  1  0.78961000  0.80747000  0.79072000  1.0
  C  C11  1  0.98618000  0.61034000  0.57658000  1.0
  C  C12  1  0.53769000  0.57265000  0.90682000  1.0
  C  C13  1  0.88239000  0.71355000  0.76815000  1.0
  C  C14  1  0.98544000  0.52699000  0.82022000  1.0
  C  C15  1  0.91855000  0.50469000  0.92339000  1.0
  C  C16  1  0.40403000  0.55228000  0.61721000  1.0
  C  C17  1  0.94517000  0.77968000  0.75214000  1.0
  C  C18  1  0.23761000  0.75374000  0.38976000  1.0
  C  C19  1  0.70657000  0.82294000  0.81269000  1.0
  C  C20  1  0.90862000  0.42055000  0.91592000  1.0
  C  C21  1  0.50345000  0.67990000  0.62126000  1.0
  C  C22  1  0.97518000  0.44285000  0.81149000  1.0
  C  C23  1  0.00735000  0.64021000  0.63822000  1.0
  C  C24  1  0.68537000  0.63463000  0.92951000  1.0
  C  C25  1  0.22729000  0.66912000  0.38350000  1.0
  C  C26  1  0.98370000  0.66436000  0.52530000  1.0
  C  C27  1  0.63518000  0.49421000  0.96142000  1.0
  C  C28  1  0.45504000  0.61371000  0.72495000  1.0
  C  C29  1  0.50427000  0.68408000  0.55425000  1.0
  C  C30  1  0.95689000  0.63265000  0.46063000  1.0
  C  C31  1  0.38098000  0.76018000  0.42446000  1.0
  C  C32  1  0.45573000  0.62105000  0.51925000  1.0
  C  C33  1  0.16728000  0.79545000  0.37223000  1.0
  C  C34  1  0.62048000  0.56677000  0.93401000  1.0
  C  C35  1  0.31450000  0.79905000  0.41040000  1.0
  C  C36  1  0.93699000  0.38964000  0.85948000  1.0
  C  C37  1  0.45327000  0.61438000  0.65308000  1.0
  C  C38  1  0.95645000  0.55837000  0.87596000  1.0
  C  C39  1  0.00730000  0.41094000  0.75139000  1.0
  C  C40  1  0.77995000  0.55577000  0.97505000  1.0
  C  C41  1  0.02516000  0.72420000  0.64791000  1.0
  C  C42  1  0.29360000  0.62987000  0.39733000  1.0
  C  C43  1  0.73402000  0.87115000  0.44920000  1.0
  C  C44  1  0.64705000  0.62718000  0.27414000  1.0
  C  C45  1  0.56896000  0.64077000  0.25442000  1.0
  C  C46  1  0.78485000  0.01163000  0.48249000  1.0
  C  C47  1  0.69594000  0.77234000  0.28699000  1.0
  C  C48  1  0.47608000  0.72114000  0.09725000  1.0
  C  C49  1  0.12986000  0.82399000  0.91736000  1.0
  C  C50  1  0.09418000  0.94499000  0.05014000  1.0
  C  C51  1  0.49653000  0.75119000  0.03555000  1.0
  C  C52  1  0.71043000  0.69249000  0.29076000  1.0
  C  C53  1  0.51387000  0.88956000  0.07665000  1.0
  C  C54  1  0.96238000  0.92746000  0.40685000  1.0
  C  C55  1  0.61768000  0.78644000  0.26820000  1.0
  C  C56  1  0.51474000  0.97321000  0.32016000  1.0
  C  C57  1  0.58144000  0.99552000  0.42340000  1.0
  C  C58  1  0.09599000  0.94779000  0.11727000  1.0
  C  C59  1  0.55487000  0.72032000  0.25222000  1.0
  C  C60  1  0.26232000  0.74618000  0.88978000  1.0
  C  C61  1  0.79348000  0.67703000  0.31271000  1.0
  C  C62  1  0.59155000  0.07966000  0.41587000  1.0
  C  C63  1  0.99648000  0.82023000  0.12134000  1.0
  C  C64  1  0.52501000  0.05734000  0.31143000  1.0
  C  C65  1  0.49254000  0.85976000  0.13829000  1.0
  C  C66  1  0.81465000  0.86563000  0.42947000  1.0
  C  C67  1  0.27263000  0.83079000  0.88351000  1.0
  C  C68  1  0.51645000  0.83550000  0.02540000  1.0
  C  C69  1  0.86485000  0.00603000  0.46135000  1.0
  C  C70  1  0.04501000  0.88636000  0.22501000  1.0
  C  C71  1  0.99564000  0.81607000  0.05432000  1.0
  C  C72  1  0.54309000  0.86729000  0.96070000  1.0
  C  C73  1  0.11899000  0.73978000  0.92457000  1.0
  C  C74  1  0.04423000  0.87903000  0.01931000  1.0
  C  C75  1  0.33267000  0.70450000  0.87223000  1.0
  C  C76  1  0.87958000  0.93344000  0.43400000  1.0
  C  C77  1  0.18544000  0.70088000  0.91046000  1.0
  C  C78  1  0.56331000  0.11058000  0.35938000  1.0
  C  C79  1  0.04673000  0.88572000  0.15315000  1.0
  C  C80  1  0.54361000  0.94183000  0.37596000  1.0
  C  C81  1  0.49276000  0.08925000  0.25137000  1.0
  C  C82  1  0.72005000  0.94448000  0.47498000  1.0
  C  C83  1  0.47481000  0.77578000  0.14806000  1.0
  C  C84  1  0.20636000  0.87008000  0.89737000  1.0
  C  C85  1  0.23402000  0.37088000  0.05071000  1.0
  C  C86  1  0.14704000  0.12723000  0.22592000  1.0
  C  C87  1  0.06894000  0.14079000  0.24565000  1.0
  C  C88  1  0.28484000  0.51138000  0.01737000  1.0
  C  C89  1  0.19588000  0.27238000  0.21303000  1.0
  C  C90  1  0.97614000  0.22120000  0.40293000  1.0
  C  C91  1  0.62989000  0.32403000  0.58274000  1.0
  C  C92  1  0.59419000  0.44492000  0.44993000  1.0
  C  C93  1  0.99645000  0.25132000  0.46462000  1.0
  C  C94  1  0.21040000  0.19254000  0.20928000  1.0
  C  C95  1  0.01383000  0.38967000  0.42342000  1.0
  C  C96  1  0.46231000  0.42735000  0.09318000  1.0
  C  C97  1  0.11761000  0.28646000  0.23185000  1.0
  C  C98  1  0.01456000  0.47302000  0.17978000  1.0
  C  C99  1  0.08145000  0.49532000  0.07661000  1.0
  C  C100  1  0.59597000  0.44772000  0.38279000  1.0
  C  C101  1  0.05483000  0.22033000  0.24786000  1.0
  C  C102  1  0.76239000  0.24627000  0.61024000  1.0
  C  C103  1  0.29344000  0.17706000  0.18731000  1.0
  C  C104  1  0.09138000  0.57945000  0.08408000  1.0
  C  C105  1  0.49655000  0.32011000  0.37874000  1.0
  C  C106  1  0.02482000  0.55715000  0.18851000  1.0
  C  C107  1  0.99265000  0.35980000  0.36178000  1.0
  C  C108  1  0.31463000  0.36537000  0.07049000  1.0
  C  C109  1  0.77271000  0.33088000  0.61650000  1.0
  C  C110  1  0.01630000  0.33564000  0.47470000  1.0
  C  C111  1  0.36482000  0.50580000  0.03858000  1.0
  C  C112  1  0.54496000  0.38630000  0.27505000  1.0
  C  C113  1  0.49573000  0.31593000  0.44576000  1.0
  C  C114  1  0.04311000  0.36736000  0.53937000  1.0
  C  C115  1  0.61903000  0.23982000  0.57554000  1.0
  C  C116  1  0.54427000  0.37895000  0.48075000  1.0
  C  C117  1  0.83272000  0.20455000  0.62777000  1.0
  C  C118  1  0.37952000  0.43323000  0.06599000  1.0
  C  C119  1  0.68550000  0.20095000  0.58960000  1.0
  C  C120  1  0.06301000  0.61037000  0.14052000  1.0
  C  C121  1  0.54673000  0.38562000  0.34692000  1.0
  C  C122  1  0.04355000  0.44164000  0.12404000  1.0
  C  C123  1  0.99271000  0.58906000  0.24861000  1.0
  C  C124  1  0.22005000  0.44423000  0.02495000  1.0
  C  C125  1  0.97485000  0.27580000  0.35209000  1.0
  C  C126  1  0.70640000  0.37013000  0.60267000  1.0
  C  C127  1  0.26598000  0.12886000  0.55080000  1.0
  C  C128  1  0.35295000  0.37282000  0.72586000  1.0
  C  C129  1  0.43104000  0.35923000  0.74558000  1.0
  C  C130  1  0.21516000  0.98837000  0.51751000  1.0
  C  C131  1  0.30406000  0.22766000  0.71301000  1.0
  C  C132  1  0.52392000  0.27886000  0.90275000  1.0
  C  C133  1  0.87014000  0.17601000  0.08264000  1.0
  C  C134  1  0.90582000  0.05501000  0.94986000  1.0
  C  C135  1  0.50347000  0.24881000  0.96445000  1.0
  C  C136  1  0.28957000  0.30751000  0.70924000  1.0
  C  C137  1  0.48613000  0.11044000  0.92335000  1.0
  C  C138  1  0.03762000  0.07255000  0.59315000  1.0
  C  C139  1  0.38232000  0.21356000  0.73180000  1.0
  C  C140  1  0.48526000  0.02680000  0.67984000  1.0
  C  C141  1  0.41856000  0.00448000  0.57660000  1.0
  C  C142  1  0.90401000  0.05221000  0.88273000  1.0
  C  C143  1  0.44513000  0.27969000  0.74778000  1.0
  C  C144  1  0.73768000  0.25382000  0.11022000  1.0
  C  C145  1  0.20652000  0.32297000  0.68729000  1.0
  C  C146  1  0.40845000  0.92034000  0.58413000  1.0
  C  C147  1  0.00352000  0.17977000  0.87866000  1.0
  C  C148  1  0.47499000  0.94266000  0.68857000  1.0
  C  C149  1  0.50746000  0.14024000  0.86171000  1.0
  C  C150  1  0.18535000  0.13437000  0.57053000  1.0
  C  C151  1  0.72737000  0.16922000  0.11649000  1.0
  C  C152  1  0.48355000  0.16450000  0.97460000  1.0
  C  C153  1  0.13515000  0.99397000  0.53865000  1.0
  C  C154  1  0.95500000  0.11364000  0.77499000  1.0
  C  C155  1  0.00436000  0.18393000  0.94568000  1.0
  C  C156  1  0.45691000  0.13271000  0.03930000  1.0
  C  C157  1  0.88101000  0.26022000  0.07543000  1.0
  C  C158  1  0.95577000  0.12097000  0.98069000  1.0
  C  C159  1  0.66733000  0.29550000  0.12778000  1.0
  C  C160  1  0.12042000  0.06656000  0.56600000  1.0
  C  C161  1  0.81456000  0.29912000  0.08954000  1.0
  C  C162  1  0.43669000  0.88942000  0.64062000  1.0
  C  C163  1  0.95327000  0.11428000  0.84685000  1.0
  C  C164  1  0.45639000  0.05817000  0.62404000  1.0
  C  C165  1  0.50724000  0.91076000  0.74863000  1.0
  C  C166  1  0.27995000  0.05552000  0.52502000  1.0
  C  C167  1  0.52519000  0.22422000  0.85194000  1.0
  C  C168  1  0.79364000  0.12993000  0.10263000  1.0
  S  S1  1  0.45588000  0.62578000  0.43323000  1.0
  S  S2  1  0.04573000  0.76308000  0.72775000  1.0
  S  S3  1  0.88404000  0.54567000  0.99532000  1.0
  S  S4  1  0.04411000  0.87422000  0.93329000  1.0
  S  S5  1  0.45428000  0.73692000  0.22789000  1.0
  S  S6  1  0.61594000  0.95450000  0.49530000  1.0
  S  S7  1  0.54412000  0.37422000  0.56677000  1.0
  S  S8  1  0.95427000  0.23693000  0.27225000  1.0
  S  S9  1  0.11596000  0.45433000  0.00468000  1.0
  S  S10  1  0.95589000  0.12578000  0.06672000  1.0
  S  S11  1  0.54572000  0.26309000  0.77211000  1.0
  S  S12  1  0.38406000  0.04551000  0.50470000  1.0
  O  O1  1  0.10422000  0.75433000  0.34398000  1.0
  O  O2  1  0.51245000  0.66279000  0.75297000  1.0
  O  O3  1  0.52056000  0.64237000  0.89319000  1.0
  O  O4  1  0.00862000  0.33610000  0.74683000  1.0
  O  O5  1  0.64631000  0.76302000  0.81531000  1.0
  O  O6  1  0.95840000  0.68178000  0.41298000  1.0
  O  O7  1  0.39870000  0.56283000  0.75542000  1.0
  O  O8  1  0.17662000  0.87185000  0.38623000  1.0
  O  O9  1  0.48285000  0.50818000  0.89572000  1.0
  O  O10  1  0.03357000  0.46421000  0.70707000  1.0
  O  O11  1  0.70358000  0.89707000  0.82806000  1.0
  O  O12  1  0.92887000  0.55651000  0.45162000  1.0
  O  O13  1  0.10121000  0.84180000  0.72369000  1.0
  O  O14  1  0.06709000  0.69756000  0.76694000  1.0
  O  O15  1  0.87926000  0.48463000  0.04596000  1.0
  O  O16  1  0.93334000  0.62728000  0.00355000  1.0
  O  O17  1  0.43315000  0.54301000  0.40887000  1.0
  O  O18  1  0.53308000  0.67907000  0.41270000  1.0
  O  O19  1  0.39575000  0.74568000  0.84402000  1.0
  O  O20  1  0.98759000  0.83725000  0.25300000  1.0
  O  O21  1  0.97944000  0.85770000  0.39323000  1.0
  O  O22  1  0.49146000  0.16409000  0.24682000  1.0
  O  O23  1  0.85373000  0.73697000  0.31534000  1.0
  O  O24  1  0.54163000  0.81819000  0.91301000  1.0
  O  O25  1  0.10137000  0.93723000  0.25548000  1.0
  O  O26  1  0.32333000  0.62810000  0.88620000  1.0
  O  O27  1  0.01726000  0.99188000  0.39571000  1.0
  O  O28  1  0.46635000  0.03591000  0.20713000  1.0
  O  O29  1  0.79645000  0.60289000  0.32805000  1.0
  O  O30  1  0.57095000  0.94346000  0.95170000  1.0
  O  O31  1  0.39874000  0.65823000  0.22375000  1.0
  O  O32  1  0.43297000  0.80240000  0.26714000  1.0
  O  O33  1  0.62071000  0.01553000  0.54595000  1.0
  O  O34  1  0.56667000  0.87287000  0.50357000  1.0
  O  O35  1  0.06686000  0.95696000  0.90887000  1.0
  O  O36  1  0.96693000  0.82092000  0.91272000  1.0
  O  O37  1  0.89578000  0.24567000  0.65602000  1.0
  O  O38  1  0.48755000  0.33722000  0.24703000  1.0
  O  O39  1  0.47944000  0.35763000  0.10681000  1.0
  O  O40  1  0.99138000  0.66390000  0.25317000  1.0
  O  O41  1  0.35369000  0.23699000  0.18469000  1.0
  O  O42  1  0.04160000  0.31822000  0.58702000  1.0
  O  O43  1  0.60130000  0.43717000  0.24458000  1.0
  O  O44  1  0.82338000  0.12815000  0.61377000  1.0
  O  O45  1  0.51715000  0.49182000  0.10428000  1.0
  O  O46  1  0.96644000  0.53579000  0.29293000  1.0
  O  O47  1  0.29642000  0.10293000  0.17194000  1.0
  O  O48  1  0.07113000  0.44350000  0.54838000  1.0
  O  O49  1  0.89879000  0.15820000  0.27631000  1.0
  O  O50  1  0.93291000  0.30244000  0.23306000  1.0
  O  O51  1  0.12074000  0.51538000  0.95404000  1.0
  O  O52  1  0.06667000  0.37272000  0.99645000  1.0
  O  O53  1  0.56685000  0.45699000  0.59114000  1.0
  O  O54  1  0.46692000  0.32093000  0.58730000  1.0
  O  O55  1  0.60425000  0.25432000  0.15598000  1.0
  O  O56  1  0.01241000  0.16275000  0.74700000  1.0
  O  O57  1  0.02056000  0.14230000  0.60677000  1.0
  O  O58  1  0.50854000  0.83591000  0.75319000  1.0
  O  O59  1  0.14627000  0.26303000  0.68466000  1.0
  O  O60  1  0.45837000  0.18181000  0.08699000  1.0
  O  O61  1  0.89863000  0.06277000  0.74452000  1.0
  O  O62  1  0.67667000  0.37190000  0.11380000  1.0
  O  O63  1  0.98274000  0.00812000  0.60429000  1.0
  O  O64  1  0.53365000  0.96409000  0.79288000  1.0
  O  O65  1  0.20355000  0.39711000  0.67195000  1.0
  O  O66  1  0.42905000  0.05654000  0.04830000  1.0
  O  O67  1  0.60126000  0.34177000  0.77625000  1.0
  O  O68  1  0.56703000  0.19761000  0.73286000  1.0
  O  O69  1  0.37929000  0.98447000  0.45405000  1.0
  O  O70  1  0.43333000  0.12713000  0.49643000  1.0
  O  O71  1  0.93314000  0.04304000  0.09113000  1.0
  O  O72  1  0.03307000  0.17908000  0.08728000  1.0
