# generated using pymatgen
data_CuH8C11O6
_symmetry_space_group_name_H-M   'P 1'
_cell_length_a   7.94431877
_cell_length_b   18.74518363
_cell_length_c   18.79758400
_cell_angle_alpha   60.41643279
_cell_angle_beta   89.56199342
_cell_angle_gamma   89.91278842
_symmetry_Int_Tables_number   1
_chemical_formula_structural   CuH8C11O6
_chemical_formula_sum   'Cu6 H48 C66 O36'
_cell_volume   2434.28844828
_cell_formula_units_Z   6
loop_
 _symmetry_equiv_pos_site_id
 _symmetry_equiv_pos_as_xyz
  1  'x, y, z'
loop_
 _atom_site_type_symbol
 _atom_site_label
 _atom_site_symmetry_multiplicity
 _atom_site_fract_x
 _atom_site_fract_y
 _atom_site_fract_z
 _atom_site_occupancy
  Cu  Cu1  1  0.87974003  0.47545706  0.04622752  1.0
  Cu  Cu2  1  0.90839308  0.04628584  0.47819597  1.0
  Cu  Cu3  1  0.88013844  0.47024756  0.48776313  1.0
  Cu  Cu4  1  0.13333937  0.51819725  0.95677846  1.0
  Cu  Cu5  1  0.13162569  0.51984723  0.52628978  1.0
  Cu  Cu6  1  0.16127774  0.95806069  0.51992253  1.0
  H  H1  1  0.59096536  0.69969047  0.92540080  1.0
  H  H2  1  0.05885100  0.90402546  0.78076680  1.0
  H  H3  1  0.20289567  0.94356199  0.82706924  1.0
  H  H4  1  0.58000749  0.92759867  0.37951423  1.0
  H  H5  1  0.04888604  0.76608505  0.33105916  1.0
  H  H6  1  0.16163779  0.81096937  0.23491307  1.0
  H  H7  1  0.53380434  0.40235582  0.68584819  1.0
  H  H8  1  0.01034165  0.34397703  0.87454579  1.0
  H  H9  1  0.07199746  0.23761164  0.93077402  1.0
  H  H10  1  0.43254563  0.61627027  0.07907108  1.0
  H  H11  1  0.85347885  0.62813286  0.25745367  1.0
  H  H12  1  0.82053417  0.69503076  0.29899389  1.0
  H  H13  1  0.45241737  0.32099704  0.60426746  1.0
  H  H14  1  0.97892199  0.19470091  0.67899945  1.0
  H  H15  1  0.00646151  0.10298733  0.67229427  1.0
  H  H16  1  0.46322459  0.07672784  0.30221136  1.0
  H  H17  1  0.88712859  0.26202089  0.09767740  1.0
  H  H18  1  0.94965151  0.18878309  0.06631195  1.0
  H  H19  1  0.45113261  0.29820733  0.06437751  1.0
  H  H20  1  0.98758208  0.10543839  0.20450823  1.0
  H  H21  1  0.84674881  0.05337267  0.16951628  1.0
  H  H22  1  0.50297344  0.10097801  0.58361057  1.0
  H  H23  1  0.66916160  0.16178744  0.78244720  1.0
  H  H24  1  0.51665531  0.24250614  0.73443485  1.0
  H  H25  1  0.39794130  0.64289007  0.29521147  1.0
  H  H26  1  0.92052479  0.72301420  0.12955440  1.0
  H  H27  1  0.92564369  0.66993862  0.06466412  1.0
  H  H28  1  0.52433890  0.39254589  0.92257792  1.0
  H  H29  1  0.01812240  0.32795742  0.75424755  1.0
  H  H30  1  0.14395464  0.23645095  0.80463501  1.0
  H  H31  1  0.56864009  0.68707790  0.39683130  1.0
  H  H32  1  0.06976116  0.88940100  0.34072543  1.0
  H  H33  1  0.11934395  0.94163379  0.23259607  1.0
  H  H34  1  0.58548307  0.92456536  0.68967746  1.0
  H  H35  1  0.11149145  0.77086613  0.87295674  1.0
  H  H36  1  0.11023431  0.81092601  0.94284390  1.0
  H  H37  1  0.00478188  0.75926065  0.75648682  1.0
  H  H38  1  0.99548114  0.76114837  0.48414613  1.0
  H  H39  1  0.96010404  0.48463028  0.76482442  1.0
  H  H40  1  0.99889884  0.52575282  0.23697110  1.0
  H  H41  1  0.06949642  0.24192390  0.51290159  1.0
  H  H42  1  0.04135674  0.24020067  0.23541923  1.0
  H  H43  1  0.18275659  0.99352720  0.71726119  1.0
  H  H44  1  0.67929832  0.61100838  0.32514533  1.0
  H  H45  1  0.84040205  0.28138843  0.99698311  1.0
  H  H46  1  0.88097761  0.01403882  0.27741382  1.0
  H  H47  1  0.71622692  0.26380511  0.76344268  1.0
  H  H48  1  0.17963194  0.70744808  0.97596162  1.0
  C  C1  1  0.88730584  0.64151177  0.90538176  1.0
  C  C2  1  0.80588830  0.72196736  0.84735003  1.0
  C  C3  1  0.65013139  0.74190793  0.86708082  1.0
  C  C4  1  0.17979474  0.93485118  0.77436999  1.0
  C  C5  1  0.88516511  0.91105353  0.45046635  1.0
  C  C6  1  0.79666435  0.85111781  0.43208182  1.0
  C  C7  1  0.63969136  0.86942023  0.39497134  1.0
  C  C8  1  0.15247276  0.80670999  0.29521612  1.0
  C  C9  1  0.85118288  0.45692367  0.64301259  1.0
  C  C10  1  0.75673953  0.44307512  0.71847672  1.0
  C  C11  1  0.59407516  0.41210728  0.73215156  1.0
  C  C12  1  0.10027268  0.29783790  0.87821100  1.0
  C  C13  1  0.13351515  0.54456442  0.09581535  1.0
  C  C14  1  0.20558533  0.57434504  0.14977588  1.0
  C  C15  1  0.36295843  0.61114507  0.13155363  1.0
  C  C16  1  0.75894501  0.65771144  0.27684381  1.0
  C  C17  1  0.14404083  0.35396183  0.56005477  1.0
  C  C18  1  0.23011580  0.27482945  0.58312951  1.0
  C  C19  1  0.39800517  0.26881725  0.60192981  1.0
  C  C20  1  0.98025220  0.16878390  0.63808049  1.0
  C  C21  1  0.16337495  0.09533602  0.35709774  1.0
  C  C22  1  0.24341466  0.15169314  0.27570590  1.0
  C  C23  1  0.39982042  0.13193502  0.25699268  1.0
  C  C24  1  0.85410653  0.23353322  0.06082547  1.0
  C  C25  1  0.15453194  0.35692221  0.08623314  1.0
  C  C26  1  0.23765266  0.27665664  0.14326826  1.0
  C  C27  1  0.39189625  0.25613062  0.12267338  1.0
  C  C28  1  0.87138107  0.06925573  0.21748098  1.0
  C  C29  1  0.18561548  0.09042192  0.54979802  1.0
  C  C30  1  0.25847849  0.14955446  0.57258839  1.0
  C  C31  1  0.42799225  0.14799274  0.58714382  1.0
  C  C32  1  0.65155539  0.22786008  0.74034394  1.0
  C  C33  1  0.12282870  0.55124657  0.35956472  1.0
  C  C34  1  0.19057335  0.58394107  0.27375477  1.0
  C  C35  1  0.34252990  0.62645963  0.25251677  1.0
  C  C36  1  0.87080099  0.68012628  0.11178259  1.0
  C  C37  1  0.84171590  0.45289916  0.91204722  1.0
  C  C38  1  0.75083044  0.43874358  0.85029490  1.0
  C  C39  1  0.58900341  0.40590732  0.86595313  1.0
  C  C40  1  0.12058806  0.29751025  0.79735419  1.0
  C  C41  1  0.87507950  0.63669384  0.46436362  1.0
  C  C42  1  0.79060007  0.71681227  0.44132286  1.0
  C  C43  1  0.63259947  0.73336066  0.40571990  1.0
  C  C44  1  0.14947425  0.88966482  0.29267517  1.0
  C  C45  1  0.89297914  0.90778768  0.63787270  1.0
  C  C46  1  0.80601552  0.84944336  0.71686987  1.0
  C  C47  1  0.64731090  0.86846302  0.73445447  1.0
  C  C48  1  0.17396162  0.77032982  0.92485521  1.0
  C  C49  1  0.56817696  0.81488917  0.81011286  1.0
  C  C50  1  0.88417083  0.77556294  0.77236882  1.0
  C  C51  1  0.40369282  0.83358267  0.82761473  1.0
  C  C52  1  0.55654055  0.81056753  0.38095545  1.0
  C  C53  1  0.87313342  0.77528350  0.45471793  1.0
  C  C54  1  0.39713787  0.82700180  0.34357698  1.0
  C  C55  1  0.50953708  0.39180107  0.80657268  1.0
  C  C56  1  0.83456512  0.45790739  0.77668801  1.0
  C  C57  1  0.34965519  0.35451635  0.82017619  1.0
  C  C58  1  0.43383092  0.64041410  0.18148540  1.0
  C  C59  1  0.11284127  0.56267041  0.21936288  1.0
  C  C60  1  0.59720386  0.67559151  0.16744286  1.0
  C  C61  1  0.50951641  0.20594004  0.60580866  1.0
  C  C62  1  0.13424721  0.21171030  0.57204064  1.0
  C  C63  1  0.68042302  0.20827222  0.62495758  1.0
  C  C64  1  0.47507604  0.18340780  0.17968158  1.0
  C  C65  1  0.16164875  0.22402547  0.21924547  1.0
  C  C66  1  0.63721820  0.16361558  0.16204307  1.0
  O  O1  1  0.81083524  0.59640099  0.97264155  1.0
  O  O2  1  0.02626613  0.62587208  0.88126272  1.0
  O  O3  1  0.31404273  0.88766947  0.76519458  1.0
  O  O4  1  0.80036224  0.97282415  0.44084714  1.0
  O  O5  1  0.03744611  0.89399878  0.47400063  1.0
  O  O6  1  0.30732854  0.76962462  0.33880305  1.0
  O  O7  1  0.77459211  0.43603950  0.59685049  1.0
  O  O8  1  0.99967439  0.48600073  0.63366187  1.0
  O  O9  1  0.26620009  0.32239382  0.89126174  1.0
  O  O10  1  0.21223311  0.56364254  0.02910390  1.0
  O  O11  1  0.99656816  0.50373451  0.12029250  1.0
  O  O12  1  0.65440236  0.71365875  0.20794580  1.0
  O  O13  1  0.22295072  0.40820816  0.56986459  1.0
  O  O14  1  0.99643779  0.36234891  0.52991069  1.0
  O  O15  1  0.80901545  0.17168036  0.60829436  1.0
  O  O16  1  0.25171456  0.03480546  0.40754458  1.0
  O  O17  1  0.01369037  0.11312272  0.36768153  1.0
  O  O18  1  0.68881685  0.19444565  0.08461029  1.0
  O  O19  1  0.24452608  0.41079215  0.02816106  1.0
  O  O20  1  0.00070160  0.36404831  0.10170868  1.0
  O  O21  1  0.73222028  0.11399747  0.22557310  1.0
  O  O22  1  0.26896567  0.02661757  0.56278957  1.0
  O  O23  1  0.03788398  0.10925809  0.51876676  1.0
  O  O24  1  0.72843075  0.25118997  0.66225869  1.0
  O  O25  1  0.21572499  0.55985039  0.40988578  1.0
  O  O26  1  0.97992673  0.51488347  0.37604828  1.0
  O  O27  1  0.70525287  0.66374520  0.12017555  1.0
  O  O28  1  0.75535693  0.44749720  0.97198564  1.0
  O  O29  1  0.99878603  0.46808794  0.89896549  1.0
  O  O30  1  0.27152134  0.34637477  0.76201023  1.0
  O  O31  1  0.78677512  0.58296621  0.45914407  1.0
  O  O32  1  0.02886959  0.63079572  0.48558012  1.0
  O  O33  1  0.32297316  0.90033077  0.31081772  1.0
  O  O34  1  0.81175985  0.97220966  0.58962785  1.0
  O  O35  1  0.04021266  0.88754158  0.62695306  1.0
  O  O36  1  0.34957917  0.79612610  0.90437905  1.0
