# generated using pymatgen
data_H24C37N8
_symmetry_space_group_name_H-M   'P 1'
_cell_length_a   32.12350000
_cell_length_b   32.12350000
_cell_length_c   47.15140000
_cell_angle_alpha   90.00000000
_cell_angle_beta   90.00000000
_cell_angle_gamma   120.00000000
_symmetry_Int_Tables_number   1
_chemical_formula_structural   H24C37N8
_chemical_formula_sum   'H144 C222 N48'
_cell_volume   42137.71087250
_cell_formula_units_Z   6
loop_
 _symmetry_equiv_pos_site_id
 _symmetry_equiv_pos_as_xyz
  1  'x, y, z'
loop_
 _atom_site_type_symbol
 _atom_site_label
 _atom_site_symmetry_multiplicity
 _atom_site_fract_x
 _atom_site_fract_y
 _atom_site_fract_z
 _atom_site_occupancy
  H  1  1  0.94778100  0.32625300  0.96732800  1
  H  3  1  0.95098500  0.24275700  0.84276900  1
  H  5  1  0.96662100  0.66909600  0.59063100  1
  H  6  1  0.96585200  0.59730900  0.56556900  1
  H  7  1  0.93621300  0.80534700  0.71646600  1
  H  12  1  0.94765900  0.54364500  0.99409300  1
  H  21  1  0.95815500  0.72595800  0.82809400  1
  H  30  1  0.92133400  0.13919300  0.88796800  1
  H  31  1  0.90844200  0.12092700  0.01276700  1
  H  32  1  0.90350900  0.16267300  0.97231100  1
  H  33  1  0.91740300  0.24632200  0.95224100  1
  H  36  1  0.91712400  0.70034700  0.60533700  1
  H  37  1  0.90813100  0.68464000  0.70169300  1
  H  39  1  0.90128100  0.45683200  0.99389500  1
  H  40  1  0.90988200  0.69951800  0.78555000  1
  H  44  1  0.88205300  0.24151000  0.86396500  1
  H  46  1  0.87682000  0.37302800  0.00170300  1
  H  68  1  0.87244800  0.12075900  0.92931500  1
  H  69  1  0.83568500  0.22482900  0.90545100  1
  H  70  1  0.75602500  0.19548900  0.93447000  1
  H  71  1  0.67439000  0.14556900  0.92077600  1
  H  72  1  0.69238200  0.02420300  0.92403400  1
  H  73  1  0.77312500  0.07369900  0.93875100  1
  H  74  1  0.76157100  0.12332100  0.99488000  1
  H  75  1  0.76648100  0.08275500  0.03505300  1
  H  76  1  0.78014400  0.20956500  0.98312700  1
  H  77  1  0.81026700  0.29021700  0.99796600  1
  H  78  1  0.62142300  0.02492700  0.89893600  1
  H  80  1  0.85908000  0.05455900  0.04976100  1
  H  107  1  0.20770700  0.06934200  0.22138900  1
  H  108  1  0.23817100  0.11824600  0.26272800  1
  H  109  1  0.34932000  0.10886200  0.19727700  1
  H  110  1  0.37902900  0.15525700  0.23875000  1
  H  111  1  0.42940400  0.23485600  0.26790300  1
  H  112  1  0.46111900  0.31650000  0.25422300  1
  H  113  1  0.32171800  0.29842200  0.25732600  1
  H  114  1  0.29047200  0.21767600  0.27203200  1
  H  115  1  0.35154800  0.22931200  0.32819600  1
  H  116  1  0.30611600  0.22433300  0.36839600  1
  H  117  1  0.20257100  0.08222900  0.34622100  1
  H  118  1  0.24921300  0.08725000  0.30572800  1
  H  119  1  0.31890800  0.07345000  0.28550300  1
  H  120  1  0.41923300  0.21064800  0.31655200  1
  H  121  1  0.46976900  0.18054400  0.33140200  1
  H  122  1  0.36846400  0.04309200  0.30059900  1
  H  125  1  0.39350300  0.36944900  0.23227300  1
  H  126  1  0.28160500  0.03973500  0.17618500  1
  H  128  1  0.18545400  0.13152200  0.38321800  1
  H  130  1  0.48614000  0.11404900  0.33505000  1
  H  151  1  0.85155100  0.78315800  0.55472600  1
  H  152  1  0.87001100  0.75266400  0.59604400  1
  H  153  1  0.74944000  0.64156100  0.53059300  1
  H  154  1  0.76614300  0.61182600  0.57204600  1
  H  155  1  0.79536200  0.56142100  0.60118700  1
  H  156  1  0.84528700  0.52970300  0.58750700  1
  H  157  1  0.86763800  0.63921900  0.66149700  1
  H  158  1  0.86967900  0.78826700  0.67952400  1
  H  159  1  0.82800800  0.74163100  0.63903900  1
  H  160  1  0.74448800  0.67194700  0.61883000  1
  H  161  1  0.78131800  0.57157200  0.64983600  1
  H  162  1  0.70067900  0.52105600  0.66469900  1
  H  163  1  0.66456900  0.62240900  0.63393900  1
  H  166  1  0.74800000  0.70932700  0.50956900  1
  H  167  1  0.61785100  0.50476300  0.66841900  1
  H  193  1  0.07223800  0.85934400  0.88549300  1
  H  194  1  0.11874000  0.87643500  0.92773300  1
  H  195  1  0.11144600  0.75648700  0.86267100  1
  H  196  1  0.15513000  0.77168800  0.90504300  1
  H  197  1  0.23413100  0.80322300  0.93310400  1
  H  198  1  0.31748800  0.85553000  0.92554100  1
  H  199  1  0.29763800  0.97515200  0.93535900  1
  H  200  1  0.21496900  0.92285400  0.94371900  1
  H  201  1  0.21990400  0.86039100  0.99811200  1
  H  202  1  0.21479700  0.90016600  0.03863700  1
  H  203  1  0.08097500  0.87932100  0.01043600  1
  H  204  1  0.08574200  0.83785800  0.96984700  1
  H  205  1  0.06989100  0.75185900  0.95248800  1
  H  206  1  0.20645800  0.77929500  0.97929600  1
  H  207  1  0.17367500  0.69663800  0.99029600  1
  H  208  1  0.03683100  0.66997400  0.96397600  1
  H  211  1  0.37758000  0.98812100  0.93096000  1
  H  212  1  0.04813100  0.75852100  0.83786600  1
  H  214  1  0.12942900  0.94008300  0.04968200  1
  H  216  1  0.10698700  0.61292900  0.98296200  1
  H  242  1  0.77706900  0.91870500  0.21886900  1
  H  243  1  0.74762700  0.87215100  0.26108800  1
  H  244  1  0.63502100  0.87947900  0.19600200  1
  H  245  1  0.60649500  0.83572200  0.23835700  1
  H  246  1  0.55899000  0.75670800  0.26646100  1
  H  247  1  0.52795100  0.67335700  0.25889100  1
  H  248  1  0.66744700  0.69323900  0.26864900  1
  H  249  1  0.69780600  0.77590000  0.27701600  1
  H  250  1  0.63042100  0.77092300  0.33143000  1
  H  251  1  0.67530800  0.77604500  0.37195900  1
  H  252  1  0.78821700  0.90993100  0.34378800  1
  H  253  1  0.74198200  0.90514300  0.30320000  1
  H  254  1  0.67185500  0.92096500  0.28579600  1
  H  255  1  0.56278400  0.78439900  0.31265600  1
  H  256  1  0.51291500  0.81717700  0.32368500  1
  H  257  1  0.62303600  0.95401200  0.29730800  1
  H  260  1  0.60046500  0.61328300  0.26432300  1
  H  261  1  0.70047400  0.94307400  0.17135200  1
  H  263  1  0.80056000  0.86143500  0.38301500  1
  H  265  1  0.49587400  0.88384600  0.31643800  1
  H  291  1  0.13149300  0.21388000  0.55211300  1
  H  292  1  0.11444800  0.24327100  0.59437500  1
  H  293  1  0.23440500  0.35594100  0.52932400  1
  H  294  1  0.21922500  0.38440900  0.57172400  1
  H  295  1  0.18765900  0.43185700  0.59978100  1
  H  296  1  0.13534200  0.46289500  0.59222000  1
  H  297  1  0.01573300  0.32339700  0.60199000  1
  H  298  1  0.06804000  0.29304200  0.61035100  1
  H  299  1  0.13049600  0.36044800  0.66477500  1
  H  300  1  0.09069200  0.31555300  0.70529200  1
  H  301  1  0.11150000  0.20255800  0.67707600  1
  H  302  1  0.15299000  0.24880300  0.63649800  1
  H  303  1  0.23903900  0.31898800  0.61916700  1
  H  304  1  0.21155800  0.42809800  0.64597400  1
  H  305  1  0.29420400  0.47796100  0.65701300  1
  H  306  1  0.32089900  0.36780700  0.63068700  1
  H  309  1  0.00275800  0.39038200  0.59767900  1
  H  310  1  0.23209000  0.29067400  0.50431400  1
  H  312  1  0.05079700  0.19024700  0.71634800  1
  H  314  1  0.37790900  0.49499100  0.64971500  1
  H  324  1  0.54548100  0.08956900  0.32723500  1
  H  325  1  0.58590100  0.04317600  0.32744700  1
  H  334  1  0.53402400  0.44539000  0.66060000  1
  H  335  1  0.44721400  0.40497200  0.66084100  1
  H  344  1  0.44610600  0.53559300  0.23935800  1
  H  345  1  0.40628200  0.44888600  0.23988200  1
  H  354  1  0.45525500  0.91141600  0.90604500  1
  H  355  1  0.54196800  0.95831900  0.90652400  1
  H  362  1  0.07939800  0.54471400  0.57264200  1
  H  363  1  0.03250400  0.58452900  0.57315400  1
  H  370  1  0.75803800  0.03282500  0.16145800  1
  H  371  1  0.77994300  0.08112400  0.11892700  1
  H  380  1  0.26503100  0.23337800  0.49470200  1
  H  381  1  0.29139900  0.21146400  0.45216500  1
  H  393  1  0.22196600  0.95443400  0.16344500  1
  H  394  1  0.19938200  0.90604100  0.12097000  1
  H  403  1  0.72239900  0.76893000  0.49678500  1
  H  404  1  0.69658700  0.79153000  0.45431900  1
  H  411  1  0.03633500  0.26847100  0.83007200  1
  H  412  1  0.08473300  0.29426700  0.78759900  1
  C  2  1  0.93928900  0.20910000  0.84919900  1
  C  4  1  0.93056100  0.64576100  0.59315900  1
  C  8  1  0.94121200  0.57910700  0.58031600  1
  C  9  1  0.96445500  0.52420800  0.99045400  1
  C  10  1  0.93752100  0.47367600  0.99045500  1
  C  11  1  0.96072500  0.44712700  0.98456200  1
  C  14  1  0.96952100  0.52497800  0.59035300  1
  C  18  1  0.94867400  0.76652400  0.76429300  1
  C  19  1  0.93762800  0.73422000  0.78700300  1
  C  20  1  0.96583200  0.74955900  0.81169300  1
  C  24  1  0.98524400  0.19956500  0.81403700  1
  C  27  1  0.91202100  0.30239400  0.97049300  1
  C  28  1  0.90284000  0.15705600  0.89129300  1
  C  29  1  0.90730800  0.19271900  0.87191600  1
  C  34  1  0.91101600  0.59605000  0.58854700  1
  C  35  1  0.90109100  0.66410900  0.60191600  1
  C  38  1  0.91990200  0.76971500  0.71773700  1
  C  41  1  0.88175000  0.31728900  0.98317800  1
  C  42  1  0.89367100  0.25473800  0.96136500  1
  C  43  1  0.88038600  0.21564300  0.87740100  1
  C  45  1  0.89814700  0.36515300  0.99044200  1
  C  47  1  0.89415800  0.74192200  0.69449300  1
  C  48  1  0.89196200  0.69776300  0.68856500  1
  C  49  1  0.87684900  0.12043200  0.00887700  1
  C  50  1  0.83330300  0.28160600  0.98803600  1
  C  51  1  0.81522600  0.23387400  0.97877600  1
  C  52  1  0.84387700  0.21981100  0.96309000  1
  C  53  1  0.82482500  0.16904900  0.95111500  1
  C  54  1  0.83028700  0.14355700  0.97715600  1
  C  55  1  0.87355100  0.14442200  0.98460300  1
  C  56  1  0.83767400  0.09658800  0.02779100  1
  C  57  1  0.79575200  0.09888600  0.02190800  1
  C  58  1  0.79275400  0.12257700  0.99765800  1
  C  59  1  0.77291000  0.13986500  0.94032900  1
  C  60  1  0.85137500  0.17323100  0.92324500  1
  C  61  1  0.87478600  0.14704600  0.91616000  1
  C  62  1  0.85280600  0.20563000  0.90214700  1
  C  63  1  0.74296900  0.15932700  0.93359400  1
  C  64  1  0.69476000  0.12995000  0.92504300  1
  C  65  1  0.67497300  0.07982500  0.92187800  1
  C  66  1  0.70512100  0.06027000  0.92653600  1
  C  67  1  0.75293400  0.08973900  0.93530000  1
  C  79  1  0.83971300  0.07082400  0.05102700  1
  C  81  1  0.62784200  0.04965000  0.91362300  1
  C  82  1  0.42545100  0.10909800  0.31653500  1
  C  83  1  0.43815400  0.15751300  0.32144100  1
  C  84  1  0.40847700  0.17557200  0.31219000  1
  C  85  1  0.36584800  0.14696100  0.29642100  1
  C  86  1  0.35100800  0.09717500  0.29467800  1
  C  87  1  0.38031800  0.07883200  0.30380800  1
  C  88  1  0.33412600  0.16600900  0.28446400  1
  C  89  1  0.30315400  0.16054800  0.31049500  1
  C  90  1  0.26086700  0.11721800  0.31800300  1
  C  91  1  0.23359900  0.11387200  0.34229500  1
  C  92  1  0.24886300  0.15306500  0.36118900  1
  C  93  1  0.29300600  0.19505100  0.35526400  1
  C  94  1  0.31966800  0.19808600  0.33099300  1
  C  95  1  0.35686700  0.21792700  0.27368200  1
  C  96  1  0.31173700  0.13945800  0.25659900  1
  C  97  1  0.26212300  0.11596200  0.24954900  1
  C  98  1  0.24407200  0.08791400  0.22468000  1
  C  99  1  0.27526800  0.08348400  0.20528700  1
  C  100  1  0.32511700  0.11043600  0.21075500  1
  C  101  1  0.34269800  0.13807100  0.23547900  1
  C  102  1  0.40628600  0.24789200  0.26699100  1
  C  103  1  0.42511800  0.29610600  0.25844600  1
  C  104  1  0.39476800  0.31587200  0.25524800  1
  C  105  1  0.34505700  0.28570100  0.25985800  1
  C  106  1  0.32671100  0.23788300  0.26861100  1
  C  123  1  0.25966600  0.05147700  0.18258600  1
  C  124  1  0.45693500  0.09271700  0.32379500  1
  C  127  1  0.22108700  0.15095800  0.38445500  1
  C  129  1  0.41171000  0.36300800  0.24701700  1
  C  131  1  0.67356600  0.56539600  0.64984900  1
  C  132  1  0.70927000  0.55267400  0.65473800  1
  C  133  1  0.75700400  0.58233800  0.64548000  1
  C  134  1  0.77102900  0.62497500  0.62971800  1
  C  135  1  0.73608200  0.63981300  0.62796800  1
  C  136  1  0.68844000  0.61053200  0.63712800  1
  C  137  1  0.82180200  0.65669700  0.61776300  1
  C  138  1  0.84730900  0.68765000  0.64380300  1
  C  139  1  0.84630600  0.72995400  0.65131500  1
  C  140  1  0.87025600  0.75721900  0.67560200  1
  C  141  1  0.86831400  0.67111000  0.66429600  1
  C  142  1  0.85097700  0.63395600  0.60697900  1
  C  143  1  0.81765100  0.67910300  0.58990200  1
  C  144  1  0.84377700  0.72871900  0.58286100  1
  C  145  1  0.83379300  0.74678700  0.55799600  1
  C  146  1  0.79814300  0.71560500  0.53860900  1
  C  147  1  0.77526300  0.66575200  0.54405400  1
  C  148  1  0.78530200  0.64815600  0.56877800  1
  C  149  1  0.83151800  0.58454000  0.60027500  1
  C  150  1  0.86089800  0.56570200  0.59174000  1
  C  164  1  0.78171000  0.73122900  0.51593100  1
  C  165  1  0.62571100  0.53393900  0.65713600  1
  C  168  1  0.10209100  0.67427000  0.97754500  1
  C  169  1  0.15131500  0.70774700  0.98212100  1
  C  170  1  0.17096800  0.75668400  0.97501300  1
  C  171  1  0.14307700  0.77418600  0.96174500  1
  C  172  1  0.09275900  0.74114300  0.96028600  1
  C  173  1  0.07284600  0.69236600  0.96733000  1
  C  174  1  0.16311800  0.82584800  0.95103400  1
  C  175  1  0.15562500  0.84866400  0.97771700  1
  C  176  1  0.11425900  0.85245000  0.98342600  1
  C  177  1  0.11086300  0.87607400  0.00784900  1
  C  178  1  0.14779000  0.89499900  0.02848900  1
  C  179  1  0.18716400  0.88759700  0.02430200  1
  C  180  1  0.19026200  0.86420700  0.99994400  1
  C  181  1  0.21582000  0.85702200  0.94201400  1
  C  182  1  0.13876700  0.82303600  0.92251500  1
  C  183  1  0.11649800  0.85001200  0.91475100  1
  C  184  1  0.08993600  0.84083000  0.88931600  1
  C  185  1  0.08606300  0.80538600  0.86993700  1
  C  186  1  0.11243000  0.78207600  0.87607300  1
  C  187  1  0.13850600  0.79125700  0.90137700  1
  C  188  1  0.24691700  0.83928700  0.93459400  1
  C  189  1  0.29633200  0.87037300  0.92948100  1
  C  190  1  0.31670100  0.92093700  0.93054900  1
  C  191  1  0.28503400  0.93890000  0.93491200  1
  C  192  1  0.23587000  0.90769400  0.93992700  1
  C  209  1  0.05572600  0.79001300  0.84636900  1
  C  210  1  0.08407200  0.62520500  0.98183000  1
  C  213  1  0.14638700  0.92145100  0.05156300  1
  C  215  1  0.36594900  0.95321800  0.92837200  1
  C  217  1  0.56209400  0.88875300  0.31090200  1
  C  218  1  0.54636700  0.83953500  0.31548800  1
  C  219  1  0.57564800  0.81988400  0.30836200  1
  C  220  1  0.62102200  0.84777300  0.29507300  1
  C  221  1  0.63827600  0.89808600  0.29359700  1
  C  222  1  0.60941100  0.91799500  0.30065000  1
  C  223  1  0.65264500  0.82773700  0.28436200  1
  C  224  1  0.68295500  0.83522200  0.31104500  1
  C  225  1  0.72808000  0.87661400  0.31676900  1
  C  226  1  0.75510100  0.88001900  0.34119200  1
  C  227  1  0.73712200  0.84307600  0.36182100  1
  C  228  1  0.69036100  0.80368000  0.35762600  1
  C  229  1  0.66388800  0.80055300  0.33325800  1
  C  230  1  0.63111800  0.77503800  0.27533400  1
  C  231  1  0.67420000  0.85209300  0.25584600  1
  C  232  1  0.72345300  0.87439000  0.24810000  1
  C  233  1  0.74085100  0.90096700  0.22267200  1
  C  234  1  0.70929100  0.90486900  0.20329800  1
  C  235  1  0.65961300  0.87851400  0.20942500  1
  C  236  1  0.64269500  0.85236600  0.23470300  1
  C  237  1  0.58227900  0.74393500  0.26792800  1
  C  238  1  0.56395600  0.69451900  0.26281700  1
  C  239  1  0.59415800  0.67415900  0.26385800  1
  C  240  1  0.64378900  0.70583400  0.26821400  1
  C  241  1  0.66174600  0.75499800  0.27323200  1
  C  258  1  0.72428100  0.93527000  0.17975900  1
  C  259  1  0.53105300  0.90677100  0.31521200  1
  C  262  1  0.76497400  0.84451500  0.38490500  1
  C  264  1  0.57720300  0.62491400  0.26169100  1
  C  266  1  0.31658800  0.42875500  0.64427300  1
  C  267  1  0.28310700  0.44450500  0.64882500  1
  C  268  1  0.23417400  0.41522000  0.64170100  1
  C  269  1  0.21669000  0.36983500  0.62842900  1
  C  270  1  0.24972200  0.35254200  0.62700600  1
  C  271  1  0.29850300  0.38142400  0.63404000  1
  C  272  1  0.16504100  0.33821200  0.61769900  1
  C  273  1  0.14219700  0.30788500  0.64437300  1
  C  274  1  0.13839500  0.26272600  0.65007800  1
  C  275  1  0.11475600  0.23569800  0.67449500  1
  C  276  1  0.09582800  0.25369800  0.69513500  1
  C  277  1  0.10326100  0.30048700  0.69095900  1
  C  278  1  0.12662300  0.32696500  0.66659500  1
  C  279  1  0.13386400  0.35973200  0.60866900  1
  C  280  1  0.16788000  0.31668800  0.58918100  1
  C  281  1  0.14088000  0.26745700  0.58139700  1
  C  282  1  0.15001800  0.25008900  0.55594300  1
  C  283  1  0.18551300  0.28165900  0.53658400  1
  C  284  1  0.20886800  0.33132900  0.54274500  1
  C  285  1  0.19971500  0.34820900  0.56806400  1
  C  286  1  0.15159400  0.40856900  0.60126100  1
  C  287  1  0.12050200  0.42688500  0.59612600  1
  C  288  1  0.06994000  0.39668600  0.59719700  1
  C  289  1  0.05198600  0.34705500  0.60154900  1
  C  290  1  0.08319600  0.32910100  0.60656500  1
  C  307  1  0.20076300  0.26670300  0.51295200  1
  C  308  1  0.36564800  0.45980400  0.64856400  1
  C  311  1  0.06937600  0.22584200  0.71820800  1
  C  313  1  0.03764600  0.41363800  0.59502400  1
  C  315  1  0.01412300  0.54747400  0.98474700  1
  C  319  1  0.52323700  0.97669100  0.31817500  1
  C  320  1  0.54966200  0.02638000  0.32382000  1
  C  321  1  0.52607300  0.05332400  0.32382000  1
  C  322  1  0.47631700  0.03012100  0.31794400  1
  C  329  1  0.44337800  0.46761800  0.65154400  1
  C  330  1  0.46665000  0.44121200  0.65722300  1
  C  331  1  0.51718400  0.46480500  0.65722100  1
  C  332  1  0.54372900  0.51454200  0.65128500  1
  C  339  1  0.46585900  0.44545000  0.25703300  1
  C  340  1  0.44111700  0.46837300  0.24660700  1
  C  341  1  0.46411800  0.51887500  0.24649500  1
  C  342  1  0.51155700  0.54583700  0.25664500  1
  C  349  1  0.54540900  0.02134400  0.92365800  1
  C  350  1  0.52247900  0.97365100  0.91327800  1
  C  351  1  0.47197700  0.94614700  0.91317900  1
  C  352  1  0.44502100  0.96663200  0.92332600  1
  C  359  1  0.01719100  0.54972200  0.57993400  1
  C  360  1  0.04468600  0.52671700  0.57980900  1
  C  361  1  0.02422300  0.47929100  0.58997400  1
  C  365  1  0.80797800  0.04220700  0.09763200  1
  C  366  1  0.78681700  0.05332200  0.12036300  1
  C  367  1  0.77393600  0.02511800  0.14505600  1
  C  368  1  0.78120100  0.98524900  0.14645300  1
  C  375  1  0.22425900  0.18286800  0.43102200  1
  C  376  1  0.25665600  0.20436300  0.45366600  1
  C  377  1  0.24135100  0.21726800  0.47835500  1
  C  378  1  0.19409500  0.20965300  0.47984300  1
  C  385  1  0.00555100  0.79678000  0.81314000  1
  C  388  1  0.17646700  0.94842500  0.09862700  1
  C  389  1  0.19487000  0.93538300  0.12193900  1
  C  390  1  0.20821500  0.96369600  0.14659600  1
  C  391  1  0.20419800  0.00554900  0.14740400  1
  C  398  1  0.76187300  0.81443100  0.43196400  1
  C  399  1  0.73045400  0.79607500  0.45529100  1
  C  400  1  0.74543200  0.78273800  0.47994500  1
  C  401  1  0.79127700  0.78668400  0.48073000  1
  C  408  1  0.04239300  0.22894100  0.76527300  1
  C  409  1  0.05543400  0.26039100  0.78858300  1
  C  410  1  0.02711400  0.24542800  0.81323800  1
  N  13  1  0.93890600  0.39969300  0.98179300  1
  N  15  1  0.97835400  0.45816400  0.60003300  1
  N  16  1  0.95280900  0.47965700  0.60026400  1
  N  17  1  0.94113200  0.54381800  0.59325900  1
  N  22  1  0.98702100  0.81169300  0.76735400  1
  N  23  1  0.92464800  0.74986300  0.74024700  1
  N  25  1  0.97530500  0.17124500  0.79068800  1
  N  26  1  0.95430100  0.18420600  0.83570600  1
  N  316  1  0.00856600  0.47235500  0.97878600  1
  N  317  1  0.03375100  0.51943400  0.97889600  1
  N  318  1  0.03865400  0.59499600  0.98271400  1
  N  323  1  0.45369400  0.98227500  0.31218100  1
  N  326  1  0.47557900  0.95708200  0.31230600  1
  N  327  1  0.54625100  0.95218900  0.31608400  1
  N  328  1  0.45070700  0.05194500  0.31516700  1
  N  333  1  0.51850000  0.53715000  0.64550300  1
  N  336  1  0.47142500  0.51526700  0.64564100  1
  N  337  1  0.39586100  0.44460100  0.64947200  1
  N  338  1  0.59116000  0.54014300  0.64849000  1
  N  343  1  0.53269000  0.52109500  0.26669400  1
  N  346  1  0.51119100  0.47405600  0.26692900  1
  N  347  1  0.44701200  0.39822000  0.25995000  1
  N  348  1  0.53268300  0.59348400  0.25773300  1
  N  353  1  0.46977000  0.01252100  0.93335300  1
  N  356  1  0.51680800  0.03807000  0.93356300  1
  N  357  1  0.59263800  0.04975200  0.92655600  1
  N  358  1  0.39737300  0.94011600  0.92443100  1
  N  364  1  0.05073700  0.45815600  0.59105800  1
  N  369  1  0.80208100  0.97705300  0.12365200  1
  N  372  1  0.81453000  0.00368200  0.10063700  1
  N  373  1  0.81521500  0.06616000  0.07356900  1
  N  374  1  0.76636100  0.95473800  0.16832800  1
  N  379  1  0.16489800  0.18844500  0.45713600  1
  N  382  1  0.17907200  0.17599600  0.43411600  1
  N  383  1  0.24093000  0.17559200  0.40695500  1
  N  384  1  0.17843500  0.22442400  0.50175600  1
  N  386  1  0.01362300  0.82590100  0.79037900  1
  N  387  1  0.03603100  0.81247900  0.83503000  1
  N  392  1  0.18586900  0.01551600  0.12404100  1
  N  395  1  0.17297400  0.98882500  0.10105300  1
  N  396  1  0.16895000  0.92421500  0.07464600  1
  N  397  1  0.21979300  0.03651100  0.16906400  1
  N  402  1  0.81955500  0.80498700  0.45735800  1
  N  405  1  0.80575300  0.81789000  0.43437700  1
  N  406  1  0.74517100  0.82194800  0.40798800  1
  N  407  1  0.80663900  0.77106400  0.50237900  1
  N  413  1  0.00200700  0.18504000  0.76770600  1
  N  414  1  0.06659000  0.24563700  0.74129100  1
