# generated using pymatgen
data_Cd7H32C60(NO4)6
_symmetry_space_group_name_H-M   'P 1'
_cell_length_a   18.32479000
_cell_length_b   22.60370000
_cell_length_c   26.03952000
_cell_angle_alpha   89.96441000
_cell_angle_beta   91.33253000
_cell_angle_gamma   89.85758000
_symmetry_Int_Tables_number   1
_chemical_formula_structural   Cd7H32C60(NO4)6
_chemical_formula_sum   'Cd28 H128 C240 N24 O96'
_cell_volume   10782.82632540
_cell_formula_units_Z   4
loop_
 _symmetry_equiv_pos_site_id
 _symmetry_equiv_pos_as_xyz
  1  'x, y, z'
loop_
 _atom_site_type_symbol
 _atom_site_label
 _atom_site_symmetry_multiplicity
 _atom_site_fract_x
 _atom_site_fract_y
 _atom_site_fract_z
 _atom_site_occupancy
  Cd  Cd1  1  0.64585000  0.55754000  0.40444000  1.0
  Cd  Cd2  1  0.74584000  0.64766000  0.49427000  1.0
  Cd  Cd3  1  0.84220000  0.57197000  0.59381000  1.0
  Cd  Cd4  1  0.49129000  0.87621000  0.74614000  1.0
  Cd  Cd5  1  0.85213000  0.31528000  0.09356000  1.0
  Cd  Cd6  1  0.74758000  0.39774000  0.00299000  1.0
  Cd  Cd7  1  0.84443000  0.81325000  0.09690000  1.0
  Cd  Cd8  1  0.85535000  0.05738000  0.59536000  1.0
  Cd  Cd9  1  0.75424000  0.14826000  0.50616000  1.0
  Cd  Cd10  1  0.65652000  0.07147000  0.40558000  1.0
  Cd  Cd11  1  0.00814000  0.37849000  0.25218000  1.0
  Cd  Cd12  1  0.64937000  0.81565000  0.90565000  1.0
  Cd  Cd13  1  0.75391000  0.89793000  0.99706000  1.0
  Cd  Cd14  1  0.65409000  0.31281000  0.90347000  1.0
  Cd  Cd15  1  0.35390000  0.44246000  0.59553000  1.0
  Cd  Cd16  1  0.25405000  0.35238000  0.50552000  1.0
  Cd  Cd17  1  0.15724000  0.42854000  0.40584000  1.0
  Cd  Cd18  1  0.50869000  0.12424000  0.25389000  1.0
  Cd  Cd19  1  0.14747000  0.68514000  0.90664000  1.0
  Cd  Cd20  1  0.25258000  0.60259000  0.99696000  1.0
  Cd  Cd21  1  0.15584000  0.18664000  0.90310000  1.0
  Cd  Cd22  1  0.14456000  0.94274000  0.40463000  1.0
  Cd  Cd23  1  0.24566000  0.85142000  0.49409000  1.0
  Cd  Cd24  1  0.34312000  0.92828000  0.59449000  1.0
  Cd  Cd25  1  0.99375000  0.62129000  0.75005000  1.0
  Cd  Cd26  1  0.35049000  0.18475000  0.09452000  1.0
  Cd  Cd27  1  0.24648000  0.10232000  0.00298000  1.0
  Cd  Cd28  1  0.34600000  0.68728000  0.09651000  1.0
  H  H1  1  0.64245000  0.56663000  0.22158000  1.0
  H  H2  1  0.67901000  0.53096000  0.13404000  1.0
  H  H3  1  0.74797000  0.36561000  0.20017000  1.0
  H  H4  1  0.71541000  0.40274000  0.28821000  1.0
  H  H5  1  0.74211000  0.61752000  0.29956000  1.0
  H  H6  1  0.77564000  0.65573000  0.21237000  1.0
  H  H7  1  0.84639000  0.81915000  0.28007000  1.0
  H  H8  1  0.81456000  0.78103000  0.36769000  1.0
  H  H9  1  0.45602000  0.70464000  0.41645000  1.0
  H  H10  1  0.38945000  0.79000000  0.45493000  1.0
  H  H11  1  0.52827000  0.77951000  0.59009000  1.0
  H  H12  1  0.59541000  0.69427000  0.55125000  1.0
  H  H13  1  0.68099000  0.80040000  0.60989000  1.0
  H  H14  1  0.63276000  0.85035000  0.68765000  1.0
  H  H15  1  0.67045000  0.69080000  0.77551000  1.0
  H  H16  1  0.71852000  0.64156000  0.69688000  1.0
  H  H17  1  0.04206000  0.46179000  0.08540000  1.0
  H  H18  1  0.89404000  0.45269000  0.95529000  1.0
  H  H19  1  0.81170000  0.43671000  0.72223000  1.0
  H  H20  1  0.76692000  0.38834000  0.80244000  1.0
  H  H21  1  0.81301000  0.54693000  0.88771000  1.0
  H  H22  1  0.85744000  0.59603000  0.80835000  1.0
  H  H23  1  0.45639000  0.45097000  0.91951000  1.0
  H  H24  1  0.61097000  0.46207000  0.04604000  1.0
  H  H25  1  0.65929000  0.39673000  0.43277000  1.0
  H  H26  1  0.69731000  0.30401000  0.47959000  1.0
  H  H27  1  0.77641000  0.30750000  0.55670000  1.0
  H  H28  1  0.82425000  0.40358000  0.59137000  1.0
  H  H29  1  0.68459000  0.15112000  0.91590000  1.0
  H  H30  1  0.73363000  0.05567000  0.95285000  1.0
  H  H31  1  0.81138000  0.05462000  0.03085000  1.0
  H  H32  1  0.84722000  0.14816000  0.07571000  1.0
  H  H33  1  0.85700000  0.06595000  0.77809000  1.0
  H  H34  1  0.82118000  0.02987000  0.86570000  1.0
  H  H35  1  0.75293000  0.86484000  0.79917000  1.0
  H  H36  1  0.78498000  0.90234000  0.71124000  1.0
  H  H37  1  0.75775000  0.11777000  0.70107000  1.0
  H  H38  1  0.72337000  0.15579000  0.78826000  1.0
  H  H39  1  0.65246000  0.31951000  0.72050000  1.0
  H  H40  1  0.68448000  0.28147000  0.63288000  1.0
  H  H41  1  0.04466000  0.20373000  0.58400000  1.0
  H  H42  1  0.11037000  0.28986000  0.54653000  1.0
  H  H43  1  0.97203000  0.28031000  0.41082000  1.0
  H  H44  1  0.90581000  0.19453000  0.44920000  1.0
  H  H45  1  0.81995000  0.30016000  0.39047000  1.0
  H  H46  1  0.86722000  0.35095000  0.31296000  1.0
  H  H47  1  0.82999000  0.19195000  0.22433000  1.0
  H  H48  1  0.78283000  0.14241000  0.30270000  1.0
  H  H49  1  0.45985000  0.96302000  0.91388000  1.0
  H  H50  1  0.60670000  0.95385000  0.04469000  1.0
  H  H51  1  0.68894000  0.93563000  0.27672000  1.0
  H  H52  1  0.73259000  0.88767000  0.19626000  1.0
  H  H53  1  0.68731000  0.04768000  0.11211000  1.0
  H  H54  1  0.64419000  0.09644000  0.19203000  1.0
  H  H55  1  0.04325000  0.95193000  0.08120000  1.0
  H  H56  1  0.88882000  0.96247000  0.95451000  1.0
  H  H57  1  0.84099000  0.89680000  0.56733000  1.0
  H  H58  1  0.80278000  0.80427000  0.52051000  1.0
  H  H59  1  0.72360000  0.80823000  0.44343000  1.0
  H  H60  1  0.67575000  0.90475000  0.40888000  1.0
  H  H61  1  0.81567000  0.65113000  0.08419000  1.0
  H  H62  1  0.76640000  0.55585000  0.04737000  1.0
  H  H63  1  0.68889000  0.55514000  0.96925000  1.0
  H  H64  1  0.65353000  0.64882000  0.92409000  1.0
  H  H65  1  0.35625000  0.43360000  0.77806000  1.0
  H  H66  1  0.32108000  0.46938000  0.86584000  1.0
  H  H67  1  0.25219000  0.63495000  0.80016000  1.0
  H  H68  1  0.28363000  0.59792000  0.71192000  1.0
  H  H69  1  0.25776000  0.38251000  0.70026000  1.0
  H  H70  1  0.22444000  0.34432000  0.78752000  1.0
  H  H71  1  0.15386000  0.18080000  0.72000000  1.0
  H  H72  1  0.18523000  0.21888000  0.63230000  1.0
  H  H73  1  0.54390000  0.29543000  0.58359000  1.0
  H  H74  1  0.61051000  0.21016000  0.54514000  1.0
  H  H75  1  0.47167000  0.22065000  0.40996000  1.0
  H  H76  1  0.40457000  0.30585000  0.44878000  1.0
  H  H77  1  0.31884000  0.19980000  0.39019000  1.0
  H  H78  1  0.36727000  0.14976000  0.31248000  1.0
  H  H79  1  0.32980000  0.30914000  0.22452000  1.0
  H  H80  1  0.28141000  0.35848000  0.30299000  1.0
  H  H81  1  0.95786000  0.53819000  0.91463000  1.0
  H  H82  1  0.10597000  0.54729000  0.04475000  1.0
  H  H83  1  0.18927000  0.56461000  0.27742000  1.0
  H  H84  1  0.23348000  0.61242000  0.19682000  1.0
  H  H85  1  0.18709000  0.45321000  0.11246000  1.0
  H  H86  1  0.14380000  0.40452000  0.19233000  1.0
  H  H87  1  0.54366000  0.54905000  0.08054000  1.0
  H  H88  1  0.38907000  0.53796000  0.95402000  1.0
  H  H89  1  0.34053000  0.60316000  0.56720000  1.0
  H  H90  1  0.30261000  0.69591000  0.52040000  1.0
  H  H91  1  0.22361000  0.69252000  0.44325000  1.0
  H  H92  1  0.17579000  0.59645000  0.40848000  1.0
  H  H93  1  0.31545000  0.84899000  0.08415000  1.0
  H  H94  1  0.26634000  0.94442000  0.04716000  1.0
  H  H95  1  0.18861000  0.94543000  0.96916000  1.0
  H  H96  1  0.15280000  0.85181000  0.92431000  1.0
  H  H97  1  0.14308000  0.93426000  0.22200000  1.0
  H  H98  1  0.17870000  0.97028000  0.13430000  1.0
  H  H99  1  0.24701000  0.13541000  0.20070000  1.0
  H  H100  1  0.21529000  0.09783000  0.28872000  1.0
  H  H101  1  0.24250000  0.88230000  0.29896000  1.0
  H  H102  1  0.27656000  0.84420000  0.21174000  1.0
  H  H103  1  0.34737000  0.68044000  0.27944000  1.0
  H  H104  1  0.31564000  0.71852000  0.36709000  1.0
  H  H105  1  0.95536000  0.79640000  0.41587000  1.0
  H  H106  1  0.88965000  0.71019000  0.45334000  1.0
  H  H107  1  0.02794000  0.71974000  0.58909000  1.0
  H  H108  1  0.09416000  0.80554000  0.55068000  1.0
  H  H109  1  0.17915000  0.69905000  0.61074000  1.0
  H  H110  1  0.13282000  0.64945000  0.68904000  1.0
  H  H111  1  0.17067000  0.80929000  0.77600000  1.0
  H  H112  1  0.21726000  0.85815000  0.69695000  1.0
  H  H113  1  0.53973000  0.03725000  0.08627000  1.0
  H  H114  1  0.39286000  0.04653000  0.95533000  1.0
  H  H115  1  0.31100000  0.06427000  0.72329000  1.0
  H  H116  1  0.26725000  0.11222000  0.80379000  1.0
  H  H117  1  0.31245000  0.95210000  0.88783000  1.0
  H  H118  1  0.35565000  0.90347000  0.80795000  1.0
  H  H119  1  0.95677000  0.04804000  0.91871000  1.0
  H  H120  1  0.11123000  0.03750000  0.04538000  1.0
  H  H121  1  0.15902000  0.10317000  0.43270000  1.0
  H  H122  1  0.19725000  0.19570000  0.47948000  1.0
  H  H123  1  0.27643000  0.19176000  0.55654000  1.0
  H  H124  1  0.32422000  0.09526000  0.59115000  1.0
  H  H125  1  0.18433000  0.34896000  0.91577000  1.0
  H  H126  1  0.23363000  0.44423000  0.95261000  1.0
  H  H127  1  0.31115000  0.44494000  0.03072000  1.0
  H  H128  1  0.34641000  0.35121000  0.07591000  1.0
  C  C1  1  0.65773000  0.50830000  0.31171000  1.0
  C  C2  1  0.67685000  0.48638000  0.25952000  1.0
  C  C3  1  0.66637000  0.52300000  0.21633000  1.0
  C  C4  1  0.68640000  0.50324000  0.16795000  1.0
  C  C5  1  0.71582000  0.44625000  0.16238000  1.0
  C  C6  1  0.72609000  0.40979000  0.20563000  1.0
  C  C7  1  0.70743000  0.42987000  0.25401000  1.0
  C  C8  1  0.73441000  0.42298000  0.11090000  1.0
  C  C9  1  0.76024000  0.67429000  0.39076000  1.0
  C  C10  1  0.77715000  0.69686000  0.33867000  1.0
  C  C11  1  0.76606000  0.66114000  0.29508000  1.0
  C  C12  1  0.78398000  0.68240000  0.24674000  1.0
  C  C13  1  0.81278000  0.73946000  0.24150000  1.0
  C  C14  1  0.82380000  0.77516000  0.28512000  1.0
  C  C15  1  0.80617000  0.75405000  0.33346000  1.0
  C  C16  1  0.82951000  0.76352000  0.18959000  1.0
  C  C17  1  0.57109000  0.64464000  0.45853000  1.0
  C  C18  1  0.52975000  0.69466000  0.48156000  1.0
  C  C19  1  0.47146000  0.72139000  0.45432000  1.0
  C  C20  1  0.43475000  0.76905000  0.47569000  1.0
  C  C21  1  0.45583000  0.78994000  0.52464000  1.0
  C  C22  1  0.51332000  0.76265000  0.55220000  1.0
  C  C23  1  0.55022000  0.71537000  0.53067000  1.0
  C  C24  1  0.41803000  0.84136000  0.54711000  1.0
  C  C25  1  0.73014000  0.68545000  0.60295000  1.0
  C  C26  1  0.70204000  0.71791000  0.64907000  1.0
  C  C27  1  0.67735000  0.77672000  0.64619000  1.0
  C  C28  1  0.64905000  0.80395000  0.68969000  1.0
  C  C29  1  0.64590000  0.77267000  0.73637000  1.0
  C  C30  1  0.67210000  0.71412000  0.73906000  1.0
  C  C31  1  0.69925000  0.68705000  0.69574000  1.0
  C  C32  1  0.62052000  0.79882000  0.78501000  1.0
  C  C33  1  0.92608000  0.40249000  0.04630000  1.0
  C  C34  1  0.96473000  0.45261000  0.02256000  1.0
  C  C35  1  0.02433000  0.47898000  0.04817000  1.0
  C  C36  1  0.94053000  0.47358000  0.97432000  1.0
  C  C37  1  0.86369000  0.54563000  0.71181000  1.0
  C  C38  1  0.84069000  0.51833000  0.76044000  1.0
  C  C39  1  0.81324000  0.46012000  0.75872000  1.0
  C  C40  1  0.78869000  0.43317000  0.80314000  1.0
  C  C41  1  0.79011000  0.46420000  0.84986000  1.0
  C  C42  1  0.81500000  0.52298000  0.85150000  1.0
  C  C43  1  0.84077000  0.54974000  0.80716000  1.0
  C  C44  1  0.76657000  0.43317000  0.89809000  1.0
  C  C45  1  0.57803000  0.39960000  0.95896000  1.0
  C  C46  1  0.53759000  0.45111000  0.98039000  1.0
  C  C47  1  0.47495000  0.47289000  0.95463000  1.0
  C  C48  1  0.56229000  0.47851000  0.02604000  1.0
  C  C49  1  0.72032000  0.45188000  0.48695000  1.0
  C  C50  1  0.69415000  0.39781000  0.46712000  1.0
  C  C51  1  0.71573000  0.34702000  0.49330000  1.0
  C  C52  1  0.76219000  0.34904000  0.53778000  1.0
  C  C53  1  0.78861000  0.40205000  0.55741000  1.0
  C  C54  1  0.76695000  0.45389000  0.53123000  1.0
  C  C55  1  0.73794000  0.20265000  0.97637000  1.0
  C  C56  1  0.71855000  0.14994000  0.95068000  1.0
  C  C57  1  0.74611000  0.09770000  0.97143000  1.0
  C  C58  1  0.79188000  0.09704000  0.01627000  1.0
  C  C59  1  0.81162000  0.14866000  0.04170000  1.0
  C  C60  1  0.78396000  0.20189000  0.02099000  1.0
  C  C61  1  0.84265000  0.00828000  0.68808000  1.0
  C  C62  1  0.82313000  0.98594000  0.74007000  1.0
  C  C63  1  0.83331000  0.02234000  0.78335000  1.0
  C  C64  1  0.81361000  0.00236000  0.83172000  1.0
  C  C65  1  0.78455000  0.94534000  0.83721000  1.0
  C  C66  1  0.77440000  0.90912000  0.79383000  1.0
  C  C67  1  0.79280000  0.92942000  0.74544000  1.0
  C  C68  1  0.76617000  0.92197000  0.88874000  1.0
  C  C69  1  0.73966000  0.17421000  0.61026000  1.0
  C  C70  1  0.72245000  0.19721000  0.66207000  1.0
  C  C71  1  0.73357000  0.16139000  0.70566000  1.0
  C  C72  1  0.71509000  0.18255000  0.75389000  1.0
  C  C73  1  0.68616000  0.23972000  0.75894000  1.0
  C  C74  1  0.67511000  0.27548000  0.71535000  1.0
  C  C75  1  0.69308000  0.25441000  0.66708000  1.0
  C  C76  1  0.66896000  0.26382000  0.81069000  1.0
  C  C77  1  0.93023000  0.14427000  0.54151000  1.0
  C  C78  1  0.97141000  0.19437000  0.51874000  1.0
  C  C79  1  0.02924000  0.22101000  0.54628000  1.0
  C  C80  1  0.06548000  0.26907000  0.52536000  1.0
  C  C81  1  0.04460000  0.29026000  0.47637000  1.0
  C  C82  1  0.98726000  0.26321000  0.44863000  1.0
  C  C83  1  0.95080000  0.21562000  0.46983000  1.0
  C  C84  1  0.08320000  0.34127000  0.45396000  1.0
  C  C85  1  0.76976000  0.18582000  0.39694000  1.0
  C  C86  1  0.79860000  0.21828000  0.35094000  1.0
  C  C87  1  0.82355000  0.27688000  0.35403000  1.0
  C  C88  1  0.85145000  0.30453000  0.31062000  1.0
  C  C89  1  0.85438000  0.27385000  0.26368000  1.0
  C  C90  1  0.82880000  0.21517000  0.26083000  1.0
  C  C91  1  0.80191000  0.18783000  0.30413000  1.0
  C  C92  1  0.87837000  0.30111000  0.21509000  1.0
  C  C93  1  0.57715000  0.90466000  0.95321000  1.0
  C  C94  1  0.53697000  0.95407000  0.97694000  1.0
  C  C95  1  0.47671000  0.97981000  0.95141000  1.0
  C  C96  1  0.55984000  0.97443000  0.02565000  1.0
  C  C97  1  0.63769000  0.04506000  0.28826000  1.0
  C  C98  1  0.66064000  0.01810000  0.23942000  1.0
  C  C99  1  0.68746000  0.95955000  0.24047000  1.0
  C  C100  1  0.71152000  0.93282000  0.19576000  1.0
  C  C101  1  0.71031000  0.96451000  0.14932000  1.0
  C  C102  1  0.68575000  0.02350000  0.14826000  1.0
  C  C103  1  0.66066000  0.05005000  0.19290000  1.0
  C  C104  1  0.73371000  0.93441000  0.10063000  1.0
  C  C105  1  0.92102000  0.90076000  0.04180000  1.0
  C  C106  1  0.96191000  0.95185000  0.02024000  1.0
  C  C107  1  0.02471000  0.97333000  0.04578000  1.0
  C  C108  1  0.93765000  0.97880000  0.97422000  1.0
  C  C109  1  0.77997000  0.95231000  0.51319000  1.0
  C  C110  1  0.80610000  0.89806000  0.53299000  1.0
  C  C111  1  0.78442000  0.84740000  0.50681000  1.0
  C  C112  1  0.73788000  0.84969000  0.46235000  1.0
  C  C113  1  0.71149000  0.90287000  0.44279000  1.0
  C  C114  1  0.73327000  0.95456000  0.46897000  1.0
  C  C115  1  0.76255000  0.70277000  0.02360000  1.0
  C  C116  1  0.78176000  0.65001000  0.04938000  1.0
  C  C117  1  0.75413000  0.59791000  0.02867000  1.0
  C  C118  1  0.70852000  0.59746000  0.98375000  1.0
  C  C119  1  0.68899000  0.64918000  0.95818000  1.0
  C  C120  1  0.71671000  0.70227000  0.97888000  1.0
  C  C121  1  0.34106000  0.49188000  0.68817000  1.0
  C  C122  1  0.32202000  0.51398000  0.74032000  1.0
  C  C123  1  0.33264000  0.47731000  0.78347000  1.0
  C  C124  1  0.31327000  0.49711000  0.83197000  1.0
  C  C125  1  0.28398000  0.55412000  0.83766000  1.0
  C  C126  1  0.27364000  0.59066000  0.79448000  1.0
  C  C127  1  0.29178000  0.57059000  0.74598000  1.0
  C  C128  1  0.26551000  0.57739000  0.88917000  1.0
  C  C129  1  0.23966000  0.32570000  0.60908000  1.0
  C  C130  1  0.22272000  0.30310000  0.66118000  1.0
  C  C131  1  0.23378000  0.33890000  0.70476000  1.0
  C  C132  1  0.21603000  0.31766000  0.75315000  1.0
  C  C133  1  0.18760000  0.26048000  0.75851000  1.0
  C  C134  1  0.17631000  0.22482000  0.71489000  1.0
  C  C135  1  0.19370000  0.24592000  0.66648000  1.0
  C  C136  1  0.17077000  0.23636000  0.81042000  1.0
  C  C137  1  0.42893000  0.35552000  0.54151000  1.0
  C  C138  1  0.47026000  0.30551000  0.51847000  1.0
  C  C139  1  0.52853000  0.27874000  0.54569000  1.0
  C  C140  1  0.56523000  0.23106000  0.52433000  1.0
  C  C141  1  0.54412000  0.21015000  0.47538000  1.0
  C  C142  1  0.48665000  0.23750000  0.44784000  1.0
  C  C143  1  0.44979000  0.28480000  0.46936000  1.0
  C  C144  1  0.58183000  0.15868000  0.45286000  1.0
  C  C145  1  0.26948000  0.31454000  0.39699000  1.0
  C  C146  1  0.29780000  0.28217000  0.35093000  1.0
  C  C147  1  0.32264000  0.22343000  0.35388000  1.0
  C  C148  1  0.35102000  0.19616000  0.31044000  1.0
  C  C149  1  0.35417000  0.22737000  0.26376000  1.0
  C  C150  1  0.32808000  0.28594000  0.26102000  1.0
  C  C151  1  0.30080000  0.31304000  0.30427000  1.0
  C  C152  1  0.37931000  0.20108000  0.21510000  1.0
  C  C153  1  0.07399000  0.59748000  0.95373000  1.0
  C  C154  1  0.03535000  0.54733000  0.97743000  1.0
  C  C155  1  0.97569000  0.52099000  0.95184000  1.0
  C  C156  1  0.05951000  0.52638000  0.02569000  1.0
  C  C157  1  0.13781000  0.45562000  0.28857000  1.0
  C  C158  1  0.16044000  0.48262000  0.23976000  1.0
  C  C159  1  0.18758000  0.54093000  0.24106000  1.0
  C  C160  1  0.21190000  0.56754000  0.19645000  1.0
  C  C161  1  0.21031000  0.53611000  0.14993000  1.0
  C  C162  1  0.18551000  0.47734000  0.14860000  1.0
  C  C163  1  0.16018000  0.45086000  0.19319000  1.0
  C  C164  1  0.23371000  0.56695000  0.10166000  1.0
  C  C165  1  0.42198000  0.60043000  0.04103000  1.0
  C  C166  1  0.46247000  0.54892000  0.01964000  1.0
  C  C167  1  0.52510000  0.52714000  0.04542000  1.0
  C  C168  1  0.43776000  0.52152000  0.97400000  1.0
  C  C169  1  0.27956000  0.54807000  0.51296000  1.0
  C  C170  1  0.30573000  0.60212000  0.53282000  1.0
  C  C171  1  0.28420000  0.65292000  0.50665000  1.0
  C  C172  1  0.23779000  0.65095000  0.46215000  1.0
  C  C173  1  0.21137000  0.59796000  0.44247000  1.0
  C  C174  1  0.23299000  0.54610000  0.46865000  1.0
  C  C175  1  0.26213000  0.79746000  0.02369000  1.0
  C  C176  1  0.28149000  0.85017000  0.04936000  1.0
  C  C177  1  0.25389000  0.90238000  0.02860000  1.0
  C  C178  1  0.20811000  0.90303000  0.98375000  1.0
  C  C179  1  0.18837000  0.85139000  0.95834000  1.0
  C  C180  1  0.21606000  0.79819000  0.97909000  1.0
  C  C181  1  0.15740000  0.99191000  0.31193000  1.0
  C  C182  1  0.17730000  0.01419000  0.25998000  1.0
  C  C183  1  0.16689000  0.97783000  0.21669000  1.0
  C  C184  1  0.18635000  0.99781000  0.16827000  1.0
  C  C185  1  0.21543000  0.05482000  0.16273000  1.0
  C  C186  1  0.22563000  0.09110000  0.20608000  1.0
  C  C187  1  0.20750000  0.07075000  0.25452000  1.0
  C  C188  1  0.23385000  0.07814000  0.11120000  1.0
  C  C189  1  0.26028000  0.82569000  0.38981000  1.0
  C  C190  1  0.27750000  0.80272000  0.33796000  1.0
  C  C191  1  0.26655000  0.83863000  0.29439000  1.0
  C  C192  1  0.28497000  0.81749000  0.24614000  1.0
  C  C193  1  0.31383000  0.76031000  0.24105000  1.0
  C  C194  1  0.32489000  0.72453000  0.28462000  1.0
  C  C195  1  0.30699000  0.74558000  0.33290000  1.0
  C  C196  1  0.33111000  0.73623000  0.18931000  1.0
  C  C197  1  0.06989000  0.85561000  0.45845000  1.0
  C  C198  1  0.02864000  0.80556000  0.48113000  1.0
  C  C199  1  0.97083000  0.77900000  0.45354000  1.0
  C  C200  1  0.93455000  0.73099000  0.47448000  1.0
  C  C201  1  0.95533000  0.70982000  0.52347000  1.0
  C  C202  1  0.01273000  0.73677000  0.55126000  1.0
  C  C203  1  0.04926000  0.78431000  0.53004000  1.0
  C  C204  1  0.91662000  0.65888000  0.54584000  1.0
  C  C205  1  0.23024000  0.81368000  0.60323000  1.0
  C  C206  1  0.20112000  0.78165000  0.64941000  1.0
  C  C207  1  0.17615000  0.72297000  0.64696000  1.0
  C  C208  1  0.14876000  0.69586000  0.69085000  1.0
  C  C209  1  0.14611000  0.72707000  0.73756000  1.0
  C  C210  1  0.17184000  0.78573000  0.73967000  1.0
  C  C211  1  0.19825000  0.81265000  0.69602000  1.0
  C  C212  1  0.12176000  0.70113000  0.78667000  1.0
  C  C213  1  0.42281000  0.09620000  0.04690000  1.0
  C  C214  1  0.46253000  0.04647000  0.02314000  1.0
  C  C215  1  0.52275000  0.02058000  0.04872000  1.0
  C  C216  1  0.43967000  0.02602000  0.97446000  1.0
  C  C217  1  0.36216000  0.95478000  0.71177000  1.0
  C  C218  1  0.33930000  0.98183000  0.76059000  1.0
  C  C219  1  0.31254000  0.04040000  0.75958000  1.0
  C  C220  1  0.28843000  0.06709000  0.80430000  1.0
  C  C221  1  0.28960000  0.03535000  0.85074000  1.0
  C  C222  1  0.31411000  0.97636000  0.85173000  1.0
  C  C223  1  0.33928000  0.94986000  0.80709000  1.0
  C  C224  1  0.26631000  0.06543000  0.89950000  1.0
  C  C225  1  0.07904000  0.09926000  0.95813000  1.0
  C  C226  1  0.03809000  0.04819000  0.97970000  1.0
  C  C227  1  0.97530000  0.02668000  0.95415000  1.0
  C  C228  1  0.06235000  0.02121000  0.02570000  1.0
  C  C229  1  0.21998000  0.04764000  0.48687000  1.0
  C  C230  1  0.19389000  0.10190000  0.46705000  1.0
  C  C231  1  0.21559000  0.15257000  0.49320000  1.0
  C  C232  1  0.26212000  0.15029000  0.53765000  1.0
  C  C233  1  0.28848000  0.09711000  0.55724000  1.0
  C  C234  1  0.26668000  0.04539000  0.53110000  1.0
  C  C235  1  0.23740000  0.29732000  0.97638000  1.0
  C  C236  1  0.21824000  0.35008000  0.95058000  1.0
  C  C237  1  0.24589000  0.40217000  0.97130000  1.0
  C  C238  1  0.29150000  0.40263000  0.01623000  1.0
  C  C239  1  0.31096000  0.35092000  0.04181000  1.0
  C  C240  1  0.28316000  0.29786000  0.02112000  1.0
  N  N1  1  0.70938000  0.50914000  0.47117000  1.0
  N  N2  1  0.74691000  0.54379000  0.50319000  1.0
  N  N3  1  0.78233000  0.51237000  0.53968000  1.0
  N  N4  1  0.72098000  0.26084000  0.96653000  1.0
  N  N5  1  0.75455000  0.29332000  0.00224000  1.0
  N  N6  1  0.79287000  0.25959000  0.03569000  1.0
  N  N7  1  0.79094000  0.00953000  0.52891000  1.0
  N  N8  1  0.75334000  0.04439000  0.49690000  1.0
  N  N9  1  0.71788000  0.01309000  0.46045000  1.0
  N  N10  1  0.77964000  0.76087000  0.03338000  1.0
  N  N11  1  0.74639000  0.79352000  0.99754000  1.0
  N  N12  1  0.70807000  0.76004000  0.96409000  1.0
  N  N13  1  0.29044000  0.49081000  0.52874000  1.0
  N  N14  1  0.25296000  0.45618000  0.49667000  1.0
  N  N15  1  0.21760000  0.48763000  0.46017000  1.0
  N  N16  1  0.27913000  0.73928000  0.03352000  1.0
  N  N17  1  0.24549000  0.70680000  0.99785000  1.0
  N  N18  1  0.20711000  0.74050000  0.96444000  1.0
  N  N19  1  0.20897000  0.99040000  0.47118000  1.0
  N  N20  1  0.24654000  0.95554000  0.50322000  1.0
  N  N21  1  0.28202000  0.98685000  0.53965000  1.0
  N  N22  1  0.22032000  0.23922000  0.96663000  1.0
  N  N23  1  0.25348000  0.20662000  0.00255000  1.0
  N  N24  1  0.29170000  0.24015000  0.03600000  1.0
  O  O1  1  0.62983000  0.55987000  0.31516000  1.0
  O  O2  1  0.67234000  0.47594000  0.35106000  1.0
  O  O3  1  0.73191000  0.45802000  0.07237000  1.0
  O  O4  1  0.74946000  0.36774000  0.10684000  1.0
  O  O5  1  0.74928000  0.61904000  0.39817000  1.0
  O  O6  1  0.76038000  0.71135000  0.42818000  1.0
  O  O7  1  0.83162000  0.72882000  0.15088000  1.0
  O  O8  1  0.83969000  0.81929000  0.18540000  1.0
  O  O9  1  0.62503000  0.62229000  0.48448000  1.0
  O  O10  1  0.55227000  0.62487000  0.41453000  1.0
  O  O11  1  0.43390000  0.85838000  0.59314000  1.0
  O  O12  1  0.36948000  0.86912000  0.52007000  1.0
  O  O13  1  0.74488000  0.63075000  0.60952000  1.0
  O  O14  1  0.73444000  0.71363000  0.56083000  1.0
  O  O15  1  0.64001000  0.77410000  0.82632000  1.0
  O  O16  1  0.58181000  0.84819000  0.78650000  1.0
  O  O17  1  0.87335000  0.37815000  0.02083000  1.0
  O  O18  1  0.94525000  0.38365000  0.09107000  1.0
  O  O19  1  0.84336000  0.52319000  0.66984000  1.0
  O  O20  1  0.90188000  0.59549000  0.71081000  1.0
  O  O21  1  0.75688000  0.37781000  0.89626000  1.0
  O  O22  1  0.76114000  0.46462000  0.93882000  1.0
  O  O23  1  0.62881000  0.37505000  0.98660000  1.0
  O  O24  1  0.56132000  0.38065000  0.91416000  1.0
  O  O25  1  0.86905000  0.06023000  0.68487000  1.0
  O  O26  1  0.82986000  0.97577000  0.64861000  1.0
  O  O27  1  0.76707000  0.95734000  0.92705000  1.0
  O  O28  1  0.75279000  0.86646000  0.89305000  1.0
  O  O29  1  0.75227000  0.11911000  0.60378000  1.0
  O  O30  1  0.73806000  0.21093000  0.57242000  1.0
  O  O31  1  0.66629000  0.22873000  0.84913000  1.0
  O  O32  1  0.65873000  0.31961000  0.81502000  1.0
  O  O33  1  0.87613000  0.12232000  0.51559000  1.0
  O  O34  1  0.94923000  0.12431000  0.58546000  1.0
  O  O35  1  0.06877000  0.35767000  0.40751000  1.0
  O  O36  1  0.13070000  0.36914000  0.48162000  1.0
  O  O37  1  0.75279000  0.13169000  0.39002000  1.0
  O  O38  1  0.76736000  0.21360000  0.43942000  1.0
  O  O39  1  0.85846000  0.27682000  0.17380000  1.0
  O  O40  1  0.91585000  0.35104000  0.21373000  1.0
  O  O41  1  0.62935000  0.88046000  0.97921000  1.0
  O  O42  1  0.55924000  0.88601000  0.90816000  1.0
  O  O43  1  0.65465000  0.02065000  0.33019000  1.0
  O  O44  1  0.60343000  0.09712000  0.28923000  1.0
  O  O45  1  0.74146000  0.87861000  0.10123000  1.0
  O  O46  1  0.74102000  0.96677000  0.06063000  1.0
  O  O47  1  0.87284000  0.87479000  0.01307000  1.0
  O  O48  1  0.93471000  0.88357000  0.08762000  1.0
  O  O49  1  0.36706000  0.43965000  0.68482000  1.0
  O  O50  1  0.32834000  0.52461000  0.64880000  1.0
  O  O51  1  0.26821000  0.54228000  0.92765000  1.0
  O  O52  1  0.25036000  0.63264000  0.89323000  1.0
  O  O53  1  0.25063000  0.38095000  0.60179000  1.0
  O  O54  1  0.23956000  0.28872000  0.57157000  1.0
  O  O55  1  0.16697000  0.27115000  0.84899000  1.0
  O  O56  1  0.16168000  0.18047000  0.81468000  1.0
  O  O57  1  0.37503000  0.37785000  0.51552000  1.0
  O  O58  1  0.44764000  0.37519000  0.58558000  1.0
  O  O59  1  0.56583000  0.14156000  0.40687000  1.0
  O  O60  1  0.63044000  0.13091000  0.47982000  1.0
  O  O61  1  0.25466000  0.36922000  0.39044000  1.0
  O  O62  1  0.26542000  0.28632000  0.43912000  1.0
  O  O63  1  0.35979000  0.22585000  0.17383000  1.0
  O  O64  1  0.41802000  0.15174000  0.21351000  1.0
  O  O65  1  0.12663000  0.62191000  0.97921000  1.0
  O  O66  1  0.05481000  0.61631000  0.90894000  1.0
  O  O67  1  0.15656000  0.47928000  0.33042000  1.0
  O  O68  1  0.10170000  0.40463000  0.28970000  1.0
  O  O69  1  0.24328000  0.62233000  0.10360000  1.0
  O  O70  1  0.23921000  0.53553000  0.06092000  1.0
  O  O71  1  0.37131000  0.62501000  0.01334000  1.0
  O  O72  1  0.43851000  0.61932000  0.08588000  1.0
  O  O73  1  0.13103000  0.93994000  0.31505000  1.0
  O  O74  1  0.16972000  0.02444000  0.35146000  1.0
  O  O75  1  0.23301000  0.04278000  0.07289000  1.0
  O  O76  1  0.24724000  0.13363000  0.10691000  1.0
  O  O77  1  0.24770000  0.88080000  0.39623000  1.0
  O  O78  1  0.26187000  0.78898000  0.42766000  1.0
  O  O79  1  0.33360000  0.77127000  0.15083000  1.0
  O  O80  1  0.34158000  0.68048000  0.18503000  1.0
  O  O81  1  0.12414000  0.87721000  0.48441000  1.0
  O  O82  1  0.05082000  0.87591000  0.41462000  1.0
  O  O83  1  0.93116000  0.64246000  0.59222000  1.0
  O  O84  1  0.86903000  0.63098000  0.51825000  1.0
  O  O85  1  0.24751000  0.86774000  0.61009000  1.0
  O  O86  1  0.23271000  0.78593000  0.56077000  1.0
  O  O87  1  0.14182000  0.72620000  0.82767000  1.0
  O  O88  1  0.08348000  0.65182000  0.78924000  1.0
  O  O89  1  0.37147000  0.12172000  0.02081000  1.0
  O  O90  1  0.44042000  0.11386000  0.09230000  1.0
  O  O91  1  0.34533000  0.97922000  0.66983000  1.0
  O  O92  1  0.39621000  0.90259000  0.71085000  1.0
  O  O93  1  0.25868000  0.12124000  0.89883000  1.0
  O  O94  1  0.25905000  0.03320000  0.93960000  1.0
  O  O95  1  0.12722000  0.12518000  0.98691000  1.0
  O  O96  1  0.06541000  0.11643000  0.91229000  1.0
