# generated using pymatgen
data_H24C39N4
_symmetry_space_group_name_H-M   'P 1'
_cell_length_a   12.55760000
_cell_length_b   12.55760000
_cell_length_c   50.23030000
_cell_angle_alpha   90.00110000
_cell_angle_beta   90.00170000
_cell_angle_gamma   90.00000000
_symmetry_Int_Tables_number   1
_chemical_formula_structural   H24C39N4
_chemical_formula_sum   'H96 C156 N16'
_cell_volume   7920.98265413
_cell_formula_units_Z   4
loop_
 _symmetry_equiv_pos_site_id
 _symmetry_equiv_pos_as_xyz
  1  'x, y, z'
loop_
 _atom_site_type_symbol
 _atom_site_label
 _atom_site_symmetry_multiplicity
 _atom_site_fract_x
 _atom_site_fract_y
 _atom_site_fract_z
 _atom_site_occupancy
  C  1  1  0.04598400  0.04015700  0.10436000  1
  C  2  1  0.94072600  0.04942800  0.11315900  1
  C  3  1  0.93987700  0.04734200  0.14089500  1
  C  4  1  0.04456300  0.03807600  0.15014100  1
  C  5  1  0.06512900  0.03453500  0.17782900  1
  C  6  1  0.98015800  0.04037100  0.19653700  1
  C  7  1  0.87491000  0.05045200  0.18632700  1
  C  8  1  0.85423400  0.05386900  0.15879300  1
  C  9  1  0.85667100  0.06087700  0.09489400  1
  C  10  1  0.87969000  0.06324200  0.06744800  1
  C  11  1  0.98552800  0.05225900  0.05785100  1
  C  12  1  0.06878800  0.04021300  0.07678700  1
  C  13  1  0.19597400  0.12722400  0.12755100  1
  C  14  1  0.30088500  0.09006700  0.12665400  1
  C  15  1  0.29985800  0.97939200  0.12691100  1
  C  16  1  0.19423300  0.94355700  0.12716100  1
  C  17  1  0.38558100  0.90771800  0.12798800  1
  C  18  1  0.36402400  0.79811600  0.12962000  1
  C  19  1  0.25798700  0.75888000  0.12962400  1
  C  20  1  0.17265100  0.83283900  0.12792500  1
  C  21  1  0.17573400  0.23809700  0.12872500  1
  C  22  1  0.26177000  0.31150300  0.12911100  1
  C  23  1  0.36699400  0.27108700  0.12676500  1
  C  24  1  0.38727600  0.16104000  0.12588500  1
  C  37  1  0.12018700  0.03614000  0.12737400  1
  C  38  1  0.01305100  0.03697900  0.60401800  1
  C  39  1  0.01525900  0.93299500  0.61401700  1
  C  40  1  0.01183900  0.93674800  0.64169400  1
  C  41  1  0.01064500  0.04317200  0.64989600  1
  C  42  1  0.01006400  0.06794800  0.67740500  1
  C  43  1  0.00872100  0.98544800  0.69685200  1
  C  44  1  0.00840200  0.87830900  0.68764000  1
  C  45  1  0.01062100  0.85345400  0.66034000  1
  C  46  1  0.02402400  0.84502400  0.59687800  1
  C  47  1  0.03181700  0.86279100  0.56929300  1
  C  48  1  0.02846400  0.96720900  0.55846300  1
  C  49  1  0.01745000  0.05465400  0.57618400  1
  C  50  1  0.91966000  0.18983700  0.62534900  1
  C  51  1  0.95639000  0.29483900  0.62362100  1
  C  52  1  0.06706100  0.29482400  0.62425200  1
  C  53  1  0.10332300  0.18960500  0.62571200  1
  C  54  1  0.13853200  0.38086700  0.62458300  1
  C  55  1  0.24824200  0.35994800  0.62653800  1
  C  56  1  0.28780200  0.25410900  0.62753300  1
  C  57  1  0.21408600  0.16845500  0.62671100  1
  C  58  1  0.80884300  0.16941100  0.62668300  1
  C  59  1  0.73517200  0.25531800  0.62631500  1
  C  60  1  0.77523500  0.36020400  0.62290100  1
  C  61  1  0.88517000  0.38076300  0.62191500  1
  C  74  1  0.01134800  0.11490300  0.62630500  1
  C  75  1  0.99685700  0.05072300  0.90018900  1
  C  76  1  0.10033100  0.06545300  0.89056700  1
  C  77  1  0.09731100  0.06581100  0.86280900  1
  C  78  1  0.99173900  0.05182500  0.85454100  1
  C  79  1  0.96691400  0.04715800  0.82712400  1
  C  80  1  0.04907600  0.05618700  0.80786400  1
  C  81  1  0.15518800  0.07204200  0.81671600  1
  C  82  1  0.17980700  0.07675000  0.84406600  1
  C  83  1  0.18597800  0.07915900  0.90826200  1
  C  84  1  0.16655300  0.07631200  0.93589300  1
  C  85  1  0.06314000  0.05699300  0.94631300  1
  C  86  1  0.97784400  0.04600200  0.92789200  1
  C  87  1  0.84335800  0.13764900  0.87862600  1
  C  88  1  0.73874900  0.10018900  0.88028700  1
  C  89  1  0.74018200  0.98950700  0.87972900  1
  C  90  1  0.84582600  0.95397500  0.87840900  1
  C  91  1  0.65456600  0.91763000  0.87930500  1
  C  92  1  0.67617000  0.80813500  0.87734400  1
  C  93  1  0.78223200  0.76917600  0.87631300  1
  C  94  1  0.86759400  0.84334100  0.87728100  1
  C  95  1  0.86322200  0.24857800  0.87736000  1
  C  96  1  0.77709700  0.32183100  0.87763900  1
  C  97  1  0.67230900  0.28116400  0.88080000  1
  C  98  1  0.65237800  0.17102500  0.88179400  1
  C  111  1  0.91944300  0.04689000  0.87788800  1
  C  112  1  0.04225300  0.03888400  0.40012900  1
  C  113  1  0.04027500  0.93495300  0.39013700  1
  C  114  1  0.04201700  0.93906800  0.36241800  1
  C  115  1  0.04144400  0.04589500  0.35442500  1
  C  116  1  0.03869000  0.07194100  0.32704700  1
  C  117  1  0.03940600  0.98973400  0.30767700  1
  C  118  1  0.04334100  0.88223000  0.31624100  1
  C  119  1  0.04384000  0.85639200  0.34352900  1
  C  120  1  0.03542700  0.84727400  0.40745900  1
  C  121  1  0.03358400  0.86546800  0.43512200  1
  C  122  1  0.03877000  0.97000400  0.44597800  1
  C  123  1  0.04346000  0.05685900  0.42791900  1
  C  124  1  0.13341400  0.19228000  0.37879900  1
  C  125  1  0.09663100  0.29710600  0.38098300  1
  C  126  1  0.98589000  0.29683700  0.38077200  1
  C  127  1  0.94974000  0.19161100  0.37911400  1
  C  128  1  0.91423200  0.38272100  0.38080800  1
  C  129  1  0.80452100  0.36165800  0.37894400  1
  C  130  1  0.76516800  0.25580800  0.37761400  1
  C  131  1  0.83901800  0.17024300  0.37815800  1
  C  132  1  0.24417500  0.17182100  0.37734200  1
  C  133  1  0.31789800  0.25760800  0.37798100  1
  C  134  1  0.27789000  0.36240700  0.38161000  1
  C  135  1  0.16794100  0.38293700  0.38278700  1
  C  148  1  0.04186900  0.11723900  0.37802100  1
  C  149  1  0.92580500  0.04017000  0.26908000  1
  C  150  1  0.02588100  0.01190100  0.28010400  1
  C  151  1  0.10989300  0.99461200  0.26188200  1
  C  153  1  0.99792400  0.03395500  0.22468500  1
  C  156  1  0.82891800  0.05903700  0.28523400  1
  C  157  1  0.72103900  0.01285700  0.27631900  1
  C  158  1  0.78075600  0.96196600  0.29963600  1
  C  164  1  0.99559100  0.94086700  0.76966400  1
  C  165  1  0.02889600  0.04033100  0.78020400  1
  C  166  1  0.05259900  0.12098600  0.76144200  1
  C  168  1  0.01121900  0.00700700  0.72483900  1
  C  171  1  0.96914300  0.84668600  0.78616200  1
  C  172  1  0.01496800  0.73688800  0.77871700  1
  C  173  1  0.05927100  0.79679000  0.80283200  1
  C  179  1  0.10965900  0.99316300  0.99270900  1
  C  180  1  0.04522900  0.05202800  0.97454900  1
  C  181  1  0.95944800  0.10880600  0.98609700  1
  C  183  1  0.00642100  0.05340500  0.02995200  1
  C  186  1  0.19958100  0.92366700  0.98483700  1
  C  187  1  0.19704900  0.80718000  0.99449100  1
  C  188  1  0.18061000  0.83219900  0.96496300  1
  C  194  1  0.97193800  0.05173500  0.48919600  1
  C  195  1  0.04129700  0.98407700  0.47436700  1
  C  196  1  0.11147100  0.92018100  0.48959700  1
  C  198  1  0.03777600  0.98078000  0.53046000  1
  C  201  1  0.88806800  0.11761500  0.47644900  1
  C  202  1  0.83310700  0.20837300  0.49192200  1
  C  203  1  0.91487200  0.23465700  0.47029000  1
  C  209  1  0.30172900  0.48447300  0.15162900  1
  C  210  1  0.24614600  0.42369600  0.13218900  1
  C  211  1  0.18280100  0.48219400  0.11401000  1
  C  213  1  0.24204300  0.64740300  0.13191600  1
  C  216  1  0.36879100  0.43861700  0.17300500  1
  C  217  1  0.34099700  0.47090800  0.20177300  1
  C  218  1  0.32119600  0.35659500  0.19243800  1
  C  224  1  0.56298700  0.29943800  0.64873600  1
  C  225  1  0.62303400  0.24042900  0.62977700  1
  C  226  1  0.56371300  0.17485800  0.61227900  1
  C  228  1  0.39929700  0.23830100  0.62976300  1
  C  231  1  0.60971600  0.36921400  0.66944000  1
  C  232  1  0.57764500  0.34580300  0.69846400  1
  C  233  1  0.69168500  0.32387200  0.68921900  1
  C  239  1  0.73449300  0.49440400  0.85520200  1
  C  240  1  0.79242900  0.43394800  0.87427300  1
  C  241  1  0.85863700  0.49276400  0.89174400  1
  C  243  1  0.79788300  0.65765200  0.87399600  1
  C  246  1  0.66427000  0.44830000  0.83451000  1
  C  247  1  0.68806800  0.47988300  0.80547100  1
  C  248  1  0.70878900  0.36569600  0.81477900  1
  C  254  1  0.49076500  0.30153500  0.35590800  1
  C  255  1  0.43007700  0.24246300  0.37471600  1
  C  256  1  0.48876800  0.17671100  0.39230900  1
  C  258  1  0.65376700  0.23997600  0.37515800  1
  C  261  1  0.44464500  0.37132000  0.33512600  1
  C  262  1  0.47765800  0.34794900  0.30616400  1
  C  263  1  0.36334600  0.32592200  0.31518200  1
  H  25  1  0.43070800  0.32182100  0.12609500  1
  H  26  1  0.46384500  0.13374300  0.12487200  1
  H  27  1  0.46250800  0.93430400  0.12822000  1
  H  28  1  0.42731700  0.74683800  0.13061400  1
  H  29  1  0.09542200  0.80707000  0.12845600  1
  H  30  1  0.09893300  0.26447700  0.13027100  1
  H  31  1  0.14230100  0.02807700  0.18412000  1
  H  32  1  0.81088600  0.05422900  0.19888000  1
  H  33  1  0.77775100  0.06067400  0.15203500  1
  H  34  1  0.14636500  0.03462200  0.07073500  1
  H  35  1  0.77983500  0.06847600  0.10133600  1
  H  36  1  0.81743100  0.07118000  0.05445200  1
  H  62  1  0.72432000  0.42364000  0.62164600  1
  H  63  1  0.91220600  0.45725700  0.62027700  1
  H  64  1  0.11171800  0.45767600  0.62395400  1
  H  65  1  0.29938400  0.42345000  0.62688000  1
  H  66  1  0.24006500  0.09141900  0.62794500  1
  H  67  1  0.78274600  0.09286100  0.62907000  1
  H  68  1  0.01002600  0.14618800  0.68304500  1
  H  69  1  0.00907200  0.81608500  0.70078600  1
  H  70  1  0.01171300  0.77572900  0.65429800  1
  H  71  1  0.01740300  0.13100800  0.56909000  1
  H  72  1  0.02718500  0.76920300  0.60423800  1
  H  73  1  0.03871200  0.79785400  0.55709200  1
  H  99  1  0.60861000  0.33177700  0.88193500  1
  H  100  1  0.57600900  0.14355700  0.88332700  1
  H  101  1  0.57758500  0.94397300  0.87990300  1
  H  102  1  0.61288600  0.75671600  0.87694600  1
  H  103  1  0.94477400  0.81777800  0.87608200  1
  H  104  1  0.93972500  0.27509300  0.87515800  1
  H  105  1  0.88959800  0.03594600  0.82135400  1
  H  106  1  0.21627200  0.07657400  0.80326800  1
  H  107  1  0.25697200  0.08614600  0.85009600  1
  H  108  1  0.90173900  0.03354800  0.93444100  1
  H  109  1  0.26124400  0.09257800  0.90128000  1
  H  110  1  0.22929400  0.08974600  0.94841900  1
  H  136  1  0.32887200  0.42574000  0.38300800  1
  H  137  1  0.14094700  0.45933000  0.38473200  1
  H  138  1  0.94092500  0.45955800  0.38156200  1
  H  139  1  0.75324700  0.42506900  0.37877100  1
  H  140  1  0.81318500  0.09323900  0.37661700  1
  H  141  1  0.27023100  0.09528500  0.37489900  1
  H  142  1  0.03498100  0.15010900  0.32138900  1
  H  143  1  0.04139500  0.82154900  0.30263400  1
  H  144  1  0.04409200  0.77846400  0.34940000  1
  H  145  1  0.05003700  0.13310100  0.43474100  1
  H  146  1  0.03218400  0.77129900  0.40020000  1
  H  147  1  0.02839500  0.80062800  0.44739700  1
  H  155  1  0.18355500  0.97172600  0.26839800  1
  H  159  1  0.82475800  0.13236400  0.29688000  1
  H  160  1  0.74591200  0.97682600  0.31919200  1
  H  161  1  0.81381200  0.88341500  0.29526600  1
  H  162  1  0.71981600  0.96558600  0.25806700  1
  H  163  1  0.65071300  0.05898200  0.28179000  1
  H  170  1  0.07881700  0.19408500  0.76755400  1
  H  174  1  0.89152200  0.84498300  0.79596100  1
  H  175  1  0.03640800  0.76412400  0.82214100  1
  H  176  1  0.13979200  0.82787800  0.80013600  1
  H  177  1  0.06854800  0.73292100  0.76161600  1
  H  178  1  0.96508900  0.66827400  0.78344300  1
  H  185  1  0.90941300  0.15386000  0.97466200  1
  H  189  1  0.27951000  0.95794100  0.98484700  1
  H  190  1  0.24750600  0.81264800  0.95198100  1
  H  191  1  0.09944600  0.82069500  0.95770400  1
  H  192  1  0.12565300  0.77945700  0.00480400  1
  H  193  1  0.27376900  0.77118400  0.99931300  1
  H  200  1  0.16450000  0.86986400  0.48063400  1
  H  204  1  0.83582700  0.07898300  0.46198000  1
  H  205  1  0.88207600  0.26631800  0.45177900  1
  H  206  1  0.99116100  0.26475900  0.47754200  1
  H  207  1  0.86000100  0.22603800  0.51211700  1
  H  208  1  0.75083100  0.22598000  0.48647500  1
  H  215  1  0.14159700  0.44415400  0.09925800  1
  H  219  1  0.45448600  0.43310500  0.16955500  1
  H  220  1  0.37659200  0.29708500  0.20011400  1
  H  221  1  0.23758500  0.33528400  0.18971700  1
  H  222  1  0.26877700  0.51767600  0.20499200  1
  H  223  1  0.40782300  0.48023500  0.21547300  1
  H  230  1  0.60114700  0.13116800  0.59788200  1
  H  234  1  0.61568000  0.45433100  0.66522400  1
  H  235  1  0.75169100  0.37992500  0.69633600  1
  H  236  1  0.71239200  0.23978700  0.68722400  1
  H  237  1  0.53044600  0.27441200  0.70237400  1
  H  238  1  0.56897600  0.41461400  0.71156400  1
  H  245  1  0.90174400  0.45500300  0.90619700  1
  H  249  1  0.57910300  0.44316700  0.83873000  1
  H  250  1  0.65212000  0.30621900  0.80768700  1
  H  251  1  0.79265100  0.34413100  0.81679100  1
  H  252  1  0.75995100  0.52632300  0.80154800  1
  H  253  1  0.61935800  0.48918800  0.79236600  1
  H  260  1  0.45078000  0.13314600  0.40663900  1
  H  264  1  0.43840300  0.45641000  0.33934700  1
  H  265  1  0.30352500  0.38192800  0.30794500  1
  H  266  1  0.34265100  0.24181400  0.31712300  1
  H  267  1  0.52504600  0.27659700  0.30234100  1
  H  268  1  0.48669400  0.41678300  0.29308800  1
  N  152  1  0.09373300  0.00585800  0.23526200  1
  N  154  1  0.91689900  0.05040900  0.24223200  1
  N  167  1  0.04340000  0.10239200  0.73486900  1
  N  169  1  0.98811800  0.92925400  0.74282800  1
  N  182  1  0.94270800  0.10759100  0.01277600  1
  N  184  1  0.08856300  0.99744400  0.01928600  1
  N  197  1  0.10642000  0.91886100  0.51649500  1
  N  199  1  0.97184600  0.04552700  0.51636700  1
  N  212  1  0.18384700  0.59067600  0.11403400  1
  N  214  1  0.29970000  0.59231500  0.15016200  1
  N  227  1  0.45524600  0.17681700  0.61241900  1
  N  229  1  0.45510000  0.29820300  0.64740000  1
  N  242  1  0.85818300  0.60124800  0.89149700  1
  N  244  1  0.73734200  0.60228100  0.85640100  1
  N  257  1  0.59723700  0.17854300  0.39239000  1
  N  259  1  0.59861300  0.30006800  0.35743300  1
