# generated using pymatgen
data_H7C13(N2O)2
_symmetry_space_group_name_H-M   'P 1'
_cell_length_a   15.59607500
_cell_length_b   15.59610000
_cell_length_c   46.78820000
_cell_angle_alpha   90.00000000
_cell_angle_beta   90.00000000
_cell_angle_gamma   120.00015908
_symmetry_Int_Tables_number   1
_chemical_formula_structural   H7C13(N2O)2
_chemical_formula_sum   'H42 C78 N24 O12'
_cell_volume   9855.92975108
_cell_formula_units_Z   6
loop_
 _symmetry_equiv_pos_site_id
 _symmetry_equiv_pos_as_xyz
  1  'x, y, z'
loop_
 _atom_site_type_symbol
 _atom_site_label
 _atom_site_symmetry_multiplicity
 _atom_site_fract_x
 _atom_site_fract_y
 _atom_site_fract_z
 _atom_site_occupancy
  C  2  1  0.94449150  0.95196550  0.98727900  1
  C  3  1  0.86417350  0.85626950  0.99455600  1
  C  4  1  0.82941100  0.80736200  0.94475050  1
  C  5  1  0.90210550  0.90262350  0.93614000  1
  C  6  1  0.95678800  0.97394100  0.95737900  1
  C  9  1  0.97410500  0.96074500  0.34188400  1
  C  10  1  0.94873350  0.81738650  0.38434800  1
  C  11  1  0.94701250  0.79391650  0.35531400  1
  C  12  1  0.95780200  0.86471000  0.33459400  1
  C  15  1  0.97326500  0.02722200  0.32060100  1
  C  16  1  0.95783600  0.10750300  0.32788300  1
  C  17  1  0.94486150  0.16593650  0.30709350  1
  C  18  1  0.94382800  0.14237200  0.27808200  1
  C  23  1  0.95180050  0.99747650  0.67524800  1
  C  24  1  0.96275350  0.98564350  0.70510400  1
  C  25  1  0.90675500  0.00048700  0.72631450  1
  C  26  1  0.83400500  0.02304700  0.71773800  1
  C  27  1  0.81211000  0.02461300  0.68870800  1
  C  28  1  0.87204700  0.01376100  0.66797500  1
  C  32  1  0.95334650  0.99178950  0.86102650  1
  C  34  1  0.95532000  0.06293800  0.84161750  1
  C  35  1  0.95091100  0.14556500  0.84995750  1
  C  38  1  0.95374950  0.00030150  0.89103750  1
  C  41  1  0.90393800  0.01197100  0.15437550  1
  C  42  1  0.97462050  0.01504850  0.13498600  1
  C  44  1  0.96258000  0.01354500  0.10516200  1
  C  47  1  0.90912250  0.89846850  0.50831100  1
  C  48  1  0.82688750  0.81045550  0.51676800  1
  C  51  1  0.97082700  0.95983600  0.55773400  1
  C  53  1  0.93148750  0.56294950  0.32719400  1
  C  55  1  0.92913200  0.50678800  0.30297200  1
  C  56  1  0.92454700  0.53380100  0.27501100  1
  C  58  1  0.93408100  0.65457200  0.32570200  1
  C  119  1  0.97119750  0.91264450  0.39294200  1
  C  120  1  0.96623550  0.06957950  0.26946200  1
  C  123  1  0.95904950  0.89773450  0.82106950  1
  C  124  1  0.95611550  0.96536350  0.80166550  1
  C  127  1  0.95757300  0.95478500  0.77184100  1
  C  130  1  0.93511000  0.44033900  0.35760100  1
  C  131  1  0.93292650  0.38435650  0.33367900  1
  C  133  1  0.93601550  0.29606150  0.33618700  1
  C  151  1  0.80577250  0.78486750  0.97376150  1
  C  157  1  0.67562150  0.64591750  0.00285650  1
  C  162  1  0.68568050  0.03754350  0.65910500  1
  C  177  1  0.58734100  0.55451600  0.00035800  1
  C  180  1  0.59672100  0.04028000  0.66058400  1
  C  182  1  0.57435600  0.04708500  0.60838800  1
  C  189  1  0.01098900  0.01925100  0.00856500  1
  C  190  1  0.98824450  0.00827150  0.03842200  1
  C  191  1  0.05908600  0.06431000  0.05962900  1
  C  192  1  0.15441000  0.13700800  0.05104800  1
  C  193  1  0.17780750  0.15894650  0.02201400  1
  C  194  1  0.10698400  0.09905800  0.00128350  1
  C  200  1  0.98591850  0.98348250  0.37174200  1
  C  204  1  0.98294950  0.01494550  0.29069800  1
  C  209  1  0.01910000  0.99829900  0.65395900  1
  C  210  1  0.11481350  0.01370750  0.66123200  1
  C  211  1  0.18620400  0.02667400  0.64043800  1
  C  212  1  0.16368900  0.02781500  0.61143100  1
  C  213  1  0.06850000  0.00548000  0.60281550  1
  C  214  1  0.99716250  0.98874050  0.62405800  1
  C  226  1  0.00371750  0.01794150  0.19435350  1
  C  228  1  0.07284850  0.01599850  0.17495100  1
  C  229  1  0.16051050  0.02101550  0.18341800  1
  C  233  1  0.01215950  0.01790150  0.22436100  1
  C  235  1  0.97960850  0.96811450  0.52773200  1
  C  237  1  0.07324150  0.06815150  0.48777150  1
  C  238  1  0.00621150  0.99703750  0.46836900  1
  C  240  1  0.01710250  0.00889550  0.43855100  1
  C  242  1  0.40875200  0.37446100  0.99389800  1
  C  244  1  0.53143100  0.50069500  0.02428900  1
  C  245  1  0.46487750  0.42826650  0.96967050  1
  C  246  1  0.43784650  0.39683650  0.94168650  1
  C  250  1  0.31710300  0.28546300  0.99240950  1
  C  259  1  0.47043200  0.03663100  0.69097200  1
  C  260  1  0.41662200  0.03873600  0.66704200  1
  C  262  1  0.54294850  0.04265950  0.63635500  1
  C  265  1  0.32519700  0.03557200  0.66953500  1
  H  1  1  0.91959700  0.95706000  0.04544400  1
  H  7  1  0.84960850  0.83433050  0.01531600  1
  H  13  1  0.94831800  0.84213700  0.31387500  1
  H  14  1  0.94060500  0.76639800  0.39954000  1
  H  19  1  0.95062200  0.12215300  0.34864700  1
  H  20  1  0.93451950  0.18439450  0.26286200  1
  H  29  1  0.85889300  0.02319600  0.64725800  1
  H  30  1  0.92850500  0.97120600  0.61703700  1
  H  37  1  0.86002150  0.17804350  0.86601000  1
  H  39  1  0.96950450  0.06601150  0.90027050  1
  H  43  1  0.84150500  0.01138400  0.14745400  1
  H  45  1  0.89602700  0.99810000  0.09658950  1
  H  50  1  0.89104200  0.74585800  0.53263400  1
  H  52  1  0.90542350  0.90900350  0.56692600  1
  H  59  1  0.93690200  0.68583600  0.30629000  1
  H  126  1  0.95950500  0.83580700  0.81416550  1
  H  128  1  0.97300050  0.90360150  0.76331500  1
  H  132  1  0.93800050  0.41830150  0.37797400  1
  H  134  1  0.94191750  0.27122450  0.35590700  1
  H  152  1  0.78716850  0.75616550  0.92952850  1
  H  154  1  0.79117350  0.03113350  0.73294650  1
  H  158  1  0.70049750  0.67665350  0.02257500  1
  H  159  1  0.79573150  0.51636150  0.27493800  1
  H  161  1  0.68719950  0.17517250  0.60858500  1
  H  163  1  0.71408400  0.03463400  0.63969650  1
  H  179  1  0.55351750  0.52561950  0.04465900  1
  H  195  1  0.12960400  0.11214200  0.98056800  1
  H  196  1  0.20531100  0.17996400  0.06624400  1
  H  197  1  0.00786550  0.04261950  0.95036000  1
  H  202  1  0.00335950  0.05212750  0.37877000  1
  H  205  1  0.00053350  0.96385950  0.28367300  1
  H  208  1  0.01401600  0.96828000  0.71212500  1
  H  215  1  0.13667150  0.02088350  0.68199600  1
  H  216  1  0.21502200  0.03716800  0.59620600  1
  H  232  1  0.22616650  0.14997750  0.19914100  1
  H  234  1  0.06237900  0.00238600  0.23352900  1
  H  239  1  0.13465900  0.13102700  0.48086600  1
  H  241  1  0.06732400  0.07583200  0.42997100  1
  H  249  1  0.45497550  0.28510350  0.94189250  1
  H  251  1  0.28579400  0.25706300  0.97299900  1
  H  263  1  0.44545600  0.03369700  0.71134200  1
  H  266  1  0.29443950  0.02966250  0.68925300  1
  N  8  1  0.91202100  0.91817400  0.90750400  1
  N  21  1  0.93640700  0.24676500  0.31250200  1
  N  22  1  0.93770800  0.70431800  0.34973450  1
  N  31  1  0.91617000  0.99438400  0.75493500  1
  N  33  1  0.95458050  0.91207950  0.84954350  1
  N  40  1  0.92271850  0.01654950  0.18285700  1
  N  46  1  0.92782050  0.91507450  0.47978200  1
  N  54  1  0.92980800  0.42082600  0.30752100  1
  N  121  1  0.97170500  0.05956800  0.24082500  1
  N  122  1  0.97754000  0.92810200  0.42156500  1
  N  125  1  0.95354700  0.04426700  0.81308750  1
  N  129  1  0.93443800  0.52610600  0.35337300  1
  N  153  1  0.72492900  0.69559200  0.97917000  1
  N  155  1  0.73182850  0.03395650  0.68314000  1
  N  178  1  0.55081100  0.51493200  0.97420400  1
  N  181  1  0.55688250  0.03730850  0.68675900  1
  N  198  1  0.26740650  0.23925450  0.01644200  1
  N  199  1  0.04356850  0.05495250  0.08825000  1
  N  217  1  0.05301100  0.00021100  0.57418000  1
  N  218  1  0.27551150  0.03516950  0.64584700  1
  N  227  1  0.05619400  0.01783500  0.14641600  1
  N  236  1  0.05883250  0.04952650  0.51625500  1
  N  243  1  0.44565650  0.41424650  0.02007350  1
  N  261  1  0.45625050  0.04186050  0.64089000  1
  O  36  1  0.87332200  0.13071600  0.86150850  1
  O  49  1  0.83580250  0.74060450  0.52563400  1
  O  57  1  0.84630300  0.52197500  0.26480500  1
  O  156  1  0.74833200  0.78677900  0.50490100  1
  O  160  1  0.64208200  0.12501900  0.59835600  1
  O  223  1  0.00053050  0.22299650  0.83677700  1
  O  230  1  0.18345500  0.96547300  0.17162000  1
  O  231  1  0.23084500  0.09958800  0.19220350  1
  O  247  1  0.44298200  0.45773800  0.92430750  1
  O  248  1  0.44936800  0.32991200  0.93167400  1
  O  256  1  0.98004900  0.52794600  0.25766800  1
  O  264  1  0.51347100  0.99279300  0.59076750  1
