# generated using pymatgen
data_La2H7C15O14
_symmetry_space_group_name_H-M   'P 1'
_cell_length_a   10.56450000
_cell_length_b   13.98627209
_cell_length_c   16.67339878
_cell_angle_alpha   73.53292558
_cell_angle_beta   71.54207776
_cell_angle_gamma   67.82243935
_symmetry_Int_Tables_number   1
_chemical_formula_structural   La2H7C15O14
_chemical_formula_sum   'La8 H28 C60 O56'
_cell_volume   2125.97310079
_cell_formula_units_Z   4
loop_
 _symmetry_equiv_pos_site_id
 _symmetry_equiv_pos_as_xyz
  1  'x, y, z'
loop_
 _atom_site_type_symbol
 _atom_site_label
 _atom_site_symmetry_multiplicity
 _atom_site_fract_x
 _atom_site_fract_y
 _atom_site_fract_z
 _atom_site_occupancy
  La  La0  1  0.89988000  0.20301000  0.13440000  1
  La  La1  1  0.60186000  0.05898000  0.28921000  1
  La  La2  1  0.23725000  0.29718000  0.36565000  1
  La  La3  1  0.95007000  0.44095000  0.21078000  1
  La  La4  1  0.10012000  0.79700000  0.86560000  1
  La  La5  1  0.39815000  0.94102000  0.71079000  1
  La  La6  1  0.76276000  0.70283000  0.63434000  1
  La  La7  1  0.04994000  0.55906000  0.78921000  1
  H  H8  1  0.06440000  0.13494000  0.95040000  1
  H  H9  1  0.93247000  0.09001000  0.98329000  1
  H  H10  1  0.04523000  0.37304000  0.01832000  1
  H  H11  1  0.16499000  0.31381000  0.07123000  1
  H  H12  1  0.06688000  0.79970000  0.46129000  1
  H  H13  1  0.28358000  0.85347000  0.41693000  1
  H  H14  1  0.21772000  0.84846000  0.22423000  1
  H  H15  1  0.15051000  0.36503000  0.54985000  1
  H  H16  1  0.00674000  0.40922000  0.51706000  1
  H  H17  1  0.43551000  0.12907000  0.48180000  1
  H  H18  1  0.54954000  0.18767000  0.42873000  1
  H  H19  1  0.32818000  0.70026000  0.03820000  1
  H  H20  1  0.55450000  0.64665000  0.08215000  1
  H  H21  1  0.29021000  0.65144000  0.27602000  1
  H  H22  1  0.93561000  0.86507000  0.04959000  1
  H  H23  1  0.06753000  0.91000000  0.01671000  1
  H  H24  1  0.95478000  0.62696000  0.98168000  1
  H  H25  1  0.83501000  0.68619000  0.92877000  1
  H  H26  1  0.93313000  0.20030000  0.53871000  1
  H  H27  1  0.71644000  0.14653000  0.58306000  1
  H  H28  1  0.78228000  0.15155000  0.77577000  1
  H  H29  1  0.84950000  0.63497000  0.45015000  1
  H  H30  1  0.99327000  0.59079000  0.48293000  1
  H  H31  1  0.56449000  0.87094000  0.51820000  1
  H  H32  1  0.45048000  0.81233000  0.57126000  1
  H  H33  1  0.67182000  0.29974000  0.96180000  1
  H  H34  1  0.44550000  0.35336000  0.91785000  1
  H  H35  1  0.70979000  0.34857000  0.72398000  1
  C  C36  1  0.93504000  0.95392000  0.41780000  1
  C  C37  1  0.06360000  0.88009000  0.43073000  1
  C  C38  1  0.18364000  0.90991000  0.40646000  1
  C  C39  1  0.17806000  0.01456000  0.37038000  1
  C  C40  1  0.04949000  0.08966000  0.35619000  1
  C  C41  1  0.92847000  0.05885000  0.37975000  1
  C  C42  1  0.80805000  0.91763000  0.44758000  1
  C  C43  1  0.78865000  0.13779000  0.36782000  1
  C  C44  1  0.02842000  0.20314000  0.31489000  1
  C  C45  1  0.31147000  0.03933000  0.35065000  1
  C  C46  1  0.14716000  0.80373000  0.23492000  1
  C  C47  1  0.01433000  0.85721000  0.21642000  1
  C  C48  1  0.91812000  0.80323000  0.22979000  1
  C  C49  1  0.97505000  0.97312000  0.18677000  1
  C  C50  1  0.78688000  0.85615000  0.19471000  1
  C  C51  1  0.30679000  0.54614000  0.08204000  1
  C  C52  1  0.37468000  0.61992000  0.06883000  1
  C  C53  1  0.50041000  0.59018000  0.09295000  1
  C  C54  1  0.56331000  0.48562000  0.12917000  1
  C  C55  1  0.49538000  0.41054000  0.14379000  1
  C  C56  1  0.36709000  0.44126000  0.12025000  1
  C  C57  1  0.17304000  0.58248000  0.05240000  1
  C  C58  1  0.29449000  0.36220000  0.13219000  1
  C  C59  1  0.54652000  0.29705000  0.18518000  1
  C  C60  1  0.70180000  0.46067000  0.14890000  1
  C  C61  1  0.18571000  0.69622000  0.26519000  1
  C  C62  1  0.08768000  0.64285000  0.28386000  1
  C  C63  1  0.95102000  0.69679000  0.27026000  1
  C  C64  1  0.13480000  0.52695000  0.31352000  1
  C  C65  1  0.83757000  0.64389000  0.30507000  1
  C  C66  1  0.06497000  0.04609000  0.58219000  1
  C  C67  1  0.93641000  0.11992000  0.56926000  1
  C  C68  1  0.81637000  0.09009000  0.59354000  1
  C  C69  1  0.82194000  0.98545000  0.62962000  1
  C  C70  1  0.95050000  0.91035000  0.64381000  1
  C  C71  1  0.07154000  0.94116000  0.62024000  1
  C  C72  1  0.19196000  0.08237000  0.55242000  1
  C  C73  1  0.21136000  0.86221000  0.63218000  1
  C  C74  1  0.97159000  0.79686000  0.68511000  1
  C  C75  1  0.68852000  0.96068000  0.64935000  1
  C  C76  1  0.85284000  0.19628000  0.76508000  1
  C  C77  1  0.98568000  0.14280000  0.78357000  1
  C  C78  1  0.08189000  0.19677000  0.77021000  1
  C  C79  1  0.02497000  0.02688000  0.81322000  1
  C  C80  1  0.21313000  0.14385000  0.80528000  1
  C  C81  1  0.69321000  0.45387000  0.91796000  1
  C  C82  1  0.62532000  0.38009000  0.93117000  1
  C  C83  1  0.49961000  0.40982000  0.90704000  1
  C  C84  1  0.43670000  0.51438000  0.87083000  1
  C  C85  1  0.50461000  0.58947000  0.85621000  1
  C  C86  1  0.63291000  0.55875000  0.87975000  1
  C  C87  1  0.82696000  0.41753000  0.94760000  1
  C  C88  1  0.70552000  0.63780000  0.86781000  1
  C  C89  1  0.45349000  0.70295000  0.81482000  1
  C  C90  1  0.29820000  0.53934000  0.85110000  1
  C  C91  1  0.81430000  0.30379000  0.73480000  1
  C  C92  1  0.91232000  0.35716000  0.71613000  1
  C  C93  1  0.04900000  0.30321000  0.72973000  1
  C  C94  1  0.86521000  0.47305000  0.68648000  1
  C  C95  1  0.16242000  0.35612000  0.69493000  1
  O  O96  1  0.70650000  0.96223000  0.40952000  1
  O  O97  1  0.80755000  0.84230000  0.51098000  1
  O  O98  1  0.76154000  0.15224000  0.29361000  1
  O  O99  1  0.70497000  0.18118000  0.42870000  1
  O  O100  1  0.00189000  0.23246000  0.24061000  1
  O  O101  1  0.02316000  0.27145000  0.35399000  1
  O  O102  1  0.32108000  0.12979000  0.30487000  1
  O  O103  1  0.41564000  0.97145000  0.37765000  1
  O  O104  1  0.06305000  0.02026000  0.17462000  1
  O  O105  1  0.84914000  0.02514000  0.17513000  1
  O  O106  1  0.66999000  0.89618000  0.24636000  1
  O  O107  1  0.80077000  0.85609000  0.11731000  1
  O  O108  1  0.98609000  0.11893000  0.00230000  1
  O  O109  1  0.06046000  0.33243000  0.07497000  1
  O  O110  1  0.07806000  0.53790000  0.09048000  1
  O  O111  1  0.16019000  0.65782000  0.98903000  1
  O  O112  1  0.20765000  0.34779000  0.20638000  1
  O  O113  1  0.31543000  0.31875000  0.07128000  1
  O  O114  1  0.47478000  0.26747000  0.25924000  1
  O  O115  1  0.64892000  0.22882000  0.14614000  1
  O  O116  1  0.75511000  0.37020000  0.19501000  1
  O  O117  1  0.76583000  0.52812000  0.12174000  1
  O  O118  1  0.25779000  0.47994000  0.32566000  1
  O  O119  1  0.04946000  0.47481000  0.32505000  1
  O  O120  1  0.81294000  0.60375000  0.25326000  1
  O  O121  1  0.77336000  0.64395000  0.38242000  1
  O  O122  1  0.10833000  0.38118000  0.49785000  1
  O  O123  1  0.46614000  0.17024000  0.42530000  1
  O  O124  1  0.29350000  0.03778000  0.59048000  1
  O  O125  1  0.19247000  0.15770000  0.48901000  1
  O  O126  1  0.23848000  0.84776000  0.70638000  1
  O  O127  1  0.29505000  0.81882000  0.57129000  1
  O  O128  1  0.99811000  0.76754000  0.75939000  1
  O  O129  1  0.97685000  0.72855000  0.64601000  1
  O  O130  1  0.67894000  0.87021000  0.69512000  1
  O  O131  1  0.58435000  0.02856000  0.62235000  1
  O  O132  1  0.93694000  0.97975000  0.82538000  1
  O  O133  1  0.15087000  0.97487000  0.82486000  1
  O  O134  1  0.33001000  0.10382000  0.75364000  1
  O  O135  1  0.19923000  0.14392000  0.88269000  1
  O  O136  1  0.01392000  0.88107000  0.99770000  1
  O  O137  1  0.93956000  0.66757000  0.92502000  1
  O  O138  1  0.92194000  0.46211000  0.90952000  1
  O  O139  1  0.83983000  0.34218000  0.01096000  1
  O  O140  1  0.79236000  0.65222000  0.79361000  1
  O  O141  1  0.68459000  0.68125000  0.92871000  1
  O  O142  1  0.52522000  0.73254000  0.74076000  1
  O  O143  1  0.35109000  0.77118000  0.85386000  1
  O  O144  1  0.24491000  0.62980000  0.80498000  1
  O  O145  1  0.23418000  0.47189000  0.87825000  1
  O  O146  1  0.74222000  0.52006000  0.67434000  1
  O  O147  1  0.95054000  0.52520000  0.67495000  1
  O  O148  1  0.18708000  0.39625000  0.74673000  1
  O  O149  1  0.22664000  0.35605000  0.61758000  1
  O  O150  1  0.89168000  0.61883000  0.50214000  1
  O  O151  1  0.53388000  0.82976000  0.57469000  1
