# generated using pymatgen
data_SiH24C44(NO)8
_symmetry_space_group_name_H-M   'P 1'
_cell_length_a   30.89295000
_cell_length_b   30.89300000
_cell_length_c   50.44520000
_cell_angle_alpha   90.00000000
_cell_angle_beta   90.00000000
_cell_angle_gamma   120.00016062
_symmetry_Int_Tables_number   1
_chemical_formula_structural   SiH24C44(NO)8
_chemical_formula_sum   'Si4 H96 C176 N32 O32'
_cell_volume   41693.58534942
_cell_formula_units_Z   4
loop_
 _symmetry_equiv_pos_site_id
 _symmetry_equiv_pos_as_xyz
  1  'x, y, z'
loop_
 _atom_site_type_symbol
 _atom_site_label
 _atom_site_symmetry_multiplicity
 _atom_site_fract_x
 _atom_site_fract_y
 _atom_site_fract_z
 _atom_site_occupancy
  Si  7  1  0.66912500  0.33481000  0.93894200  1
  Si  48  1  0.33535600  0.66668500  0.43894000  1
  Si  89  1  0.33494800  0.66663300  0.06444900  1
  Si  130  1  0.66952500  0.33485900  0.56445200  1
  H  26  1  0.66086100  0.48411400  0.94669200  1
  H  27  1  0.69961400  0.43741900  0.93470300  1
  H  28  1  0.53060800  0.35105100  0.96923400  1
  H  29  1  0.56940000  0.30428200  0.95798500  1
  H  30  1  0.59416400  0.29888600  0.89955600  1
  H  31  1  0.59745800  0.30301400  0.85245300  1
  H  32  1  0.75504700  0.38708500  0.85541600  1
  H  33  1  0.75237100  0.38494300  0.90233900  1
  H  34  1  0.74429900  0.30892700  0.93312400  1
  H  35  1  0.82502300  0.34144900  0.95180600  1
  H  36  1  0.80199900  0.44228600  0.99792000  1
  H  37  1  0.72065700  0.40872700  0.98026400  1
  H  38  1  0.63416300  0.29270100  0.98963000  1
  H  39  1  0.63917100  0.24077600  0.91259700  1
  H  40  1  0.59834200  0.15781500  0.92848100  1
  H  41  1  0.59194800  0.20914700  0.00520000  1
  H  67  1  0.34364400  0.51738800  0.44667500  1
  H  68  1  0.30489000  0.56407900  0.43468400  1
  H  69  1  0.47386500  0.65044400  0.46925200  1
  H  70  1  0.43507500  0.69721000  0.45800200  1
  H  71  1  0.41030900  0.70260600  0.39954900  1
  H  72  1  0.40700700  0.69848900  0.35244800  1
  H  73  1  0.24941600  0.61443100  0.35541600  1
  H  74  1  0.25210100  0.61656400  0.40234000  1
  H  75  1  0.26017500  0.69256100  0.43313600  1
  H  76  1  0.17944900  0.66001800  0.45181500  1
  H  77  1  0.20247900  0.55915700  0.49790500  1
  H  78  1  0.28382500  0.59273800  0.48025200  1
  H  79  1  0.37031600  0.70879200  0.48962900  1
  H  80  1  0.36532100  0.76073000  0.41260000  1
  H  81  1  0.40616500  0.84368700  0.42848300  1
  H  82  1  0.41255000  0.79234600  0.50520000  1
  H  108  1  0.17701600  0.51800300  0.05639400  1
  H  109  1  0.26253200  0.56428500  0.06830000  1
  H  110  1  0.18121000  0.65111600  0.03258600  1
  H  111  1  0.26677500  0.69767700  0.04417700  1
  H  112  1  0.29772900  0.70626100  0.10266800  1
  H  113  1  0.29219300  0.70043000  0.14950500  1
  H  114  1  0.35688000  0.60804000  0.14882700  1
  H  115  1  0.36092900  0.61207600  0.10201000  1
  H  116  1  0.43428700  0.68863000  0.07296500  1
  H  117  1  0.48246800  0.65563800  0.05471900  1
  H  118  1  0.36197700  0.56118600  0.00484500  1
  H  119  1  0.31419900  0.59507600  0.02220700  1
  H  120  1  0.34312700  0.70998100  0.01392300  1
  H  121  1  0.40155600  0.75949300  0.09094700  1
  H  122  1  0.44492800  0.84275100  0.07558000  1
  H  123  1  0.38535800  0.79385600  0.99891000  1
  H  149  1  0.82745200  0.48349400  0.55638200  1
  H  150  1  0.74193600  0.43721300  0.56829000  1
  H  151  1  0.82326900  0.35037300  0.53260400  1
  H  152  1  0.73770200  0.30381300  0.54419500  1
  H  153  1  0.70672400  0.29521700  0.60268000  1
  H  154  1  0.71224000  0.30105100  0.64951700  1
  H  155  1  0.64758100  0.39346300  0.64882300  1
  H  156  1  0.64355200  0.38943000  0.60200400  1
  H  157  1  0.57018400  0.31285500  0.57297600  1
  H  158  1  0.52199800  0.34584900  0.55473500  1
  H  159  1  0.64247500  0.44028900  0.50484900  1
  H  160  1  0.69025900  0.40640400  0.52220700  1
  H  161  1  0.66135100  0.29150100  0.51392600  1
  H  162  1  0.60293500  0.24201500  0.59095600  1
  H  163  1  0.55956400  0.15875100  0.57559700  1
  H  164  1  0.61911800  0.20761900  0.49892200  1
  H  171  1  0.72068600  0.30830400  0.81857700  1
  H  178  1  0.71111300  0.42722400  0.68574400  1
  H  179  1  0.65260500  0.27122400  0.68860500  1
  H  180  1  0.63743400  0.38246000  0.81505800  1
  H  193  1  0.28378200  0.69321800  0.31857800  1
  H  200  1  0.29334600  0.57427700  0.18574500  1
  H  201  1  0.35182800  0.73027100  0.18860100  1
  H  202  1  0.36700800  0.61903700  0.31505100  1
  H  215  1  0.51502800  0.09369800  0.94503900  1
  H  222  1  0.42739900  0.90812900  0.06065000  1
  H  223  1  0.46811700  0.86588400  0.98950200  1
  H  224  1  0.60423100  0.13706200  0.01401800  1
  H  237  1  0.59308800  0.50152500  0.93601800  1
  H  244  1  0.47861100  0.57196000  0.05628500  1
  H  245  1  0.43946100  0.58351200  0.97760300  1
  H  246  1  0.53950900  0.41143900  0.00442500  1
  H  259  1  0.90578200  0.42280600  0.94861900  1
  H  266  1  0.09246600  0.50460800  0.06844700  1
  H  267  1  0.12902900  0.58742600  0.99738900  1
  H  268  1  0.85672100  0.42269000  0.02662900  1
  H  281  1  0.48948100  0.90780600  0.44505000  1
  H  288  1  0.57708600  0.09335500  0.56066400  1
  H  289  1  0.53635900  0.13560600  0.48952000  1
  H  290  1  0.40025500  0.86442300  0.51402100  1
  H  303  1  0.41141800  0.49998100  0.43600600  1
  H  310  1  0.52585100  0.42952200  0.55629300  1
  H  311  1  0.56498500  0.41795300  0.47761200  1
  H  312  1  0.46494300  0.59002400  0.50443100  1
  H  325  1  0.09869400  0.57865800  0.44861800  1
  H  332  1  0.91200800  0.49690200  0.56843100  1
  H  333  1  0.87544000  0.41402700  0.49738900  1
  H  334  1  0.14775100  0.57875000  0.52662700  1
  C  1  1  0.59002700  0.17479000  0.96834500  1
  C  2  1  0.60439000  0.18574800  0.94146200  1
  C  3  1  0.62847100  0.23515900  0.93203700  1
  C  4  1  0.63859400  0.27556200  0.94909100  1
  C  5  1  0.62633600  0.26475400  0.97626500  1
  C  6  1  0.60180300  0.21527200  0.98561900  1
  C  8  1  0.72471100  0.35724600  0.95355000  1
  C  9  1  0.74212200  0.39447800  0.97349200  1
  C  10  1  0.79009500  0.41374200  0.98449700  1
  C  11  1  0.82211100  0.39583600  0.97636800  1
  C  12  1  0.80356600  0.35636400  0.95775400  1
  C  13  1  0.75553200  0.33695700  0.94685300  1
  C  14  1  0.67305800  0.33953200  0.90601900  1
  C  15  1  0.63996500  0.36617900  0.94675300  1
  C  16  1  0.66401300  0.41838000  0.94214500  1
  C  17  1  0.64086800  0.44612400  0.94892200  1
  C  18  1  0.59203600  0.42250300  0.95965000  1
  C  19  1  0.56663500  0.36990300  0.96244000  1
  C  20  1  0.58997100  0.34221800  0.95594200  1
  C  21  1  0.62857200  0.31789800  0.89071600  1
  C  22  1  0.63025400  0.32041400  0.86288600  1
  C  23  1  0.67657100  0.34473400  0.84953700  1
  C  24  1  0.72099000  0.36808700  0.86459700  1
  C  25  1  0.71919600  0.36629700  0.89242200  1
  C  42  1  0.41447100  0.82670700  0.46834600  1
  C  43  1  0.40011300  0.81575000  0.44146300  1
  C  44  1  0.37604800  0.76634300  0.43203500  1
  C  45  1  0.36587500  0.72592700  0.44909200  1
  C  46  1  0.37813700  0.73674000  0.47626600  1
  C  47  1  0.40267900  0.78622000  0.48562000  1
  C  49  1  0.27977200  0.64423800  0.45355200  1
  C  50  1  0.26235800  0.60698700  0.47348400  1
  C  51  1  0.21438200  0.58771100  0.48448800  1
  C  52  1  0.18236400  0.60561500  0.47636700  1
  C  53  1  0.20090600  0.64510000  0.45776000  1
  C  54  1  0.24894300  0.66452000  0.44686100  1
  C  55  1  0.33141500  0.66196400  0.40601700  1
  C  56  1  0.36452500  0.63532200  0.44674200  1
  C  57  1  0.34048700  0.58312200  0.44213600  1
  C  58  1  0.36364100  0.55537800  0.44889700  1
  C  59  1  0.41246200  0.57899500  0.45964000  1
  C  60  1  0.43784900  0.63159300  0.46244700  1
  C  61  1  0.41451100  0.65927500  0.45594900  1
  C  62  1  0.37589700  0.68360100  0.39070900  1
  C  63  1  0.37421300  0.68111000  0.36287900  1
  C  64  1  0.32789100  0.65678000  0.34953400  1
  C  65  1  0.28347500  0.63342100  0.36459600  1
  C  66  1  0.28527600  0.63521300  0.39242000  1
  C  83  1  0.41880800  0.82715300  0.03580400  1
  C  84  1  0.42250100  0.81532300  0.06248800  1
  C  85  1  0.39638700  0.76573600  0.07161900  1
  C  86  1  0.36504500  0.72597600  0.05446400  1
  C  87  1  0.36380900  0.73749200  0.02739500  1
  C  88  1  0.38939800  0.78718800  0.01835900  1
  C  90  1  0.36799400  0.64343400  0.05058800  1
  C  91  1  0.34913600  0.60781400  0.02983100  1
  C  92  1  0.37785400  0.58838000  0.01904100  1
  C  93  1  0.42678800  0.60445100  0.02828900  1
  C  94  1  0.44675900  0.64209200  0.04794000  1
  C  95  1  0.41817700  0.66175900  0.05859300  1
  C  96  1  0.33219700  0.66175100  0.09736200  1
  C  97  1  0.27474300  0.63564600  0.05597200  1
  C  98  1  0.24630400  0.58345800  0.06060700  1
  C  99  1  0.19539200  0.55595100  0.05388700  1
  C  100  1  0.17058800  0.57977000  0.04292600  1
  C  101  1  0.19817400  0.63224200  0.03965500  1
  C  102  1  0.24915200  0.65975500  0.04632400  1
  C  103  1  0.31071900  0.68550300  0.11196900  1
  C  104  1  0.30767100  0.68240600  0.13974600  1
  C  105  1  0.32481800  0.65441000  0.15392000  1
  C  106  1  0.34410100  0.62873700  0.13931800  1
  C  107  1  0.34744100  0.63207100  0.11152700  1
  C  124  1  0.58568000  0.17433400  0.53581900  1
  C  125  1  0.58199000  0.18617400  0.56250400  1
  C  126  1  0.60810200  0.23576300  0.57162800  1
  C  127  1  0.63943400  0.27551600  0.55446700  1
  C  128  1  0.64067500  0.26399300  0.52740000  1
  C  129  1  0.61510300  0.21429300  0.51837300  1
  C  131  1  0.63646500  0.35804000  0.55059000  1
  C  132  1  0.65532000  0.39365900  0.52983100  1
  C  133  1  0.62659900  0.41309500  0.51904500  1
  C  134  1  0.57766800  0.39702700  0.52829600  1
  C  135  1  0.55770200  0.35938900  0.54794900  1
  C  136  1  0.58628900  0.33972500  0.55860000  1
  C  137  1  0.67229300  0.33975700  0.59736300  1
  C  138  1  0.72972700  0.36585000  0.55597000  1
  C  139  1  0.75816500  0.41804200  0.56059500  1
  C  140  1  0.80906400  0.44555000  0.55385300  1
  C  141  1  0.83388200  0.42172500  0.54291800  1
  C  142  1  0.80629600  0.36924900  0.53965500  1
  C  143  1  0.75531900  0.34174100  0.54632200  1
  C  144  1  0.69377100  0.31601200  0.61197700  1
  C  145  1  0.69679400  0.31909900  0.63975400  1
  C  146  1  0.67963900  0.34709200  0.65392400  1
  C  147  1  0.66036800  0.37277100  0.63931600  1
  C  148  1  0.65704100  0.36943700  0.61152500  1
  C  165  1  0.67869000  0.34516700  0.82154000  1
  C  166  1  0.65590800  0.36652400  0.80628700  1
  C  168  1  0.68385900  0.34795200  0.76590100  1
  C  169  1  0.70662500  0.32490800  0.78003100  1
  C  170  1  0.70411700  0.32444100  0.80803500  1
  C  172  1  0.68429100  0.35095767  0.73798900  1
  C  173  1  0.70023200  0.39629700  0.72405900  1
  C  174  1  0.69859100  0.39454100  0.69602300  1
  C  175  1  0.68154600  0.34910400  0.68211100  1
  C  176  1  0.66615500  0.30543300  0.69734900  1
  C  187  1  0.32576800  0.65634700  0.32153500  1
  C  188  1  0.34853600  0.63497700  0.30628100  1
  C  190  1  0.32058000  0.65355300  0.26589700  1
  C  191  1  0.29782800  0.67660700  0.28003100  1
  C  192  1  0.30033300  0.67706800  0.30803400  1
  C  194  1  0.32013200  0.65053000  0.23798500  1
  C  195  1  0.30420600  0.60519900  0.22405700  1
  C  196  1  0.30585200  0.60695800  0.19602100  1
  C  197  1  0.32288800  0.65239100  0.18210900  1
  C  198  1  0.33825400  0.69606000  0.19734500  1
  C  209  1  0.56449700  0.12446000  0.97766000  1
  C  210  1  0.57620000  0.11118400  0.00234000  1
  C  212  1  0.51365900  0.02542000  0.99689800  1
  C  213  1  0.49991300  0.03574500  0.97191400  1
  C  214  1  0.52574100  0.08567800  0.96270600  1
  C  216  1  0.49026200  0.97715900  0.00813200  1
  C  217  1  0.46830800  0.96648600  0.03367300  1
  C  218  1  0.44488800  0.91640100  0.04261500  1
  C  219  1  0.44361300  0.87779700  0.02690100  1
  C  220  1  0.46689700  0.89154600  0.00178300  1
  C  231  1  0.56981200  0.45094400  0.96827600  1
  C  232  1  0.54362000  0.44004000  0.99254200  1
  C  234  1  0.52908600  0.50899200  0.98791300  1
  C  235  1  0.55449900  0.52181300  0.96320000  1
  C  236  1  0.57469000  0.49238500  0.95380100  1
  C  238  1  0.50643400  0.53474400  0.99945900  1
  C  239  1  0.50589900  0.54290500  0.02714300  1
  C  240  1  0.47986200  0.56684500  0.03631300  1
  C  241  1  0.45453100  0.58223100  0.01870800  1
  C  242  1  0.45660900  0.57307100  0.99146000  1
  C  253  1  0.87215700  0.41815200  0.98589100  1
  C  254  1  0.88397200  0.43075200  0.01285200  1
  C  256  1  0.97182800  0.46647000  0.00478800  1
  C  257  1  0.96258400  0.45466200  0.97741600  1
  C  258  1  0.91248700  0.43043000  0.96842100  1
  C  260  1  0.02045900  0.49290600  0.01600800  1
  C  261  1  0.03311200  0.48249400  0.04134800  1
  C  262  1  0.08304400  0.51208100  0.05025700  1
  C  263  1  0.11973800  0.55146300  0.03471500  1
  C  264  1  0.10438000  0.56029500  0.00993000  1
  C  275  1  0.43999800  0.87703400  0.47766500  1
  C  276  1  0.42828700  0.89030600  0.50234500  1
  C  278  1  0.49082300  0.97607200  0.49690800  1
  C  279  1  0.50457700  0.96575100  0.47192400  1
  C  280  1  0.47873800  0.91582600  0.46270600  1
  C  282  1  0.51421500  0.02432800  0.50814600  1
  C  283  1  0.53616700  0.03499900  0.53368800  1
  C  284  1  0.55955800  0.08507800  0.54263900  1
  C  285  1  0.56086300  0.12368900  0.52691900  1
  C  286  1  0.53758700  0.10994400  0.50179800  1
  C  297  1  0.43467800  0.55055000  0.46826900  1
  C  298  1  0.46087500  0.56145600  0.49253300  1
  C  300  1  0.47536600  0.49247500  0.48791600  1
  C  301  1  0.44998100  0.47967500  0.46319600  1
  C  302  1  0.42980600  0.50911600  0.45379200  1
  C  304  1  0.49800000  0.46670800  0.49946700  1
  C  305  1  0.49855500  0.45856900  0.52715000  1
  C  306  1  0.52460800  0.43464800  0.53632300  1
  C  307  1  0.54992600  0.41924700  0.51871800  1
  C  308  1  0.54783900  0.42839600  0.49146800  1
  C  319  1  0.13231500  0.58328500  0.48588800  1
  C  320  1  0.12050200  0.57068400  0.51285000  1
  C  322  1  0.03264800  0.53495600  0.50478200  1
  C  323  1  0.04189000  0.54678100  0.47741100  1
  C  324  1  0.09198900  0.57102200  0.46841900  1
  C  326  1  0.98401400  0.50855100  0.51600000  1
  C  327  1  0.97135900  0.51898700  0.54133400  1
  C  328  1  0.92142700  0.48941500  0.55024300  1
  C  329  1  0.88472900  0.45002900  0.53470500  1
  C  330  1  0.90008100  0.44117900  0.50992400  1
  N  167  1  0.65963400  0.36748100  0.77952900  1
  N  177  1  0.66795900  0.30788300  0.72412500  1
  N  181  1  0.71894800  0.44185000  0.73810400  1
  N  182  1  0.73234700  0.30463300  0.76627100  1
  N  189  1  0.34480100  0.63401800  0.27952500  1
  N  199  1  0.33646100  0.69361300  0.22412100  1
  N  203  1  0.28550100  0.55965000  0.23810400  1
  N  204  1  0.27209600  0.69687600  0.26627300  1
  N  211  1  0.55093800  0.06325200  0.01088200  1
  N  221  1  0.48872900  0.93956500  0.99346300  1
  N  225  1  0.46830100  0.00486200  0.04900000  1
  N  226  1  0.46007900  0.99717100  0.95740700  1
  N  233  1  0.52481000  0.46872500  0.00114400  1
  N  243  1  0.48172800  0.55012100  0.98313300  1
  N  247  1  0.53172600  0.52841800  0.04500200  1
  N  248  1  0.56115000  0.56424800  0.94901400  1
  N  255  1  0.93215000  0.45399500  0.02101500  1
  N  265  1  0.05660900  0.53134400  0.00176500  1
  N  269  1  0.99703600  0.44220900  0.05669800  1
  N  270  1  0.00247500  0.46585100  0.95976000  1
  N  277  1  0.45354300  0.93823500  0.51088900  1
  N  287  1  0.51575000  0.06192400  0.49347800  1
  N  291  1  0.53618600  0.99662400  0.54901000  1
  N  292  1  0.54442100  0.00433200  0.45742500  1
  N  299  1  0.47964600  0.53274300  0.50114600  1
  N  309  1  0.52271300  0.45133700  0.48314000  1
  N  313  1  0.47272800  0.47305600  0.54500900  1
  N  314  1  0.44332700  0.43723800  0.44900600  1
  N  321  1  0.07232500  0.54744100  0.52101100  1
  N  331  1  0.94785900  0.47010800  0.50176300  1
  N  335  1  0.00744900  0.55927500  0.55667800  1
  N  336  1  0.00200200  0.53561700  0.45975900  1
  O  183  1  0.69372900  0.46263900  0.73331900  1
  O  184  1  0.71336800  0.25869800  0.77085400  1
  O  185  1  0.77775500  0.32623900  0.77259300  1
  O  186  1  0.76382500  0.47161600  0.73228800  1
  O  205  1  0.31073600  0.53887500  0.23332100  1
  O  206  1  0.29107500  0.74281100  0.27085500  1
  O  207  1  0.22669300  0.67526700  0.27259700  1
  O  208  1  0.24062800  0.52987200  0.23228400  1
  O  227  1  0.49023200  0.01020800  0.07075200  1
  O  228  1  0.47448200  0.99152800  0.93504500  1
  O  229  1  0.42493700  0.00607800  0.95422000  1
  O  230  1  0.42458200  0.99590000  0.05352400  1
  O  249  1  0.50246700  0.49708100  0.06159400  1
  O  250  1  0.54168600  0.55247400  0.92638100  1
  O  251  1  0.60665500  0.59620800  0.94649500  1
  O  252  1  0.56536700  0.56533900  0.05727800  1
  O  271  1  0.99021600  0.45704500  0.07866400  1
  O  272  1  0.00501500  0.49505200  0.94169700  1
  O  273  1  0.99814800  0.42695700  0.94930600  1
  O  274  1  0.00966400  0.40991300  0.06076300  1
  O  293  1  0.51424700  0.99125800  0.57076000  1
  O  294  1  0.53003100  0.00999100  0.43506200  1
  O  295  1  0.57955800  0.99541600  0.45423800  1
  O  296  1  0.57990900  0.00560100  0.55353600  1
  O  315  1  0.50198700  0.50440600  0.56159600  1
  O  316  1  0.46281200  0.44902000  0.42637800  1
  O  317  1  0.39782100  0.40528900  0.44647700  1
  O  318  1  0.43910100  0.43613700  0.55729400  1
  O  337  1  0.01425700  0.54444500  0.57865000  1
  O  338  1  0.99945600  0.50643300  0.44168600  1
  O  339  1  0.00633700  0.57452700  0.44931800  1
  O  340  1  0.99483200  0.59158500  0.56073500  1
