# generated using pymatgen
data_CoH16C18(NO2)2
_symmetry_space_group_name_H-M   'P 1'
_cell_length_a   9.80126000
_cell_length_b   13.43819000
_cell_length_c   18.75139000
_cell_angle_alpha   69.04664000
_cell_angle_beta   77.90740000
_cell_angle_gamma   89.94907000
_symmetry_Int_Tables_number   1
_chemical_formula_structural   CoH16C18(NO2)2
_chemical_formula_sum   'Co4 H64 C72 N8 O16'
_cell_volume   2247.84434495
_cell_formula_units_Z   4
loop_
 _symmetry_equiv_pos_site_id
 _symmetry_equiv_pos_as_xyz
  1  'x, y, z'
loop_
 _atom_site_type_symbol
 _atom_site_label
 _atom_site_symmetry_multiplicity
 _atom_site_fract_x
 _atom_site_fract_y
 _atom_site_fract_z
 _atom_site_occupancy
  Co  Co0  1  0.15793000  0.59488000  0.28767000  1
  Co  Co1  1  0.34187000  0.88222000  0.71266000  1
  Co  Co2  1  0.84249000  0.40526000  0.71258000  1
  Co  Co3  1  0.65605000  0.11836000  0.28757000  1
  H  H4  1  0.74873000  0.53025000  0.51427000  1
  H  H5  1  0.13827000  0.67512000  0.48474000  1
  H  H6  1  0.04730000  0.67538000  0.62339000  1
  H  H7  1  0.35031000  0.77632000  0.54736000  1
  H  H8  1  0.99505000  0.57234000  0.43777000  1
  H  H9  1  0.62794000  0.53120000  0.30507000  1
  H  H10  1  0.88136000  0.57114000  0.23756000  1
  H  H11  1  0.43202000  0.79148000  0.40612000  1
  H  H12  1  0.45276000  0.55600000  0.42274000  1
  H  H13  1  0.48441000  0.42094000  0.45896000  1
  H  H14  1  0.16971000  0.62557000  0.11378000  1
  H  H15  1  0.10751000  0.80909000  0.25367000  1
  H  H16  1  0.99577000  0.94401000  0.16204000  1
  H  H17  1  0.06591000  0.75893000  0.01196000  1
  H  H18  1  0.93611000  0.91676000  0.97468000  1
  H  H19  1  0.85154000  0.95951000  0.05057000  1
  H  H20  1  0.75052000  0.04423000  0.48598000  1
  H  H21  1  0.36259000  0.15910000  0.51496000  1
  H  H22  1  0.45303000  0.29924000  0.37620000  1
  H  H23  1  0.14968000  0.32263000  0.45274000  1
  H  H24  1  0.50405000  0.00942000  0.56239000  1
  H  H25  1  0.87182000  0.83711000  0.69535000  1
  H  H26  1  0.61813000  0.80899000  0.76262000  1
  H  H27  1  0.06850000  0.19681000  0.59388000  1
  H  H28  1  0.04643000  0.98016000  0.57720000  1
  H  H29  1  0.01602000  0.88091000  0.54109000  1
  H  H30  1  0.33057000  0.73887000  0.88611000  1
  H  H31  1  0.39216000  0.06192000  0.74664000  1
  H  H32  1  0.50346000  0.10536000  0.83843000  1
  H  H33  1  0.43399000  0.77025000  0.98822000  1
  H  H34  1  0.56348000  0.89085000  0.02564000  1
  H  H35  1  0.64826000  0.00907000  0.94963000  1
  H  H36  1  0.25175000  0.46931000  0.48576000  1
  H  H37  1  0.86064000  0.32445000  0.51530000  1
  H  H38  1  0.94815000  0.32511000  0.37601000  1
  H  H39  1  0.64622000  0.22313000  0.45404000  1
  H  H40  1  0.00555000  0.42683000  0.56228000  1
  H  H41  1  0.37239000  0.46892000  0.69485000  1
  H  H42  1  0.11917000  0.42884000  0.76236000  1
  H  H43  1  0.56708000  0.20765000  0.59473000  1
  H  H44  1  0.54775000  0.44357000  0.57721000  1
  H  H45  1  0.51657000  0.57869000  0.54103000  1
  H  H46  1  0.83120000  0.37420000  0.88635000  1
  H  H47  1  0.89315000  0.19052000  0.74658000  1
  H  H48  1  0.00419000  0.05530000  0.83848000  1
  H  H49  1  0.93455000  0.24064000  0.98832000  1
  H  H50  1  0.06398000  0.08271000  0.02571000  1
  H  H51  1  0.14853000  0.03994000  0.94982000  1
  H  H52  1  0.24652000  0.95543000  0.51396000  1
  H  H53  1  0.63658000  0.84048000  0.48489000  1
  H  H54  1  0.54671000  0.70122000  0.62318000  1
  H  H55  1  0.84989000  0.67706000  0.54723000  1
  H  H56  1  0.49298000  0.98949000  0.43762000  1
  H  H57  1  0.12601000  0.16280000  0.30437000  1
  H  H58  1  0.37955000  0.19015000  0.23722000  1
  H  H59  1  0.93140000  0.80399000  0.40604000  1
  H  H60  1  0.95028000  0.02140000  0.42303000  1
  H  H61  1  0.98245000  0.12032000  0.45909000  1
  H  H62  1  0.66840000  0.26093000  0.11403000  1
  H  H63  1  0.60739000  0.93798000  0.25369000  1
  H  H64  1  0.49688000  0.89413000  0.16170000  1
  H  H65  1  0.56574000  0.22912000  0.01182000  1
  H  H66  1  0.43631000  0.10829000  0.97454000  1
  H  H67  1  0.35180000  0.99007000  0.05062000  1
  C  C68  1  0.77213000  0.53960000  0.45289000  1
  C  C69  1  0.23525000  0.71763000  0.48151000  1
  C  C70  1  0.15016000  0.71310000  0.61672000  1
  C  C71  1  0.25068000  0.73781000  0.54982000  1
  C  C72  1  0.91018000  0.56167000  0.41132000  1
  C  C73  1  0.66672000  0.52786000  0.41581000  1
  C  C74  1  0.16863000  0.74668000  0.68164000  1
  C  C75  1  0.31620000  0.72093000  0.34512000  1
  C  C76  1  0.70644000  0.54043000  0.33642000  1
  C  C77  1  0.84696000  0.56212000  0.29878000  1
  C  C78  1  0.33392000  0.74681000  0.41357000  1
  C  C79  1  0.51604000  0.49996000  0.45837000  1
  C  C80  1  0.13198000  0.69839000  0.12098000  1
  C  C81  1  0.09752000  0.80080000  0.19930000  1
  C  C82  1  0.03593000  0.87708000  0.14651000  1
  C  C83  1  0.07323000  0.77285000  0.06484000  1
  C  C84  1  0.02155000  0.86381000  0.07750000  1
  C  C85  1  0.95434000  0.94588000  0.01990000  1
  C  C86  1  0.72717000  0.99238000  0.54737000  1
  C  C87  1  0.26530000  0.19810000  0.51853000  1
  C  C88  1  0.34968000  0.32949000  0.38346000  1
  C  C89  1  0.24950000  0.28673000  0.45041000  1
  C  C90  1  0.58908000  0.97260000  0.58885000  1
  C  C91  1  0.83276000  0.94395000  0.58446000  1
  C  C92  1  0.33065000  0.42743000  0.31824000  1
  C  C93  1  0.18347000  0.06515000  0.65470000  1
  C  C94  1  0.79324000  0.87731000  0.66387000  1
  C  C95  1  0.65264000  0.86104000  0.70140000  1
  C  C96  1  0.16652000  0.15945000  0.58639000  1
  C  C97  1  0.98340000  0.95916000  0.54170000  1
  C  C98  1  0.36799000  0.81878000  0.87920000  1
  C  C99  1  0.40209000  0.99944000  0.80105000  1
  C  C100  1  0.46340000  0.02296000  0.85395000  1
  C  C101  1  0.42653000  0.83710000  0.93543000  1
  C  C102  1  0.47790000  0.94069000  0.92290000  1
  C  C103  1  0.54538000  0.96519000  0.98043000  1
  C  C104  1  0.22837000  0.46003000  0.54713000  1
  C  C105  1  0.76331000  0.28176000  0.51916000  1
  C  C106  1  0.84503000  0.28745000  0.38328000  1
  C  C107  1  0.74611000  0.26194000  0.45091000  1
  C  C108  1  0.09029000  0.43788000  0.58871000  1
  C  C109  1  0.33380000  0.47202000  0.58412000  1
  C  C110  1  0.82499000  0.25558000  0.31788000  1
  C  C111  1  0.68302000  0.27691000  0.65634000  1
  C  C112  1  0.29399000  0.45960000  0.66347000  1
  C  C113  1  0.15349000  0.43790000  0.70113000  1
  C  C114  1  0.66534000  0.25203000  0.58744000  1
  C  C115  1  0.48457000  0.49976000  0.54160000  1
  C  C116  1  0.86869000  0.30127000  0.87924000  1
  C  C117  1  0.90295000  0.19878000  0.80097000  1
  C  C118  1  0.96423000  0.12236000  0.85388000  1
  C  C119  1  0.92717000  0.22671000  0.93546000  1
  C  C120  1  0.97865000  0.13567000  0.92286000  1
  C  C121  1  0.04574000  0.05358000  0.98050000  1
  C  C122  1  0.26999000  0.00732000  0.45257000  1
  C  C123  1  0.73408000  0.80164000  0.48144000  1
  C  C124  1  0.64990000  0.67057000  0.61659000  1
  C  C125  1  0.75006000  0.71298000  0.54958000  1
  C  C126  1  0.40808000  0.02654000  0.41110000  1
  C  C127  1  0.16459000  0.05624000  0.41550000  1
  C  C128  1  0.66871000  0.57260000  0.68188000  1
  C  C129  1  0.81628000  0.93562000  0.34533000  1
  C  C130  1  0.20435000  0.12253000  0.33600000  1
  C  C131  1  0.34497000  0.13829000  0.29848000  1
  C  C132  1  0.83303000  0.84094000  0.41367000  1
  C  C133  1  0.01408000  0.04189000  0.45839000  1
  C  C134  1  0.63131000  0.18094000  0.12094000  1
  C  C135  1  0.59754000  0.00032000  0.19919000  1
  C  C136  1  0.53662000  0.97658000  0.14625000  1
  C  C137  1  0.57314000  0.16240000  0.06467000  1
  C  C138  1  0.52205000  0.05872000  0.07725000  1
  C  C139  1  0.45462000  0.03404000  0.01977000  1
  N  N140  1  0.94868000  0.57228000  0.33532000  1
  N  N141  1  0.14336000  0.71091000  0.18807000  1
  N  N142  1  0.55077000  0.90724000  0.66481000  1
  N  N143  1  0.35653000  0.89839000  0.81219000  1
  N  N144  1  0.05172000  0.42760000  0.66466000  1
  N  N145  1  0.85737000  0.28877000  0.81215000  1
  N  N146  1  0.44668000  0.09180000  0.33513000  1
  N  N147  1  0.64267000  0.10148000  0.18803000  1
  O  O148  1  0.06548000  0.75774000  0.72891000  1
  O  O149  1  0.20757000  0.65262000  0.36037000  1
  O  O150  1  0.30012000  0.76803000  0.68192000  1
  O  O151  1  0.39943000  0.76154000  0.28021000  1
  O  O152  1  0.43370000  0.48486000  0.27023000  1
  O  O153  1  0.29264000  0.01231000  0.63986000  1
  O  O154  1  0.19922000  0.44967000  0.31826000  1
  O  O155  1  0.09900000  0.04088000  0.71916000  1
  O  O156  1  0.92750000  0.24550000  0.26964000  1
  O  O157  1  0.79293000  0.34349000  0.64200000  1
  O  O158  1  0.69326000  0.23390000  0.31818000  1
  O  O159  1  0.59874000  0.23680000  0.72085000  1
  O  O160  1  0.56557000  0.51513000  0.72970000  1
  O  O161  1  0.70783000  0.98910000  0.36039000  1
  O  O162  1  0.80022000  0.55040000  0.68198000  1
  O  O163  1  0.90027000  0.95955000  0.28075000  1
