# generated using pymatgen
data_NdPH3C3O8
_symmetry_space_group_name_H-M   'P 1'
_cell_length_a   7.23260000
_cell_length_b   10.23370000
_cell_length_c   13.15580000
_cell_angle_alpha   90.00000000
_cell_angle_beta   90.00000000
_cell_angle_gamma   100.10700000
_symmetry_Int_Tables_number   1
_chemical_formula_structural   NdPH3C3O8
_chemical_formula_sum   'Nd4 P4 H12 C12 O32'
_cell_volume   958.63230397
_cell_formula_units_Z   4
loop_
 _symmetry_equiv_pos_site_id
 _symmetry_equiv_pos_as_xyz
  1  'x, y, z'
loop_
 _atom_site_type_symbol
 _atom_site_label
 _atom_site_symmetry_multiplicity
 _atom_site_fract_x
 _atom_site_fract_y
 _atom_site_fract_z
 _atom_site_occupancy
  Nd  Nd1  1  0.16300000  0.28187000  0.90549000  1.0
  Nd  Nd2  1  0.83700000  0.21813000  0.40549000  1.0
  Nd  Nd3  1  0.83700000  0.71813000  0.09451000  1.0
  Nd  Nd4  1  0.16300000  0.78187000  0.59451000  1.0
  P  P1  1  0.78745000  0.07069000  0.04946000  1.0
  P  P2  1  0.21255000  0.42931000  0.54946000  1.0
  P  P3  1  0.21255000  0.92931000  0.95054000  1.0
  P  P4  1  0.78745000  0.57069000  0.45054000  1.0
  H  H1  1  0.59290000  0.18800000  0.04470000  1.0
  H  H2  1  0.86790000  0.00040000  0.25860000  1.0
  H  H3  1  0.05770000  0.08600000  0.14950000  1.0
  H  H4  1  0.40710000  0.31200000  0.54470000  1.0
  H  H5  1  0.13210000  0.49960000  0.75860000  1.0
  H  H6  1  0.94230000  0.41400000  0.64950000  1.0
  H  H7  1  0.40710000  0.81200000  0.95530000  1.0
  H  H8  1  0.13210000  0.99960000  0.74140000  1.0
  H  H9  1  0.94230000  0.91400000  0.85050000  1.0
  H  H10  1  0.59290000  0.68800000  0.45530000  1.0
  H  H11  1  0.86790000  0.50040000  0.24140000  1.0
  H  H12  1  0.05770000  0.58600000  0.35050000  1.0
  C  C1  1  0.94410000  0.12520000  0.15620000  1.0
  C  C2  1  0.99970000  0.27450000  0.16340000  1.0
  C  C3  1  0.45310000  0.55530000  0.97570000  1.0
  C  C4  1  0.05590000  0.37480000  0.65620000  1.0
  C  C5  1  0.00030000  0.22550000  0.66340000  1.0
  C  C6  1  0.54690000  0.94470000  0.47570000  1.0
  C  C7  1  0.05590000  0.87480000  0.84380000  1.0
  C  C8  1  0.00030000  0.72550000  0.83660000  1.0
  C  C9  1  0.54690000  0.44470000  0.02430000  1.0
  C  C10  1  0.94410000  0.62520000  0.34380000  1.0
  C  C11  1  0.99970000  0.77450000  0.33660000  1.0
  C  C12  1  0.45310000  0.05530000  0.52430000  1.0
  O  O1  1  0.60370000  0.12410000  0.08040000  1.0
  O  O2  1  0.86960000  0.13140000  0.95230000  1.0
  O  O3  1  0.74540000  0.92230000  0.05440000  1.0
  O  O4  1  0.84610000  0.07480000  0.24640000  1.0
  O  O5  1  0.08090000  0.33380000  0.08740000  1.0
  O  O6  1  0.96090000  0.33060000  0.24420000  1.0
  O  O7  1  0.30510000  0.51860000  0.92690000  1.0
  O  O8  1  0.53280000  0.67200000  0.99140000  1.0
  O  O9  1  0.39630000  0.37590000  0.58040000  1.0
  O  O10  1  0.13040000  0.36860000  0.45230000  1.0
  O  O11  1  0.25460000  0.57770000  0.55440000  1.0
  O  O12  1  0.15390000  0.42520000  0.74640000  1.0
  O  O13  1  0.91910000  0.16620000  0.58740000  1.0
  O  O14  1  0.03910000  0.16940000  0.74420000  1.0
  O  O15  1  0.69490000  0.98140000  0.42690000  1.0
  O  O16  1  0.46720000  0.82800000  0.49140000  1.0
  O  O17  1  0.39630000  0.87590000  0.91960000  1.0
  O  O18  1  0.13040000  0.86860000  0.04770000  1.0
  O  O19  1  0.25460000  0.07770000  0.94560000  1.0
  O  O20  1  0.15390000  0.92520000  0.75360000  1.0
  O  O21  1  0.91910000  0.66620000  0.91260000  1.0
  O  O22  1  0.03910000  0.66940000  0.75580000  1.0
  O  O23  1  0.69490000  0.48140000  0.07310000  1.0
  O  O24  1  0.46720000  0.32800000  0.00860000  1.0
  O  O25  1  0.60370000  0.62410000  0.41960000  1.0
  O  O26  1  0.86960000  0.63140000  0.54770000  1.0
  O  O27  1  0.74540000  0.42230000  0.44560000  1.0
  O  O28  1  0.84610000  0.57480000  0.25360000  1.0
  O  O29  1  0.08090000  0.83380000  0.41260000  1.0
  O  O30  1  0.96090000  0.83060000  0.25580000  1.0
  O  O31  1  0.30510000  0.01860000  0.57310000  1.0
  O  O32  1  0.53280000  0.17200000  0.50860000  1.0
