# generated using pymatgen
data_CuH10C17NO4
_symmetry_space_group_name_H-M   'P 1'
_cell_length_a   15.97921000
_cell_length_b   19.89785000
_cell_length_c   19.92686000
_cell_angle_alpha   73.53696000
_cell_angle_beta   66.74237000
_cell_angle_gamma   66.75275000
_symmetry_Int_Tables_number   1
_chemical_formula_structural   CuH10C17NO4
_chemical_formula_sum   'Cu4 H40 C68 N4 O16'
_cell_volume   5286.92890554
_cell_formula_units_Z   4
loop_
 _symmetry_equiv_pos_site_id
 _symmetry_equiv_pos_as_xyz
  1  'x, y, z'
loop_
 _atom_site_type_symbol
 _atom_site_label
 _atom_site_symmetry_multiplicity
 _atom_site_fract_x
 _atom_site_fract_y
 _atom_site_fract_z
 _atom_site_occupancy
  Cu  Cu1  1  0.47737000  0.46880000  0.47209000  1.0
  Cu  Cu2  1  0.91288000  0.02797000  0.03006000  1.0
  Cu  Cu3  1  0.08345000  0.96732000  0.97064000  1.0
  Cu  Cu4  1  0.52522000  0.53027000  0.53370000  1.0
  H  H1  1  0.33513000  0.75573000  0.50972000  1.0
  H  H2  1  0.21758000  0.87506000  0.47623000  1.0
  H  H3  1  0.14715000  0.76579000  0.35715000  1.0
  H  H4  1  0.26554000  0.64726000  0.39062000  1.0
  H  H5  1  0.08128000  0.04156000  0.36186000  1.0
  H  H6  1  0.09557000  0.74181000  0.99977000  1.0
  H  H7  1  0.06604000  0.62095000  0.03043000  1.0
  H  H8  1  0.76715000  0.72655000  0.14260000  1.0
  H  H9  1  0.79749000  0.84733000  0.11157000  1.0
  H  H10  1  0.95825000  0.45124000  0.13285000  1.0
  H  H11  1  0.90356000  0.00629000  0.25600000  1.0
  H  H12  1  0.93659000  0.97284000  0.37554000  1.0
  H  H13  1  0.23497000  0.86317000  0.26482000  1.0
  H  H14  1  0.20070000  0.89667000  0.14593000  1.0
  H  H15  1  0.02207000  0.86929000  0.54252000  1.0
  H  H16  1  0.64028000  0.51279000  0.24509000  1.0
  H  H17  1  0.75770000  0.54415000  0.12344000  1.0
  H  H18  1  0.88612000  0.61230000  0.23516000  1.0
  H  H19  1  0.76708000  0.58244000  0.35617000  1.0
  H  H20  1  0.94185000  0.63460000  0.95583000  1.0
  H  H21  1  0.66129000  0.24332000  0.50294000  1.0
  H  H22  1  0.78618000  0.12478000  0.52899000  1.0
  H  H23  1  0.88239000  0.23764000  0.62490000  1.0
  H  H24  1  0.75720000  0.35587000  0.59862000  1.0
  H  H25  1  0.93788000  0.96119000  0.62941000  1.0
  H  H26  1  0.89379000  0.25794000  0.98574000  1.0
  H  H27  1  0.92352000  0.37948000  0.95096000  1.0
  H  H28  1  0.22846000  0.26710000  0.87618000  1.0
  H  H29  1  0.19794000  0.14609000  0.90986000  1.0
  H  H30  1  0.02856000  0.54769000  0.86459000  1.0
  H  H31  1  0.10618000  0.99914000  0.74240000  1.0
  H  H32  1  0.08073000  0.03373000  0.61969000  1.0
  H  H33  1  0.77818000  0.13642000  0.72443000  1.0
  H  H34  1  0.80484000  0.10126000  0.84663000  1.0
  H  H35  1  0.99666000  0.13382000  0.44875000  1.0
  H  H36  1  0.33427000  0.50406000  0.75822000  1.0
  H  H37  1  0.21179000  0.47405000  0.87618000  1.0
  H  H38  1  0.13813000  0.35952000  0.76460000  1.0
  H  H39  1  0.25968000  0.39131000  0.64690000  1.0
  H  H40  1  0.04574000  0.36393000  0.04168000  1.0
  C  C1  1  0.37833000  0.62248000  0.47169000  1.0
  C  C2  1  0.30790000  0.69375000  0.45229000  1.0
  C  C3  1  0.29350000  0.75845000  0.47651000  1.0
  C  C4  1  0.22789000  0.82516000  0.45767000  1.0
  C  C5  1  0.17406000  0.82890000  0.41440000  1.0
  C  C6  1  0.18840000  0.76393000  0.39022000  1.0
  C  C7  1  0.25469000  0.69756000  0.40880000  1.0
  C  C8  1  0.04883000  0.02440000  0.42039000  1.0
  C  C9  1  0.96590000  0.87444000  0.03230000  1.0
  C  C10  1  0.94820000  0.80233000  0.05288000  1.0
  C  C11  1  0.02385000  0.73798000  0.03053000  1.0
  C  C12  1  0.00745000  0.67061000  0.04783000  1.0
  C  C13  1  0.91444000  0.66612000  0.08793000  1.0
  C  C14  1  0.83888000  0.73019000  0.11164000  1.0
  C  C15  1  0.85577000  0.79744000  0.09423000  1.0
  C  C16  1  0.97350000  0.47215000  0.07411000  1.0
  C  C17  1  0.03048000  0.97024000  0.12268000  1.0
  C  C18  1  0.04994000  0.95281000  0.19362000  1.0
  C  C19  1  0.97578000  0.97498000  0.25854000  1.0
  C  C20  1  0.99424000  0.95624000  0.32523000  1.0
  C  C21  1  0.08776000  0.91503000  0.32837000  1.0
  C  C22  1  0.16237000  0.89389000  0.26304000  1.0
  C  C23  1  0.14337000  0.91255000  0.19667000  1.0
  C  C24  1  0.01643000  0.92719000  0.52210000  1.0
  C  C25  1  0.62473000  0.52856000  0.37969000  1.0
  C  C26  1  0.69617000  0.54594000  0.30796000  1.0
  C  C27  1  0.69479000  0.53421000  0.24215000  1.0
  C  C28  1  0.76015000  0.55159000  0.17456000  1.0
  C  C29  1  0.82923000  0.58023000  0.17182000  1.0
  C  C30  1  0.83173000  0.59093000  0.23773000  1.0
  C  C31  1  0.76533000  0.57447000  0.30503000  1.0
  C  C32  1  0.96489000  0.57534000  0.97459000  1.0
  C  C33  1  0.62811000  0.37805000  0.53252000  1.0
  C  C34  1  0.70155000  0.30713000  0.54897000  1.0
  C  C35  1  0.71043000  0.24164000  0.52914000  1.0
  C  C36  1  0.78004000  0.17550000  0.54373000  1.0
  C  C37  1  0.84242000  0.17348000  0.57868000  1.0
  C  C38  1  0.83359000  0.23905000  0.59857000  1.0
  C  C39  1  0.76385000  0.30491000  0.58398000  1.0
  C  C40  1  0.96913000  0.97874000  0.57078000  1.0
  C  C41  1  0.02626000  0.12249000  0.96997000  1.0
  C  C42  1  0.04395000  0.19464000  0.94977000  1.0
  C  C43  1  0.96661000  0.26066000  0.96176000  1.0
  C  C44  1  0.98319000  0.32821000  0.94245000  1.0
  C  C45  1  0.07784000  0.33079000  0.91172000  1.0
  C  C46  1  0.15542000  0.26481000  0.89949000  1.0
  C  C47  1  0.13839000  0.19751000  0.91805000  1.0
  C  C48  1  0.01384000  0.52642000  0.92329000  1.0
  C  C49  1  0.97221000  0.02668000  0.87528000  1.0
  C  C50  1  0.95710000  0.04772000  0.80223000  1.0
  C  C51  1  0.03468000  0.02878000  0.73782000  1.0
  C  C52  1  0.02048000  0.04825000  0.66946000  1.0
  C  C53  1  0.92770000  0.08741000  0.66408000  1.0
  C  C54  1  0.84993000  0.10674000  0.72849000  1.0
  C  C55  1  0.86474000  0.08719000  0.79660000  1.0
  C  C56  1  0.00107000  0.07609000  0.46897000  1.0
  C  C57  1  0.37663000  0.46864000  0.62451000  1.0
  C  C58  1  0.30478000  0.44964000  0.69501000  1.0
  C  C59  1  0.29060000  0.47287000  0.76013000  1.0
  C  C60  1  0.22236000  0.45599000  0.82597000  1.0
  C  C61  1  0.16612000  0.41531000  0.82829000  1.0
  C  C62  1  0.18101000  0.39117000  0.76322000  1.0
  C  C63  1  0.24926000  0.40842000  0.69761000  1.0
  C  C64  1  0.02274000  0.42319000  0.02284000  1.0
  C  C65  1  0.05704000  0.94943000  0.44637000  1.0
  C  C66  1  0.94459000  0.54887000  0.05071000  1.0
  C  C67  1  0.96070000  0.05377000  0.54481000  1.0
  C  C68  1  0.04393000  0.44964000  0.94672000  1.0
  N  N1  1  0.10640000  0.89683000  0.39628000  1.0
  N  N2  1  0.89617000  0.59847000  0.10330000  1.0
  N  N3  1  0.91269000  0.10629000  0.59473000  1.0
  N  N4  1  0.09491000  0.39943000  0.89452000  1.0
  O  O1  1  0.38711000  0.56610000  0.44722000  1.0
  O  O2  1  0.42527000  0.62259000  0.51116000  1.0
  O  O3  1  0.89283000  0.93183000  0.05095000  1.0
  O  O4  1  0.05289000  0.87410000  0.99711000  1.0
  O  O5  1  0.10319000  0.94918000  0.06596000  1.0
  O  O6  1  0.94333000  0.00424000  0.12319000  1.0
  O  O7  1  0.61719000  0.55292000  0.43563000  1.0
  O  O8  1  0.57587000  0.49052000  0.37978000  1.0
  O  O9  1  0.62361000  0.43553000  0.55281000  1.0
  O  O10  1  0.57483000  0.37657000  0.49914000  1.0
  O  O11  1  0.09939000  0.06577000  0.94995000  1.0
  O  O12  1  0.93950000  0.12242000  0.00553000  1.0
  O  O13  1  0.89830000  0.04697000  0.93147000  1.0
  O  O14  1  0.05820000  0.98991000  0.87667000  1.0
  O  O15  1  0.38009000  0.45007000  0.56650000  1.0
  O  O16  1  0.42955000  0.50216000  0.62653000  1.0
