# generated using pymatgen
data_H4C8N
_symmetry_space_group_name_H-M   'P 1'
_cell_length_a   21.50210000
_cell_length_b   30.40880000
_cell_length_c   30.40880000
_cell_angle_alpha   90.00000000
_cell_angle_beta   90.00000000
_cell_angle_gamma   90.00000000
_symmetry_Int_Tables_number   1
_chemical_formula_structural   H4C8N
_chemical_formula_sum   'H128 C256 N32'
_cell_volume   19882.88688471
_cell_formula_units_Z   32
loop_
 _symmetry_equiv_pos_site_id
 _symmetry_equiv_pos_as_xyz
  1  'x, y, z'
loop_
 _atom_site_type_symbol
 _atom_site_label
 _atom_site_symmetry_multiplicity
 _atom_site_fract_x
 _atom_site_fract_y
 _atom_site_fract_z
 _atom_site_occupancy
  C  1  1  0.20452600  0.24452000  0.25719000  1
  C  2  1  0.17419100  0.28633800  0.25125500  1
  C  3  1  0.14306800  0.30890200  0.28583200  1
  C  4  1  0.14352800  0.28877700  0.32763800  1
  C  5  1  0.16632200  0.24562400  0.33373300  1
  C  6  1  0.19426500  0.22403300  0.29814400  1
  C  10  1  0.24979200  0.22547000  0.22799100  1
  C  11  1  0.25717000  0.24341300  0.18537300  1
  C  12  1  0.31205100  0.23737400  0.16115100  1
  C  13  1  0.35758700  0.20811300  0.17731300  1
  C  14  1  0.34905900  0.18329900  0.21605500  1
  C  15  1  0.29462200  0.19244700  0.24066300  1
  C  19  1  0.39823100  0.15464000  0.22879400  1
  C  20  1  0.17040500  0.22491900  0.37490500  1
  C  21  1  0.12469900  0.35363200  0.28236200  1
  C  22  1  0.32158000  0.26162200  0.12248200  1
  C  27  1  0.20468900  0.75481900  0.74200300  1
  C  28  1  0.17385200  0.71317900  0.74804400  1
  C  29  1  0.14283200  0.69060700  0.71341600  1
  C  30  1  0.14352800  0.71065700  0.67157300  1
  C  31  1  0.16659600  0.75372700  0.66544600  1
  C  32  1  0.19456200  0.77529600  0.70103200  1
  C  36  1  0.25003900  0.77378000  0.77120900  1
  C  37  1  0.25744200  0.75572300  0.81377900  1
  C  38  1  0.31238800  0.76159300  0.83796900  1
  C  39  1  0.35798600  0.79083800  0.82186200  1
  C  40  1  0.34945400  0.81580100  0.78321500  1
  C  41  1  0.29502600  0.80671800  0.75857400  1
  C  45  1  0.39866200  0.84449000  0.77059000  1
  C  46  1  0.17063700  0.77443500  0.62427400  1
  C  47  1  0.12370800  0.64601400  0.71699700  1
  C  48  1  0.32183700  0.73721500  0.87657000  1
  C  53  1  0.20468100  0.74205900  0.24440800  1
  C  54  1  0.17412700  0.74808700  0.28614100  1
  C  55  1  0.14307400  0.71348200  0.30872000  1
  C  56  1  0.14344500  0.67169500  0.28857300  1
  C  57  1  0.16615500  0.66561400  0.24540400  1
  C  58  1  0.19428700  0.70115600  0.22386100  1
  C  62  1  0.25000800  0.77124200  0.22541100  1
  C  63  1  0.25744800  0.81381800  0.24344900  1
  C  64  1  0.31230800  0.83805500  0.23743400  1
  C  65  1  0.35784200  0.82192800  0.20815400  1
  C  66  1  0.34937400  0.78317200  0.18335300  1
  C  67  1  0.29495500  0.75854500  0.19247800  1
  C  71  1  0.39851400  0.77054400  0.15462300  1
  C  72  1  0.16999600  0.62446800  0.22464200  1
  C  73  1  0.12419700  0.71711200  0.35334200  1
  C  74  1  0.32182400  0.87666800  0.26176300  1
  C  79  1  0.20484800  0.25735700  0.75479200  1
  C  80  1  0.17422000  0.25137300  0.71307700  1
  C  81  1  0.14333800  0.28601600  0.69045900  1
  C  82  1  0.14401300  0.32786100  0.71048300  1
  C  83  1  0.16687600  0.33396300  0.75360200  1
  C  84  1  0.19488200  0.29839900  0.77519100  1
  C  88  1  0.25008900  0.22810300  0.77380700  1
  C  89  1  0.25741000  0.18549900  0.75581800  1
  C  90  1  0.31217700  0.16116400  0.76190500  1
  C  91  1  0.35771100  0.17724100  0.79121300  1
  C  92  1  0.34930300  0.21600700  0.81600200  1
  C  93  1  0.29492400  0.24068800  0.80686300  1
  C  97  1  0.39849000  0.22865300  0.84468400  1
  C  98  1  0.17072600  0.37513900  0.77431000  1
  C  99  1  0.12396300  0.28245000  0.64597200  1
  C  100  1  0.32162200  0.12249500  0.73763900  1
  C  105  1  0.79392600  0.75474300  0.25724700  1
  C  106  1  0.82425800  0.71292900  0.25127700  1
  C  107  1  0.85545000  0.69035400  0.28581600  1
  C  108  1  0.85505000  0.71046000  0.32763300  1
  C  109  1  0.83221500  0.75359500  0.33377200  1
  C  110  1  0.80419000  0.77519400  0.29821800  1
  C  114  1  0.74869300  0.77383000  0.22804700  1
  C  115  1  0.74137300  0.75594000  0.18540000  1
  C  116  1  0.68653900  0.76202700  0.16113900  1
  C  117  1  0.64100400  0.79129200  0.17729300  1
  C  118  1  0.64948000  0.81606100  0.21607100  1
  C  119  1  0.70386200  0.80685300  0.24072200  1
  C  123  1  0.60030300  0.84473000  0.22878400  1
  C  124  1  0.82817400  0.77427000  0.37495400  1
  C  125  1  0.87379300  0.64562600  0.28230800  1
  C  126  1  0.67704000  0.73781000  0.12244700  1
  C  131  1  0.79410000  0.24447600  0.74202600  1
  C  132  1  0.82477000  0.28617200  0.74804400  1
  C  133  1  0.85592900  0.30869800  0.71344600  1
  C  134  1  0.85537100  0.28859500  0.67162900  1
  C  135  1  0.83235800  0.24550300  0.66551500  1
  C  136  1  0.80439500  0.22393600  0.70110700  1
  C  140  1  0.74870000  0.22553300  0.77120200  1
  C  141  1  0.74127100  0.24357800  0.81377500  1
  C  142  1  0.68630400  0.23770700  0.83794300  1
  C  143  1  0.64070200  0.20849100  0.82179300  1
  C  144  1  0.64925400  0.18354200  0.78313900  1
  C  145  1  0.70371200  0.19261400  0.75852800  1
  C  149  1  0.60004300  0.15487500  0.77047900  1
  C  150  1  0.82826200  0.22480200  0.62434000  1
  C  151  1  0.87437900  0.35341500  0.71691500  1
  C  152  1  0.67684000  0.26204400  0.87656600  1
  C  157  1  0.79403000  0.25720500  0.24440600  1
  C  158  1  0.82460700  0.25121400  0.28613700  1
  C  159  1  0.85560400  0.28585400  0.30870100  1
  C  160  1  0.85518800  0.32762800  0.28852500  1
  C  161  1  0.83249900  0.33366000  0.24534200  1
  C  162  1  0.80441800  0.29808800  0.22382000  1
  C  166  1  0.74863000  0.22803300  0.22547500  1
  C  167  1  0.74108700  0.18551600  0.24361900  1
  C  168  1  0.68610900  0.16137400  0.23775600  1
  C  169  1  0.64055000  0.17751800  0.20850600  1
  C  170  1  0.64913100  0.21616800  0.18355600  1
  C  171  1  0.70367400  0.24071500  0.19254200  1
  C  175  1  0.60000100  0.22880100  0.15481600  1
  C  176  1  0.82862800  0.37479000  0.22454500  1
  C  177  1  0.87450400  0.28225800  0.35332600  1
  C  178  1  0.67656400  0.12283300  0.26219800  1
  C  183  1  0.79384700  0.74196700  0.75482900  1
  C  184  1  0.82453400  0.74792600  0.71313000  1
  C  185  1  0.85537100  0.71325200  0.69052500  1
  C  186  1  0.85455300  0.67140200  0.71053900  1
  C  187  1  0.83164600  0.66532100  0.75365500  1
  C  188  1  0.80374800  0.70092600  0.77524000  1
  C  192  1  0.74860800  0.77123200  0.77383300  1
  C  193  1  0.74129900  0.81383500  0.75584100  1
  C  194  1  0.68656600  0.83819900  0.76197100  1
  C  195  1  0.64103900  0.82213800  0.79129200  1
  C  196  1  0.64940500  0.78334300  0.81604400  1
  C  197  1  0.70375600  0.75864600  0.80687900  1
  C  201  1  0.60019800  0.77065900  0.84469400  1
  C  202  1  0.82766400  0.62416200  0.77437900  1
  C  203  1  0.87482500  0.71680000  0.64604700  1
  C  204  1  0.67713600  0.87688500  0.73773100  1
  C  209  1  0.49756000  0.97618600  0.28500700  1
  C  210  1  0.55262200  0.94955200  0.28110800  1
  C  211  1  0.54863800  0.90409800  0.26957800  1
  C  212  1  0.48823000  0.88596500  0.26676800  1
  C  213  1  0.43445900  0.91096400  0.27472000  1
  C  214  1  0.43793200  0.95632600  0.28346500  1
  C  215  1  0.61077900  0.97074700  0.28371600  1
  C  216  1  0.38375200  0.98268400  0.28562400  1
  C  218  1  0.50081500  0.02313700  0.28501900  1
  C  219  1  0.56043600  0.04301100  0.28361400  1
  C  220  1  0.56396500  0.08838500  0.27494800  1
  C  221  1  0.51020800  0.11337900  0.26691400  1
  C  222  1  0.44979600  0.09524000  0.26959700  1
  C  223  1  0.44576300  0.04977500  0.28107500  1
  C  224  1  0.61460900  0.01665700  0.28586200  1
  C  226  1  0.38758900  0.02859500  0.28361900  1
  C  235  1  0.49765600  0.02314900  0.71444200  1
  C  236  1  0.55263600  0.04987600  0.71832900  1
  C  237  1  0.54848200  0.09534100  0.72980000  1
  C  238  1  0.48801000  0.11337100  0.73258800  1
  C  239  1  0.43431900  0.08828700  0.72459700  1
  C  240  1  0.43797400  0.04292500  0.71589600  1
  C  241  1  0.61086500  0.02878000  0.71575100  1
  C  242  1  0.38388200  0.01648600  0.71367300  1
  C  244  1  0.50106200  0.97619900  0.71445500  1
  C  245  1  0.56074900  0.95642800  0.71596100  1
  C  246  1  0.56441800  0.91107300  0.72471200  1
  C  247  1  0.51071700  0.88599500  0.73270300  1
  C  248  1  0.45024700  0.90402900  0.72992100  1
  C  249  1  0.44608900  0.94947000  0.71836900  1
  C  250  1  0.61483700  0.98287500  0.71377500  1
  C  252  1  0.38786700  0.97057900  0.71578700  1
  C  261  1  0.49774400  0.71428800  0.97619600  1
  C  262  1  0.55275000  0.71826700  0.94951900  1
  C  263  1  0.54862000  0.72985200  0.90408500  1
  C  264  1  0.48818400  0.73257500  0.88598800  1
  C  265  1  0.43448200  0.72451500  0.91102700  1
  C  266  1  0.43808600  0.71573500  0.95637600  1
  C  267  1  0.61096300  0.71566900  0.97063800  1
  C  268  1  0.38397100  0.71342300  0.98278600  1
  C  270  1  0.50110400  0.71426500  0.02314500  1
  C  271  1  0.56076800  0.71586300  0.04295400  1
  C  272  1  0.56434200  0.72469900  0.08829600  1
  C  273  1  0.51060000  0.73260100  0.11333900  1
  C  274  1  0.45017300  0.72977000  0.09525000  1
  C  275  1  0.44608500  0.71813200  0.04983000  1
  C  276  1  0.61489400  0.71365000  0.01654600  1
  C  278  1  0.38788600  0.71542500  0.02870000  1
  C  287  1  0.49756200  0.28494800  0.02318000  1
  C  288  1  0.55256800  0.28105400  0.04988000  1
  C  289  1  0.54844800  0.26950100  0.09532100  1
  C  290  1  0.48800700  0.26676500  0.11340800  1
  C  291  1  0.43429600  0.27468700  0.08833800  1
  C  292  1  0.43788900  0.28342800  0.04298200  1
  C  293  1  0.61077200  0.28365500  0.02874900  1
  C  294  1  0.38377600  0.28560300  0.01655500  1
  C  296  1  0.50092700  0.28491800  0.97622900  1
  C  297  1  0.56058400  0.28341800  0.95641800  1
  C  298  1  0.56421800  0.27474600  0.91104700  1
  C  299  1  0.51049400  0.26674100  0.88600500  1
  C  300  1  0.45005800  0.26942700  0.90410500  1
  C  301  1  0.44592700  0.28099300  0.94954200  1
  C  302  1  0.61469700  0.28562300  0.98283500  1
  C  304  1  0.38770900  0.28364100  0.97064500  1
  C  313  1  0.00545400  0.47652400  0.73074700  1
  C  314  1  0.06803400  0.46327800  0.73625500  1
  C  315  1  0.08042800  0.41910000  0.74718900  1
  C  316  1  0.03204600  0.38757900  0.74740600  1
  C  317  1  0.97027600  0.39832300  0.73630400  1
  C  318  1  0.95675000  0.44403700  0.73050700  1
  C  319  1  0.11623400  0.49498600  0.73385800  1
  C  320  1  0.89497200  0.45940000  0.73002000  1
  C  322  1  0.99285100  0.52273400  0.73076600  1
  C  323  1  0.04155700  0.55521800  0.73051000  1
  C  324  1  0.02805500  0.60091600  0.73643600  1
  C  325  1  0.96632300  0.61164300  0.74764000  1
  C  326  1  0.91790200  0.58015800  0.74732100  1
  C  327  1  0.93028000  0.53598400  0.73637000  1
  C  328  1  0.10334100  0.53988400  0.72978600  1
  C  330  1  0.88206200  0.50429500  0.73397300  1
  C  339  1  0.00547200  0.52276100  0.26871200  1
  C  340  1  0.06798200  0.53615100  0.26314000  1
  C  341  1  0.08012100  0.58033300  0.25209500  1
  C  342  1  0.03159600  0.61174100  0.25189200  1
  C  343  1  0.96992000  0.60086600  0.26310000  1
  C  344  1  0.95661000  0.55512600  0.26893300  1
  C  345  1  0.11636000  0.50458800  0.26553700  1
  C  346  1  0.89490700  0.53962700  0.26949900  1
  C  348  1  0.99309700  0.47651700  0.26865300  1
  C  349  1  0.04195800  0.44414800  0.26890200  1
  C  350  1  0.02865200  0.39841100  0.26303300  1
  C  351  1  0.96699700  0.38754900  0.25175900  1
  C  352  1  0.91848600  0.41896500  0.25195100  1
  C  353  1  0.93059600  0.46313300  0.26304600  1
  C  354  1  0.10365400  0.45966000  0.26943300  1
  C  356  1  0.88222400  0.49470300  0.26543100  1
  C  365  1  0.00557000  0.26865900  0.47649400  1
  C  366  1  0.06813200  0.26311900  0.46319500  1
  C  367  1  0.08041400  0.25214100  0.41901100  1
  C  368  1  0.03193900  0.25173800  0.38757900  1
  C  369  1  0.97022500  0.26290600  0.39836500  1
  C  370  1  0.95680300  0.26888800  0.44406000  1
  C  371  1  0.11640600  0.26556300  0.49483800  1
  C  372  1  0.89505400  0.26947900  0.45946300  1
  C  374  1  0.99304800  0.26857500  0.52271100  1
  C  375  1  0.04182200  0.26882500  0.55514300  1
  C  376  1  0.02842300  0.26273000  0.60082400  1
  C  377  1  0.96674800  0.25145500  0.61160000  1
  C  378  1  0.91826300  0.25192400  0.58017800  1
  C  379  1  0.93049900  0.26298800  0.53601300  1
  C  380  1  0.10358300  0.26951600  0.53975200  1
  C  382  1  0.88222000  0.26546600  0.50437400  1
  C  391  1  0.00564100  0.73075700  0.52274400  1
  C  392  1  0.06820200  0.73633400  0.53602300  1
  C  393  1  0.08047400  0.74740300  0.58017800  1
  C  394  1  0.03202900  0.74782400  0.61163600  1
  C  395  1  0.97033600  0.73656400  0.60088300  1
  C  396  1  0.95689600  0.73050000  0.55519900  1
  C  397  1  0.11646700  0.73387100  0.50437400  1
  C  398  1  0.89513500  0.72986900  0.53981200  1
  C  400  1  0.99308800  0.73065800  0.47652700  1
  C  401  1  0.04183600  0.73043800  0.44408300  1
  C  402  1  0.02839200  0.73631100  0.39837500  1
  C  403  1  0.96666700  0.74745200  0.38759600  1
  C  404  1  0.91821600  0.74706400  0.41905000  1
  C  405  1  0.93051300  0.73613300  0.46324100  1
  C  406  1  0.10359400  0.72993100  0.45947300  1
  C  408  1  0.88225400  0.73367700  0.49489700  1
  H  7  1  0.18093500  0.30396300  0.22315400  1
  H  8  1  0.20806700  0.19229900  0.30306200  1
  H  9  1  0.12770200  0.30621000  0.35415100  1
  H  16  1  0.22483300  0.26454100  0.17283100  1
  H  17  1  0.39655100  0.20263300  0.15874300  1
  H  18  1  0.29341600  0.17825300  0.27094600  1
  H  23  1  0.43797900  0.15754000  0.21044600  1
  H  24  1  0.20515700  0.20247800  0.38000900  1
  H  25  1  0.13484600  0.37348800  0.30852500  1
  H  26  1  0.28638300  0.27838300  0.10730000  1
  H  33  1  0.18044600  0.69554600  0.77614800  1
  H  34  1  0.20856900  0.80697500  0.69606600  1
  H  35  1  0.12756900  0.69325400  0.64507700  1
  H  42  1  0.22505000  0.73464000  0.82631400  1
  H  43  1  0.39699200  0.79618200  0.84042200  1
  H  44  1  0.29361200  0.82113500  0.72840500  1
  H  49  1  0.43841100  0.84154000  0.78892100  1
  H  50  1  0.20545800  0.79681300  0.61913700  1
  H  51  1  0.13497200  0.62626400  0.69092900  1
  H  52  1  0.28646800  0.72065100  0.89177300  1
  H  59  1  0.18098000  0.77613500  0.30381700  1
  H  60  1  0.20813500  0.69624300  0.19213600  1
  H  61  1  0.12747900  0.64521200  0.30598400  1
  H  68  1  0.22497300  0.82640300  0.26444400  1
  H  69  1  0.39685400  0.84047200  0.20275400  1
  H  70  1  0.29353700  0.72833300  0.17814700  1
  H  75  1  0.43821500  0.78894400  0.15746400  1
  H  76  1  0.20466600  0.61930500  0.20214500  1
  H  77  1  0.13559600  0.69106700  0.37308300  1
  H  78  1  0.28658000  0.89189100  0.27844000  1
  H  85  1  0.18054900  0.22314400  0.69558900  1
  H  86  1  0.20877700  0.30336600  0.80689200  1
  H  87  1  0.12802000  0.35435200  0.69308600  1
  H  94  1  0.22497300  0.17294700  0.73477500  1
  H  95  1  0.39666800  0.15864800  0.79665200  1
  H  96  1  0.29377000  0.27094300  0.82111200  1
  H  101  1  0.43822500  0.21029100  0.84180000  1
  H  102  1  0.20542500  0.38032500  0.79677700  1
  H  103  1  0.13412000  0.30859900  0.62597700  1
  H  104  1  0.28636500  0.10736700  0.72089400  1
  H  111  1  0.81748000  0.69531600  0.22317100  1
  H  112  1  0.79035600  0.80691500  0.30317000  1
  H  113  1  0.87092300  0.69301400  0.35412500  1
  H  120  1  0.77371400  0.73481800  0.17285800  1
  H  121  1  0.60207500  0.79680700  0.15869100  1
  H  122  1  0.70503000  0.82101000  0.27102300  1
  H  127  1  0.56060500  0.84186900  0.21037700  1
  H  128  1  0.79338600  0.79667500  0.38011400  1
  H  129  1  0.86354400  0.62573700  0.30842900  1
  H  130  1  0.71223600  0.72102900  0.10728500  1
  H  137  1  0.81790000  0.30387900  0.77606900  1
  H  138  1  0.79042400  0.19224500  0.69616800  1
  H  139  1  0.87123000  0.30601700  0.64511700  1
  H  146  1  0.77368200  0.26463400  0.82633800  1
  H  147  1  0.60167500  0.20314400  0.84033300  1
  H  148  1  0.70514600  0.17822900  0.72834300  1
  H  153  1  0.56027500  0.15783600  0.78878900  1
  H  154  1  0.79344400  0.20240900  0.61923600  1
  H  155  1  0.86418400  0.37328700  0.69077100  1
  H  156  1  0.71220800  0.27857200  0.89180500  1
  H  163  1  0.81778900  0.22317600  0.30383400  1
  H  164  1  0.79056800  0.30297000  0.19209000  1
  H  165  1  0.87112300  0.35413500  0.30591600  1
  H  172  1  0.77357400  0.17292000  0.26459800  1
  H  173  1  0.60144700  0.15904100  0.20321500  1
  H  174  1  0.70519100  0.27087200  0.17810200  1
  H  179  1  0.56024000  0.21048100  0.15773800  1
  H  180  1  0.79394900  0.37992000  0.20204700  1
  H  181  1  0.86321000  0.30834000  0.37304700  1
  H  182  1  0.71189000  0.10753700  0.27872000  1
  H  189  1  0.81828200  0.77616800  0.69565100  1
  H  190  1  0.78987500  0.69598400  0.80695500  1
  H  191  1  0.87050000  0.64489300  0.69315200  1
  H  198  1  0.77371900  0.82637000  0.73477500  1
  H  199  1  0.60210600  0.84075100  0.79676100  1
  H  200  1  0.70486800  0.72837900  0.82110200  1
  H  205  1  0.56049800  0.78906200  0.84182300  1
  H  206  1  0.79293400  0.61902900  0.79683300  1
  H  207  1  0.86469600  0.69064300  0.62605600  1
  H  208  1  0.71235300  0.89199000  0.72092400  1
  H  217  1  0.48290100  0.85323400  0.25996100  1
  H  225  1  0.51554000  0.14611700  0.26015900  1
  H  227  1  0.65796700  0.03038100  0.28475700  1
  H  228  1  0.65128900  0.95322500  0.28144500  1
  H  229  1  0.34709400  0.04612200  0.28127900  1
  H  230  1  0.34041500  0.96893100  0.28450500  1
  H  243  1  0.48257100  0.14609500  0.73936900  1
  H  251  1  0.51616000  0.85328400  0.73953400  1
  H  253  1  0.65822800  0.96919100  0.71477800  1
  H  254  1  0.65132000  0.04637300  0.71798100  1
  H  255  1  0.34740700  0.95300500  0.71810200  1
  H  256  1  0.34048200  0.03014000  0.71481400  1
  H  269  1  0.48279600  0.73940900  0.85327100  1
  H  277  1  0.51598100  0.73950100  0.14604400  1
  H  279  1  0.65825600  0.71491600  0.03024300  1
  H  280  1  0.65142600  0.71812900  0.95308700  1
  H  281  1  0.34740600  0.71783600  0.04623600  1
  H  282  1  0.34058400  0.71458400  0.96911200  1
  H  295  1  0.48259400  0.25993300  0.14612400  1
  H  303  1  0.51587400  0.25994200  0.85327700  1
  H  305  1  0.65808400  0.28454800  0.96914800  1
  H  306  1  0.65125000  0.28130300  0.04629800  1
  H  307  1  0.34724000  0.28121000  0.95309700  1
  H  308  1  0.34040700  0.28448800  0.03025900  1
  H  321  1  0.04163100  0.35608800  0.75706100  1
  H  329  1  0.95675200  0.64312100  0.75734800  1
  H  331  1  0.14003200  0.56092700  0.73239400  1
  H  332  1  0.16191800  0.48600500  0.73680100  1
  H  333  1  0.83638200  0.51326700  0.73696200  1
  H  334  1  0.85829200  0.43832800  0.73245700  1
  H  347  1  0.04100300  0.64323200  0.24215300  1
  H  355  1  0.95759200  0.35605200  0.24202300  1
  H  357  1  0.14046000  0.43868300  0.26711000  1
  H  358  1  0.16200100  0.51369100  0.26261900  1
  H  359  1  0.83659400  0.48561700  0.26239900  1
  H  360  1  0.85808700  0.56056500  0.26693500  1
  H  373  1  0.04144600  0.24200100  0.35610100  1
  H  381  1  0.95725400  0.24169500  0.64307500  1
  H  383  1  0.14027700  0.26694000  0.56080200  1
  H  384  1  0.16206600  0.26254900  0.48582400  1
  H  385  1  0.83656400  0.26238400  0.51337800  1
  H  386  1  0.85830800  0.26693000  0.43845600  1
  H  399  1  0.04156700  0.75755800  0.64311400  1
  H  407  1  0.95712800  0.75714400  0.35610800  1
  H  409  1  0.14033500  0.73233500  0.43844300  1
  H  410  1  0.16213500  0.73689300  0.51336800  1
  H  411  1  0.83658400  0.73665300  0.48589600  1
  H  412  1  0.85844500  0.73229900  0.56088800  1
  N  231  1  0.37990900  0.89132900  0.26703200  1
  N  232  1  0.59980100  0.87972300  0.25701600  1
  N  233  1  0.39866200  0.11961600  0.25698600  1
  N  234  1  0.61853900  0.10803800  0.26739400  1
  N  257  1  0.37969600  0.10782800  0.73230500  1
  N  258  1  0.59957800  0.11979400  0.74234900  1
  N  259  1  0.39914600  0.87956600  0.74245100  1
  N  260  1  0.61905800  0.89155200  0.73240400  1
  N  283  1  0.37981100  0.73200600  0.89147000  1
  N  284  1  0.59973800  0.74243100  0.87968400  1
  N  285  1  0.39901600  0.74227600  0.11965800  1
  N  286  1  0.61892500  0.73246700  0.10786400  1
  N  309  1  0.37969600  0.26694700  0.10789600  1
  N  310  1  0.59956200  0.25696700  0.11976400  1
  N  311  1  0.39894100  0.25687400  0.87968700  1
  N  312  1  0.61886000  0.26725300  0.89145000  1
  N  335  1  0.93148700  0.36246100  0.73388400  1
  N  336  1  0.13690100  0.41069400  0.76455900  1
  N  337  1  0.86141400  0.58856100  0.76466800  1
  N  338  1  0.06677700  0.63680300  0.73404200  1
  N  361  1  0.93098200  0.63664200  0.26545900  1
  N  362  1  0.13645000  0.58882700  0.23454600  1
  N  363  1  0.86214700  0.41045100  0.23442200  1
  N  364  1  0.06757700  0.36262900  0.26541100  1
  N  387  1  0.93146400  0.26527900  0.36251400  1
  N  388  1  0.13685500  0.23473700  0.41057200  1
  N  389  1  0.86179200  0.23458900  0.58865300  1
  N  390  1  0.06717300  0.26517900  0.63667800  1
  N  413  1  0.93160100  0.73410400  0.63675100  1
  N  414  1  0.13697600  0.76469100  0.58864300  1
  N  415  1  0.86176400  0.76444400  0.41060200  1
  N  416  1  0.06716400  0.73397600  0.36252700  1
