# generated using pymatgen
data_MgH4(C2O)4
_symmetry_space_group_name_H-M   'P 1'
_cell_length_a   16.44879000
_cell_length_b   23.46562000
_cell_length_c   23.46537364
_cell_angle_alpha   119.99982188
_cell_angle_beta   90.00000001
_cell_angle_gamma   89.99593000
_symmetry_Int_Tables_number   1
_chemical_formula_structural   MgH4(C2O)4
_chemical_formula_sum   'Mg18 H72 C144 O72'
_cell_volume   7843.77040987
_cell_formula_units_Z   18
loop_
 _symmetry_equiv_pos_site_id
 _symmetry_equiv_pos_as_xyz
  1  'x, y, z'
loop_
 _atom_site_type_symbol
 _atom_site_label
 _atom_site_symmetry_multiplicity
 _atom_site_fract_x
 _atom_site_fract_y
 _atom_site_fract_z
 _atom_site_occupancy
  Mg  Mg0  1  0.71088000  0.03346000  0.76355000  1
  Mg  Mg1  1  0.73036000  0.06483000  0.63373000  1
  Mg  Mg2  1  0.71190000  0.91002000  0.60673000  1
  Mg  Mg3  1  0.71083000  0.23650000  0.26997000  1
  Mg  Mg4  1  0.73026000  0.36626000  0.43110000  1
  Mg  Mg5  1  0.71188000  0.39320000  0.30322000  1
  Mg  Mg6  1  0.71084000  0.73003000  0.96657000  1
  Mg  Mg7  1  0.73033000  0.56890000  0.93528000  1
  Mg  Mg8  1  0.71189000  0.69678000  0.09007000  1
  Mg  Mg9  1  0.21084000  0.73003000  0.76346000  1
  Mg  Mg10  1  0.23033000  0.56890000  0.63362000  1
  Mg  Mg11  1  0.21189000  0.69678000  0.60671000  1
  Mg  Mg12  1  0.21088000  0.03346000  0.26991000  1
  Mg  Mg13  1  0.23036000  0.06483000  0.43109000  1
  Mg  Mg14  1  0.21190000  0.91003000  0.30329000  1
  Mg  Mg15  1  0.21083000  0.23650000  0.96653000  1
  Mg  Mg16  1  0.23026000  0.36626000  0.93516000  1
  Mg  Mg17  1  0.21188000  0.39320000  0.08998000  1
  H  H18  1  0.06500000  0.24820000  0.75957000  1
  H  H19  1  0.94288000  0.17739000  0.70363000  1
  H  H20  1  0.90760000  0.14775000  0.86808000  1
  H  H21  1  0.02847000  0.21878000  0.92476000  1
  H  H22  1  0.50688000  0.82278000  0.61635000  1
  H  H23  1  0.38587000  0.76547000  0.62912000  1
  H  H24  1  0.37179000  0.91269000  0.83413000  1
  H  H25  1  0.49330000  0.97022000  0.82044000  1
  H  H26  1  0.53968000  0.84938000  0.45137000  1
  H  H27  1  0.41835000  0.83344000  0.37897000  1
  H  H28  1  0.40861000  0.04238000  0.45482000  1
  H  H29  1  0.53088000  0.05727000  0.52507000  1
  H  H30  1  0.06514000  0.24032000  0.48851000  1
  H  H31  1  0.94285000  0.29626000  0.47382000  1
  H  H32  1  0.90754000  0.13182000  0.27969000  1
  H  H33  1  0.02860000  0.07526000  0.29398000  1
  H  H34  1  0.50675000  0.38370000  0.20644000  1
  H  H35  1  0.38580000  0.37085000  0.13631000  1
  H  H36  1  0.37180000  0.16589000  0.07861000  1
  H  H37  1  0.49331000  0.17963000  0.14990000  1
  H  H38  1  0.53972000  0.54857000  0.39796000  1
  H  H39  1  0.41842000  0.62100000  0.45440000  1
  H  H40  1  0.40863000  0.54521000  0.58754000  1
  H  H41  1  0.53084000  0.47490000  0.53219000  1
  H  H42  1  0.06509000  0.51153000  0.75183000  1
  H  H43  1  0.94286000  0.52630000  0.82253000  1
  H  H44  1  0.90759000  0.72040000  0.85216000  1
  H  H45  1  0.02858000  0.70605000  0.78125000  1
  H  H46  1  0.50680000  0.79362000  0.17727000  1
  H  H47  1  0.38581000  0.86373000  0.23451000  1
  H  H48  1  0.37188000  0.92142000  0.08719000  1
  H  H49  1  0.49340000  0.85012000  0.02970000  1
  H  H50  1  0.53951000  0.60201000  0.15079000  1
  H  H51  1  0.41811000  0.54550000  0.16652000  1
  H  H52  1  0.40864000  0.41256000  0.95757000  1
  H  H53  1  0.53098000  0.46793000  0.94284000  1
  H  H54  1  0.56509000  0.51153000  0.75970000  1
  H  H55  1  0.44286000  0.52630000  0.70377000  1
  H  H56  1  0.40759000  0.72040000  0.86824000  1
  H  H57  1  0.52857000  0.70605000  0.92480000  1
  H  H58  1  0.00680000  0.79362000  0.61635000  1
  H  H59  1  0.88581000  0.86373000  0.62922000  1
  H  H60  1  0.87188000  0.92141000  0.83422000  1
  H  H61  1  0.99340000  0.85013000  0.82042000  1
  H  H62  1  0.03951000  0.60200000  0.45121000  1
  H  H63  1  0.91811000  0.54550000  0.37897000  1
  H  H64  1  0.90864000  0.41257000  0.45499000  1
  H  H65  1  0.03099000  0.46793000  0.52509000  1
  H  H66  1  0.56500000  0.24820000  0.48862000  1
  H  H67  1  0.44288000  0.17739000  0.47375000  1
  H  H68  1  0.40760000  0.14776000  0.27967000  1
  H  H69  1  0.52847000  0.21878000  0.29402000  1
  H  H70  1  0.00688000  0.82277000  0.20642000  1
  H  H71  1  0.88587000  0.76547000  0.13634000  1
  H  H72  1  0.87179000  0.91270000  0.07856000  1
  H  H73  1  0.99330000  0.97022000  0.14978000  1
  H  H74  1  0.03968000  0.84937000  0.39800000  1
  H  H75  1  0.91835000  0.83344000  0.45446000  1
  H  H76  1  0.90861000  0.04237000  0.58755000  1
  H  H77  1  0.03088000  0.05727000  0.53220000  1
  H  H78  1  0.56514000  0.24032000  0.75180000  1
  H  H79  1  0.44285000  0.29626000  0.82244000  1
  H  H80  1  0.40754000  0.13182000  0.85213000  1
  H  H81  1  0.52860000  0.07526000  0.78128000  1
  H  H82  1  0.00676000  0.38369000  0.17725000  1
  H  H83  1  0.88580000  0.37085000  0.23453000  1
  H  H84  1  0.87180000  0.16588000  0.08727000  1
  H  H85  1  0.99330000  0.17963000  0.02972000  1
  H  H86  1  0.03972000  0.54856000  0.15060000  1
  H  H87  1  0.91842000  0.62099000  0.16659000  1
  H  H88  1  0.90862000  0.54521000  0.95767000  1
  H  H89  1  0.03084000  0.47490000  0.94271000  1
  C  C90  1  0.05380000  0.23777000  0.84520000  1
  C  C91  1  0.03013000  0.22569000  0.78252000  1
  C  C92  1  0.96266000  0.18664000  0.75172000  1
  C  C93  1  0.91758000  0.15944000  0.78317000  1
  C  C94  1  0.94262000  0.16996000  0.84490000  1
  C  C95  1  0.01040000  0.20903000  0.87602000  1
  C  C96  1  0.12228000  0.28378000  0.87821000  1
  C  C97  1  0.84203000  0.12064000  0.75117000  1
  C  C98  1  0.50757000  0.89911000  0.71782000  1
  C  C99  1  0.47642000  0.84209000  0.66355000  1
  C  C100  1  0.40895000  0.81047000  0.67083000  1
  C  C101  1  0.37225000  0.83570000  0.73287000  1
  C  C102  1  0.40158000  0.89406000  0.78674000  1
  C  C103  1  0.46872000  0.92570000  0.77915000  1
  C  C104  1  0.58361000  0.92982000  0.71043000  1
  C  C105  1  0.30667000  0.79898000  0.74395000  1
  C  C106  1  0.54189000  0.95426000  0.49185000  1
  C  C107  1  0.51049000  0.89087000  0.45119000  1
  C  C108  1  0.44330000  0.88208000  0.41150000  1
  C  C109  1  0.40580000  0.93692000  0.41365000  1
  C  C110  1  0.43689000  0.00039000  0.45468000  1
  C  C111  1  0.50507000  0.00883000  0.49316000  1
  C  C112  1  0.61395000  0.96483000  0.53515000  1
  C  C113  1  0.33356000  0.92769000  0.37239000  1
  C  C114  1  0.05386000  0.15475000  0.39250000  1
  C  C115  1  0.03018000  0.21743000  0.44311000  1
  C  C116  1  0.96264000  0.24821000  0.43491000  1
  C  C117  1  0.91751000  0.21677000  0.37627000  1
  C  C118  1  0.94260000  0.15506000  0.32505000  1
  C  C119  1  0.01045000  0.12396000  0.33296000  1
  C  C120  1  0.12236000  0.12175000  0.40551000  1
  C  C121  1  0.84193000  0.24879000  0.36948000  1
  C  C122  1  0.50753000  0.28223000  0.18132000  1
  C  C123  1  0.47636000  0.33648000  0.17855000  1
  C  C124  1  0.40891000  0.32916000  0.13961000  1
  C  C125  1  0.37225000  0.26711000  0.10281000  1
  C  C126  1  0.40159000  0.21327000  0.10734000  1
  C  C127  1  0.46872000  0.22089000  0.14661000  1
  C  C128  1  0.58362000  0.28968000  0.21938000  1
  C  C129  1  0.30666000  0.25602000  0.05501000  1
  C  C130  1  0.54191000  0.50811000  0.46238000  1
  C  C131  1  0.51053000  0.54877000  0.43964000  1
  C  C132  1  0.44336000  0.58849000  0.47054000  1
  C  C133  1  0.40582000  0.58638000  0.52324000  1
  C  C134  1  0.43691000  0.54534000  0.54569000  1
  C  C135  1  0.50507000  0.50682000  0.51565000  1
  C  C136  1  0.61396000  0.46481000  0.42964000  1
  C  C137  1  0.33356000  0.62765000  0.55522000  1
  C  C138  1  0.05385000  0.60752000  0.76223000  1
  C  C139  1  0.03016000  0.55695000  0.77433000  1
  C  C140  1  0.96264000  0.56517000  0.81334000  1
  C  C141  1  0.91751000  0.62381000  0.84055000  1
  C  C142  1  0.94260000  0.67501000  0.83002000  1
  C  C143  1  0.01043000  0.66707000  0.79098000  1
  C  C144  1  0.12237000  0.59449000  0.71621000  1
  C  C145  1  0.84195000  0.63059000  0.87939000  1
  C  C146  1  0.50757000  0.81871000  0.10090000  1
  C  C147  1  0.47639000  0.82150000  0.15792000  1
  C  C148  1  0.40893000  0.86043000  0.18952000  1
  C  C149  1  0.37227000  0.89722000  0.16424000  1
  C  C150  1  0.40164000  0.89269000  0.10588000  1
  C  C151  1  0.46879000  0.85343000  0.07425000  1
  C  C152  1  0.58363000  0.78061000  0.07028000  1
  C  C153  1  0.30667000  0.94500000  0.20094000  1
  C  C154  1  0.54192000  0.53765000  0.04587000  1
  C  C155  1  0.51040000  0.56034000  0.10923000  1
  C  C156  1  0.44317000  0.52942000  0.11792000  1
  C  C157  1  0.40572000  0.47674000  0.06305000  1
  C  C158  1  0.43689000  0.45437000  0.99961000  1
  C  C159  1  0.50512000  0.48441000  0.99125000  1
  C  C160  1  0.61399000  0.57038000  0.03532000  1
  C  C161  1  0.33350000  0.44468000  0.07226000  1
  C  C162  1  0.55385000  0.60752000  0.84529000  1
  C  C163  1  0.53015000  0.55695000  0.78262000  1
  C  C164  1  0.46264000  0.56518000  0.75183000  1
  C  C165  1  0.41751000  0.62382000  0.78326000  1
  C  C166  1  0.44260000  0.67501000  0.84499000  1
  C  C167  1  0.51043000  0.66707000  0.87609000  1
  C  C168  1  0.62236000  0.59449000  0.87828000  1
  C  C169  1  0.34195000  0.63059000  0.75120000  1
  C  C170  1  0.00757000  0.81872000  0.71781000  1
  C  C171  1  0.97639000  0.82150000  0.66357000  1
  C  C172  1  0.90892000  0.86043000  0.67091000  1
  C  C173  1  0.87227000  0.89721000  0.73297000  1
  C  C174  1  0.90164000  0.89269000  0.78681000  1
  C  C175  1  0.96879000  0.85342000  0.77917000  1
  C  C176  1  0.08363000  0.78062000  0.71033000  1
  C  C177  1  0.80666000  0.94500000  0.74406000  1
  C  C178  1  0.04192000  0.53765000  0.49177000  1
  C  C179  1  0.01041000  0.56034000  0.45111000  1
  C  C180  1  0.94317000  0.52943000  0.41150000  1
  C  C181  1  0.90572000  0.47674000  0.41369000  1
  C  C182  1  0.93689000  0.45436000  0.45475000  1
  C  C183  1  0.00512000  0.48442000  0.49316000  1
  C  C184  1  0.11399000  0.57037000  0.53505000  1
  C  C185  1  0.83350000  0.44468000  0.37241000  1
  C  C186  1  0.55379000  0.23777000  0.39257000  1
  C  C187  1  0.53013000  0.22569000  0.44317000  1
  C  C188  1  0.46266000  0.18664000  0.43492000  1
  C  C189  1  0.41758000  0.15944000  0.37627000  1
  C  C190  1  0.44262000  0.16995000  0.32505000  1
  C  C191  1  0.51040000  0.20903000  0.33300000  1
  C  C192  1  0.62228000  0.28377000  0.40556000  1
  C  C193  1  0.34204000  0.12063000  0.36946000  1
  C  C194  1  0.00757000  0.89910000  0.18128000  1
  C  C195  1  0.97642000  0.84209000  0.17854000  1
  C  C196  1  0.90895000  0.81046000  0.13963000  1
  C  C197  1  0.87225000  0.83570000  0.10282000  1
  C  C198  1  0.90157000  0.89405000  0.10731000  1
  C  C199  1  0.96872000  0.92570000  0.14654000  1
  C  C200  1  0.08361000  0.92982000  0.21938000  1
  C  C201  1  0.80667000  0.79898000  0.05503000  1
  C  C202  1  0.04189000  0.95426000  0.46241000  1
  C  C203  1  0.01049000  0.89087000  0.43968000  1
  C  C204  1  0.94330000  0.88208000  0.47057000  1
  C  C205  1  0.90580000  0.93692000  0.52327000  1
  C  C206  1  0.93689000  0.00039000  0.54571000  1
  C  C207  1  0.00507000  0.00883000  0.51567000  1
  C  C208  1  0.11395000  0.96483000  0.42968000  1
  C  C209  1  0.83356000  0.92769000  0.55530000  1
  C  C210  1  0.55386000  0.15476000  0.76225000  1
  C  C211  1  0.53018000  0.21743000  0.77432000  1
  C  C212  1  0.46264000  0.24821000  0.81330000  1
  C  C213  1  0.41751000  0.21678000  0.84050000  1
  C  C214  1  0.44260000  0.15505000  0.83000000  1
  C  C215  1  0.51045000  0.12397000  0.79100000  1
  C  C216  1  0.62236000  0.12175000  0.71624000  1
  C  C217  1  0.34194000  0.24880000  0.87931000  1
  C  C218  1  0.00754000  0.28224000  0.10091000  1
  C  C219  1  0.97636000  0.33647000  0.15792000  1
  C  C220  1  0.90891000  0.32916000  0.18954000  1
  C  C221  1  0.87225000  0.26710000  0.16429000  1
  C  C222  1  0.90159000  0.21327000  0.10592000  1
  C  C223  1  0.96872000  0.22089000  0.07427000  1
  C  C224  1  0.08362000  0.28968000  0.07029000  1
  C  C225  1  0.80666000  0.25602000  0.20100000  1
  C  C226  1  0.04191000  0.50810000  0.04572000  1
  C  C227  1  0.01053000  0.54878000  0.10913000  1
  C  C228  1  0.94336000  0.58848000  0.11794000  1
  C  C229  1  0.90582000  0.58638000  0.06314000  1
  C  C230  1  0.93690000  0.54534000  0.99965000  1
  C  C231  1  0.00507000  0.50682000  0.99117000  1
  C  C232  1  0.11396000  0.46481000  0.03516000  1
  C  C233  1  0.83356000  0.62765000  0.07242000  1
  O  O234  1  0.15217000  0.29186000  0.93377000  1
  O  O235  1  0.15116000  0.31730000  0.85438000  1
  O  O236  1  0.80048000  0.10030000  0.78344000  1
  O  O237  1  0.82479000  0.11126000  0.69392000  1
  O  O238  1  0.61914000  0.89950000  0.65456000  1
  O  O239  1  0.60795000  0.98344000  0.76004000  1
  O  O240  1  0.28183000  0.81633000  0.80146000  1
  O  O241  1  0.27727000  0.74539000  0.69414000  1
  O  O242  1  0.63473000  0.91745000  0.54395000  1
  O  O243  1  0.64802000  0.02128000  0.56075000  1
  O  O244  1  0.31312000  0.87103000  0.32566000  1
  O  O245  1  0.29007000  0.97828000  0.38345000  1
  O  O246  1  0.15232000  0.06618000  0.35805000  1
  O  O247  1  0.15121000  0.14560000  0.46288000  1
  O  O248  1  0.80034000  0.21655000  0.31689000  1
  O  O249  1  0.82471000  0.30605000  0.41736000  1
  O  O250  1  0.61917000  0.34553000  0.24476000  1
  O  O251  1  0.60799000  0.24014000  0.22351000  1
  O  O252  1  0.28185000  0.19851000  0.01481000  1
  O  O253  1  0.27724000  0.30585000  0.05128000  1
  O  O254  1  0.63473000  0.45598000  0.37345000  1
  O  O255  1  0.64802000  0.43925000  0.46053000  1
  O  O256  1  0.31313000  0.67440000  0.54532000  1
  O  O257  1  0.29001000  0.61656000  0.59470000  1
  O  O258  1  0.15231000  0.64193000  0.70808000  1
  O  O259  1  0.15121000  0.53712000  0.68270000  1
  O  O260  1  0.80029000  0.68314000  0.89967000  1
  O  O261  1  0.82478000  0.58274000  0.88883000  1
  O  O262  1  0.61914000  0.75518000  0.10072000  1
  O  O263  1  0.60801000  0.77650000  0.01663000  1
  O  O264  1  0.28185000  0.98520000  0.18362000  1
  O  O265  1  0.27724000  0.94873000  0.25450000  1
  O  O266  1  0.63474000  0.62659000  0.08268000  1
  O  O267  1  0.64808000  0.53951000  0.97889000  1
  O  O268  1  0.31305000  0.45462000  0.12893000  1
  O  O269  1  0.29007000  0.40512000  0.02166000  1
  O  O270  1  0.65231000  0.64193000  0.93385000  1
  O  O271  1  0.65121000  0.53712000  0.85442000  1
  O  O272  1  0.30029000  0.68314000  0.78347000  1
  O  O273  1  0.32478000  0.58274000  0.69391000  1
  O  O274  1  0.11915000  0.75517000  0.65445000  1
  O  O275  1  0.10801000  0.77649000  0.75986000  1
  O  O276  1  0.78185000  0.98520000  0.80157000  1
  O  O277  1  0.77724000  0.94872000  0.69422000  1
  O  O278  1  0.13474000  0.62659000  0.54390000  1
  O  O279  1  0.14808000  0.53951000  0.56062000  1
  O  O280  1  0.81305000  0.45462000  0.32569000  1
  O  O281  1  0.79007000  0.40511000  0.38345000  1
  O  O282  1  0.65217000  0.29187000  0.35809000  1
  O  O283  1  0.65116000  0.31730000  0.46292000  1
  O  O284  1  0.30048000  0.10030000  0.31686000  1
  O  O285  1  0.32479000  0.11126000  0.41734000  1
  O  O286  1  0.11915000  0.89949000  0.24493000  1
  O  O287  1  0.10795000  0.98344000  0.22340000  1
  O  O288  1  0.78183000  0.81632000  0.01486000  1
  O  O289  1  0.77727000  0.74538000  0.05124000  1
  O  O290  1  0.13473000  0.91745000  0.37350000  1
  O  O291  1  0.14802000  0.02128000  0.46052000  1
  O  O292  1  0.81312000  0.87104000  0.54537000  1
  O  O293  1  0.79007000  0.97828000  0.59483000  1
  O  O294  1  0.65232000  0.06619000  0.70813000  1
  O  O295  1  0.65121000  0.14560000  0.68272000  1
  O  O296  1  0.30034000  0.21655000  0.89965000  1
  O  O297  1  0.32471000  0.30605000  0.88869000  1
  O  O298  1  0.11917000  0.34554000  0.10077000  1
  O  O299  1  0.10799000  0.24015000  0.01663000  1
  O  O300  1  0.78185000  0.19851000  0.18369000  1
  O  O301  1  0.77724000  0.30584000  0.25456000  1
  O  O302  1  0.13473000  0.45597000  0.08252000  1
  O  O303  1  0.14802000  0.43925000  0.97872000  1
  O  O304  1  0.81313000  0.67440000  0.12908000  1
  O  O305  1  0.79001000  0.61657000  0.02186000  1
