# generated using pymatgen
data_GdH4(C2O)6
_symmetry_space_group_name_H-M   'P 1'
_cell_length_a   8.73638000
_cell_length_b   9.33977000
_cell_length_c   18.41298000
_cell_angle_alpha   89.99013000
_cell_angle_beta   89.97962000
_cell_angle_gamma   108.45392000
_symmetry_Int_Tables_number   1
_chemical_formula_structural   GdH4(C2O)6
_chemical_formula_sum   'Gd4 H16 C48 O24'
_cell_volume   1425.16460265
_cell_formula_units_Z   4
loop_
 _symmetry_equiv_pos_site_id
 _symmetry_equiv_pos_as_xyz
  1  'x, y, z'
loop_
 _atom_site_type_symbol
 _atom_site_label
 _atom_site_symmetry_multiplicity
 _atom_site_fract_x
 _atom_site_fract_y
 _atom_site_fract_z
 _atom_site_occupancy
  Gd  Gd1  1  0.20409000  0.48970000  0.55161000  1.0
  Gd  Gd2  1  0.79557000  0.00986000  0.05238000  1.0
  Gd  Gd3  1  0.20443000  0.99015000  0.94763000  1.0
  Gd  Gd4  1  0.79591000  0.51030000  0.44839000  1.0
  H  H1  1  0.22570000  0.45431000  0.06721000  1.0
  H  H2  1  0.22549000  0.95338000  0.43293000  1.0
  H  H3  1  0.56029000  0.56703000  0.71491000  1.0
  H  H4  1  0.56043000  0.06821000  0.78507000  1.0
  H  H5  1  0.74086000  0.15891000  0.67722000  1.0
  H  H6  1  0.77430000  0.54569000  0.93279000  1.0
  H  H7  1  0.43971000  0.43297000  0.28509000  1.0
  H  H8  1  0.25931000  0.34190000  0.17736000  1.0
  H  H9  1  0.91589000  0.02673000  0.31393000  1.0
  H  H10  1  0.08412000  0.97327000  0.68607000  1.0
  H  H11  1  0.74069000  0.65810000  0.82264000  1.0
  H  H12  1  0.91495000  0.52677000  0.18600000  1.0
  H  H13  1  0.25914000  0.84110000  0.32279000  1.0
  H  H14  1  0.43958000  0.93179000  0.21494000  1.0
  H  H15  1  0.08505000  0.47323000  0.81400000  1.0
  H  H16  1  0.77451000  0.04662000  0.56707000  1.0
  C  C1  1  0.27619000  0.28446000  0.36013000  1.0
  C  C2  1  0.02856000  0.87656000  0.82460000  1.0
  C  C3  1  0.22410000  0.29490000  0.23108000  1.0
  C  C4  1  0.38588000  0.84922000  0.07774000  1.0
  C  C5  1  0.67675000  0.15536000  0.79068000  1.0
  C  C6  1  0.02902000  0.37698000  0.67516000  1.0
  C  C7  1  0.72381000  0.71554000  0.63988000  1.0
  C  C8  1  0.93985000  0.61463000  0.02163000  1.0
  C  C9  1  0.12919000  0.47787000  0.03735000  1.0
  C  C10  1  0.22360000  0.79418000  0.26908000  1.0
  C  C11  1  0.67624000  0.65474000  0.70921000  1.0
  C  C12  1  0.27556000  0.78446000  0.13995000  1.0
  C  C13  1  0.06975000  0.09178000  0.43949000  1.0
  C  C14  1  0.92423000  0.32059000  0.73955000  1.0
  C  C15  1  0.92353000  0.82000000  0.76039000  1.0
  C  C16  1  0.88898000  0.75017000  0.03328000  1.0
  C  C17  1  0.97068000  0.88214000  0.69156000  1.0
  C  C18  1  0.32376000  0.34526000  0.29079000  1.0
  C  C19  1  0.12627000  0.67025000  0.13061000  1.0
  C  C20  1  0.87290000  0.83009000  0.63064000  1.0
  C  C21  1  0.87077000  0.02262000  0.53720000  1.0
  C  C22  1  0.06015000  0.38537000  0.97837000  1.0
  C  C23  1  0.07647000  0.18000000  0.23962000  1.0
  C  C24  1  0.97151000  0.38221000  0.80844000  1.0
  C  C25  1  0.94019000  0.11468000  0.47808000  1.0
  C  C26  1  0.77590000  0.70510000  0.76893000  1.0
  C  C27  1  0.87373000  0.32975000  0.86939000  1.0
  C  C28  1  0.06930000  0.59216000  0.06045000  1.0
  C  C29  1  0.87081000  0.52213000  0.96265000  1.0
  C  C30  1  0.61412000  0.15078000  0.92226000  1.0
  C  C31  1  0.97144000  0.12345000  0.17540000  1.0
  C  C32  1  0.07577000  0.67942000  0.26045000  1.0
  C  C33  1  0.97098000  0.62302000  0.32484000  1.0
  C  C34  1  0.12923000  0.97738000  0.46281000  1.0
  C  C35  1  0.93070000  0.40784000  0.93955000  1.0
  C  C36  1  0.77640000  0.20582000  0.73092000  1.0
  C  C37  1  0.12711000  0.16991000  0.36937000  1.0
  C  C38  1  0.72444000  0.21554000  0.86006000  1.0
  C  C39  1  0.02933000  0.11786000  0.30845000  1.0
  C  C40  1  0.11102000  0.24984000  0.96672000  1.0
  C  C41  1  0.05981000  0.88533000  0.52192000  1.0
  C  C42  1  0.61345000  0.65076000  0.57775000  1.0
  C  C43  1  0.88924000  0.24998000  0.46573000  1.0
  C  C44  1  0.32325000  0.84465000  0.20932000  1.0
  C  C45  1  0.02850000  0.61780000  0.19156000  1.0
  C  C46  1  0.93025000  0.90822000  0.56051000  1.0
  C  C47  1  0.38655000  0.34924000  0.42225000  1.0
  C  C48  1  0.11076000  0.75002000  0.53427000  1.0
  O  O1  1  0.25741000  0.25504000  0.97128000  1.0
  O  O2  1  0.67334000  0.65044000  0.51424000  1.0
  O  O3  1  0.25726000  0.75545000  0.53010000  1.0
  O  O4  1  0.46445000  0.59570000  0.59256000  1.0
  O  O5  1  0.32584000  0.85036000  0.01443000  1.0
  O  O6  1  0.99928000  0.62069000  0.54522000  1.0
  O  O7  1  0.16126000  0.48636000  0.68033000  1.0
  O  O8  1  0.99950000  0.12064000  0.95597000  1.0
  O  O9  1  0.74274000  0.24455000  0.46990000  1.0
  O  O10  1  0.53520000  0.90296000  0.09196000  1.0
  O  O11  1  0.83890000  0.01456000  0.18144000  1.0
  O  O12  1  0.83874000  0.51364000  0.31968000  1.0
  O  O13  1  0.53555000  0.40430000  0.40744000  1.0
  O  O14  1  0.00050000  0.87937000  0.04403000  1.0
  O  O15  1  0.01549000  0.18537000  0.11306000  1.0
  O  O16  1  0.46480000  0.09705000  0.90804000  1.0
  O  O17  1  0.32666000  0.34956000  0.48576000  1.0
  O  O18  1  0.98451000  0.81463000  0.88694000  1.0
  O  O19  1  0.00072000  0.37931000  0.45478000  1.0
  O  O20  1  0.67416000  0.14964000  0.98557000  1.0
  O  O21  1  0.16110000  0.98544000  0.81856000  1.0
  O  O22  1  0.74259000  0.74496000  0.02872000  1.0
  O  O23  1  0.01534000  0.68610000  0.38684000  1.0
  O  O24  1  0.98466000  0.31390000  0.61316000  1.0
