# generated using pymatgen
data_CsTbMoH4C9N8O
_symmetry_space_group_name_H-M   'P 1'
_cell_length_a   9.90913000
_cell_length_b   10.06917000
_cell_length_c   13.62548000
_cell_angle_alpha   82.03268000
_cell_angle_beta   86.67426000
_cell_angle_gamma   65.49411000
_symmetry_Int_Tables_number   1
_chemical_formula_structural   CsTbMoH4C9N8O
_chemical_formula_sum   'Cs2 Tb2 Mo2 H8 C18 N16 O2'
_cell_volume   1225.09851697
_cell_formula_units_Z   2
loop_
 _symmetry_equiv_pos_site_id
 _symmetry_equiv_pos_as_xyz
  1  'x, y, z'
loop_
 _atom_site_type_symbol
 _atom_site_label
 _atom_site_symmetry_multiplicity
 _atom_site_fract_x
 _atom_site_fract_y
 _atom_site_fract_z
 _atom_site_occupancy
  Cs  Cs0  1  0.15421000  0.56596000  0.38776000  1
  Cs  Cs1  1  0.84694000  0.43447000  0.61190000  1
  Tb  Tb2  1  0.31840000  0.22328000  0.17444000  1
  Tb  Tb3  1  0.67946000  0.77566000  0.82765000  1
  Mo  Mo4  1  0.74442000  0.62528000  0.23842000  1
  Mo  Mo5  1  0.25647000  0.37368000  0.76057000  1
  H  H6  1  0.46663000  0.41944000  0.19997000  1
  H  H7  1  0.39443000  0.54912000  0.05060000  1
  H  H8  1  0.28285000  0.65910000  0.14295000  1
  H  H9  1  0.20955000  0.56388000  0.07416000  1
  H  H10  1  0.53240000  0.58037000  0.79989000  1
  H  H11  1  0.60563000  0.45021000  0.95017000  1
  H  H12  1  0.71661000  0.34232000  0.85666000  1
  H  H13  1  0.79016000  0.43659000  0.92619000  1
  C  C14  1  0.84305000  0.44419000  0.34685000  1
  C  C15  1  0.74111000  0.70070000  0.37793000  1
  C  C16  1  0.54597000  0.61882000  0.30201000  1
  C  C17  1  0.56936000  0.84799000  0.21754000  1
  C  C18  1  0.70052000  0.46213000  0.17903000  1
  C  C19  1  0.28465000  0.30858000  0.91712000  1
  C  C20  1  0.95889000  0.48821000  0.19042000  1
  C  C21  1  0.86999000  0.75393000  0.21430000  1
  C  C22  1  0.30887000  0.56097000  0.10676000  1
  C  C23  1  0.15787000  0.55743000  0.65242000  1
  C  C24  1  0.25740000  0.29981000  0.62200000  1
  C  C25  1  0.45405000  0.38266000  0.69797000  1
  C  C26  1  0.43071000  0.15131000  0.78177000  1
  C  C27  1  0.29906000  0.53790000  0.82075000  1
  C  C28  1  0.71539000  0.69010000  0.08206000  1
  C  C29  1  0.04182000  0.51248000  0.80829000  1
  C  C30  1  0.12989000  0.24581000  0.78603000  1
  C  C31  1  0.69053000  0.43956000  0.89376000  1
  N  N32  1  0.90161000  0.34246000  0.40682000  1
  N  N33  1  0.74748000  0.73166000  0.45714000  1
  N  N34  1  0.43642000  0.61011000  0.33238000  1
  N  N35  1  0.48160000  0.97120000  0.20254000  1
  N  N36  1  0.66294000  0.37773000  0.15063000  1
  N  N37  1  0.29804000  0.27682000  0.00396000  1
  N  N38  1  0.08054000  0.40067000  0.17547000  1
  N  N39  1  0.95048000  0.81393000  0.20334000  1
  N  N40  1  0.09737000  0.65872000  0.59256000  1
  N  N41  1  0.25286000  0.26785000  0.54289000  1
  N  N42  1  0.56432000  0.38969000  0.66762000  1
  N  N43  1  0.51708000  0.02765000  0.79812000  1
  N  N44  1  0.33670000  0.62234000  0.84910000  1
  N  N45  1  0.70169000  0.72198000  0.99523000  1
  N  N46  1  0.92041000  0.59848000  0.82505000  1
  N  N47  1  0.04945000  0.18579000  0.79641000  1
  O  O48  1  0.36450000  0.43047000  0.18375000  1
  O  O49  1  0.63340000  0.57111000  0.81757000  1
