# generated using pymatgen
data_V4H45C48N5O28
_symmetry_space_group_name_H-M   'P 1'
_cell_length_a   7.46294000
_cell_length_b   14.56510000
_cell_length_c   16.84281000
_cell_angle_alpha   91.31188000
_cell_angle_beta   94.80773000
_cell_angle_gamma   90.98357000
_symmetry_Int_Tables_number   1
_chemical_formula_structural   V4H45C48N5O28
_chemical_formula_sum   'V4 H45 C48 N5 O28'
_cell_volume   1823.53322779
_cell_formula_units_Z   1
loop_
 _symmetry_equiv_pos_site_id
 _symmetry_equiv_pos_as_xyz
  1  'x, y, z'
loop_
 _atom_site_type_symbol
 _atom_site_label
 _atom_site_symmetry_multiplicity
 _atom_site_fract_x
 _atom_site_fract_y
 _atom_site_fract_z
 _atom_site_occupancy
  V  V0  1  0.06435000  0.51088000  0.50000000  1
  V  V1  1  0.56434000  0.48912000  0.50000000  1
  V  V2  1  0.66978000  0.99289000  0.99603000  1
  V  V3  1  0.16978000  0.01470000  0.99600000  1
  H  H4  1  0.85049000  0.33276000  0.87343000  1
  H  H5  1  0.63572000  0.12608000  0.73612000  1
  H  H6  1  0.57476000  0.32344000  0.74217000  1
  H  H7  1  0.15524000  0.23961000  0.18286000  1
  H  H8  1  0.42033000  0.31137000  0.19677000  1
  H  H9  1  0.45226000  0.17301000  0.13184000  1
  H  H10  1  0.51591000  0.10957000  0.22859000  1
  H  H11  1  0.73329000  0.82400000  0.84424000  1
  H  H12  1  0.77190000  0.73126000  0.73607000  1
  H  H13  1  0.06603000  0.72704000  0.28345000  1
  H  H14  1  0.76671000  0.81138000  0.23491000  1
  H  H15  1  0.22079000  0.29097000  0.38907000  1
  H  H16  1  0.41334000  0.35610000  0.37077000  1
  H  H17  1  0.45106000  0.25027000  0.42486000  1
  H  H18  1  0.95520000  0.57118000  0.65781000  1
  H  H19  1  0.03860000  0.70962000  0.64505000  1
  H  H20  1  0.83781000  0.63431000  0.63531000  1
  H  H21  1  0.04623000  0.76256000  0.90553000  1
  H  H22  1  0.99796000  0.83521000  0.81459000  1
  H  H23  1  0.81974000  0.73214000  0.96813000  1
  H  H24  1  0.58641000  0.71177000  0.96693000  1
  H  H25  1  0.69721000  0.52824000  0.68328000  1
  H  H26  1  0.51664000  0.51502000  0.74439000  1
  H  H27  1  0.72491000  0.45570000  0.76647000  1
  H  H28  1  0.34367000  0.29470000  0.80854000  1
  H  H29  1  0.20739000  0.34008000  0.88526000  1
  H  H30  1  0.36316000  0.41514000  0.83852000  1
  H  H31  1  0.98957000  0.84997000  0.08128000  1
  H  H32  1  0.03334000  0.95342000  0.16695000  1
  H  H33  1  0.83378000  0.89678000  0.14333000  1
  H  H34  1  0.58088000  0.60098000  0.11627000  1
  H  H35  1  0.81386000  0.57151000  0.15625000  1
  H  H36  1  0.77229000  0.60764000  0.05904000  1
  H  H37  1  0.96290000  0.66607000  0.36059000  1
  H  H38  1  0.88013000  0.64066000  0.41261000  1
  H  H39  1  0.97609000  0.75262000  0.44365000  1
  H  H40  1  0.62006000  0.55029000  0.24913000  1
  H  H41  1  0.84397000  0.56692000  0.28052000  1
  H  H42  1  0.27255000  0.26309000  0.66155000  1
  H  H43  1  0.18864000  0.15119000  0.61676000  1
  H  H44  1  0.40420000  0.15930000  0.66653000  1
  H  H45  1  0.88006000  0.08315000  0.61009000  1
  H  H46  1  0.92664000  0.18129000  0.55919000  1
  H  H47  1  0.07041000  0.45659000  0.27137000  1
  H  H48  1  0.27077000  0.37692000  0.26987000  1
  C  C49  1  0.34786000  0.60575000  0.62159000  1
  C  C50  1  0.34033000  0.61686000  0.38445000  1
  C  C51  1  0.83706000  0.38833000  0.38217000  1
  C  C52  1  0.84640000  0.38194000  0.61429000  1
  C  C53  1  0.00057000  0.30975000  0.75553000  1
  C  C54  1  0.85727000  0.29373000  0.81634000  1
  C  C55  1  0.88154000  0.18764000  0.80771000  1
  C  C56  1  0.02401000  0.20438000  0.74503000  1
  C  C57  1  0.87273000  0.20378000  0.67677000  1
  C  C58  1  0.73190000  0.18527000  0.73782000  1
  C  C59  1  0.70802000  0.29082000  0.74525000  1
  C  C60  1  0.85330000  0.30955000  0.68441000  1
  C  C61  1  0.71102000  0.21161000  0.20689000  1
  C  C62  1  0.88017000  0.18657000  0.17936000  1
  C  C63  1  0.02900000  0.24224000  0.21179000  1
  C  C64  1  0.00387000  0.31166000  0.27193000  1
  C  C65  1  0.83703000  0.32673000  0.30684000  1
  C  C66  1  0.68480000  0.27745000  0.26561000  1
  C  C67  1  0.48184000  0.26313000  0.24431000  1
  C  C68  1  0.52308000  0.17674000  0.19482000  1
  C  C69  1  0.50823000  0.69480000  0.74864000  1
  C  C70  1  0.35514000  0.65604000  0.70542000  1
  C  C71  1  0.20273000  0.66201000  0.75737000  1
  C  C72  1  0.19078000  0.73893000  0.81382000  1
  C  C73  1  0.35684000  0.79586000  0.83573000  1
  C  C74  1  0.50371000  0.75269000  0.81310000  1
  C  C75  1  0.68730000  0.74639000  0.84835000  1
  C  C76  1  0.70238000  0.68431000  0.77491000  1
  C  C77  1  0.49559000  0.70347000  0.27371000  1
  C  C78  1  0.34377000  0.68380000  0.31259000  1
  C  C79  1  0.20014000  0.73110000  0.27322000  1
  C  C80  1  0.20565000  0.79478000  0.21068000  1
  C  C81  1  0.37043000  0.81525000  0.17471000  1
  C  C82  1  0.50862000  0.75982000  0.20808000  1
  C  C83  1  0.70363000  0.74513000  0.21334000  1
  C  C84  1  0.68500000  0.68745000  0.28877000  1
  C  C85  1  0.39040000  0.88557000  0.10897000  1
  C  C86  1  0.38271000  0.88224000  0.88792000  1
  C  C87  1  0.88785000  0.11953000  0.88036000  1
  C  C88  1  0.89320000  0.11831000  0.11102000  1
  C  C89  1  0.36602000  0.28437000  0.37595000  1
  C  C90  1  0.96580000  0.64950000  0.67416000  1
  C  C91  1  0.66706000  0.52144000  0.74536000  1
  C  C92  1  0.26693000  0.35577000  0.82733000  1
  C  C93  1  0.97620000  0.88580000  0.14036000  1
  C  C94  1  0.72786000  0.61848000  0.11939000  1
  C  C95  1  0.89790000  0.70622000  0.39955000  1
  C  C96  1  0.26540000  0.18590000  0.66877000  1
  N  N97  1  0.01958000  0.76513000  0.83767000  1
  N  N98  1  0.70390000  0.70143000  0.92952000  1
  N  N99  1  0.71305000  0.58646000  0.28940000  1
  N  N100  1  0.84073000  0.15124000  0.60047000  1
  N  N101  1  0.13066000  0.39068000  0.27910000  1
  O  O102  1  0.50560000  0.58455000  0.41263000  1
  O  O103  1  0.17606000  0.59427000  0.58676000  1
  O  O104  1  0.00576000  0.41545000  0.58737000  1
  O  O105  1  0.17589000  0.59557000  0.41324000  1
  O  O106  1  0.00558000  0.41676000  0.41262000  1
  O  O107  1  0.50577000  0.58324000  0.58738000  1
  O  O108  1  0.33920000  0.44133000  0.50000000  1
  O  O109  1  0.67586000  0.40573000  0.41324000  1
  O  O110  1  0.67604000  0.40443000  0.58676000  1
  O  O111  1  0.83936000  0.55867000  0.50000000  1
  O  O112  1  0.22835000  0.92050000  0.90868000  1
  O  O113  1  0.55831000  0.90820000  0.08280000  1
  O  O114  1  0.72854000  0.08702000  0.08341000  1
  O  O115  1  0.55807000  0.90949000  0.90928000  1
  O  O116  1  0.72831000  0.08833000  0.90866000  1
  O  O117  1  0.22859000  0.91919000  0.08344000  1
  O  O118  1  0.39490000  0.06242000  0.99605000  1
  O  O119  1  0.05802000  0.09938000  0.90925000  1
  O  O120  1  0.05826000  0.09808000  0.08277000  1
  O  O121  1  0.89479000  0.94513000  0.99602000  1
  O  O122  1  0.36654000  0.23121000  0.30313000  1
  O  O123  1  0.06068000  0.60266000  0.74348000  1
  O  O124  1  0.74966000  0.59292000  0.79842000  1
  O  O125  1  0.13499000  0.37999000  0.76610000  1
  O  O126  1  0.02795000  0.81463000  0.18586000  1
  O  O127  1  0.76632000  0.71113000  0.14014000  1
  O  O128  1  0.73847000  0.73893000  0.36109000  1
  O  O129  1  0.19126000  0.16045000  0.74079000  1
