# generated using pymatgen
data_Zn2H6C18O9F8
_symmetry_space_group_name_H-M   'P 1'
_cell_length_a   8.24600000
_cell_length_b   9.70500000
_cell_length_c   19.40800000
_cell_angle_alpha   90.00000000
_cell_angle_beta   90.00000000
_cell_angle_gamma   101.79000000
_symmetry_Int_Tables_number   1
_chemical_formula_structural   Zn2H6C18O9F8
_chemical_formula_sum   'Zn4 H12 C36 O18 F16'
_cell_volume   1520.40518531
_cell_formula_units_Z   2
loop_
 _symmetry_equiv_pos_site_id
 _symmetry_equiv_pos_as_xyz
  1  'x, y, z'
loop_
 _atom_site_type_symbol
 _atom_site_label
 _atom_site_symmetry_multiplicity
 _atom_site_fract_x
 _atom_site_fract_y
 _atom_site_fract_z
 _atom_site_occupancy
  Zn  Zn1  1  0.28527000  0.15785000  0.48235000  1.0
  Zn  Zn2  1  0.63807000  0.05371000  0.42600000  1.0
  Zn  Zn3  1  0.71473000  0.84215000  0.98235000  1.0
  Zn  Zn4  1  0.36193000  0.94629000  0.92600000  1.0
  H  H1  1  0.04010000  0.20000000  0.60210000  1.0
  H  H2  1  0.95230000  0.32090000  0.57760000  1.0
  H  H3  1  0.14010000  0.44870000  0.64060000  1.0
  H  H4  1  0.24720000  0.45220000  0.57360000  1.0
  H  H5  1  0.26250000  0.34560000  0.63270000  1.0
  H  H6  1  0.20840000  0.24850000  0.49070000  1.0
  H  H7  1  0.95990000  0.80000000  0.10210000  1.0
  H  H8  1  0.04770000  0.67910000  0.07760000  1.0
  H  H9  1  0.85990000  0.55130000  0.14060000  1.0
  H  H10  1  0.75280000  0.54780000  0.07360000  1.0
  H  H11  1  0.73750000  0.65440000  0.13270000  1.0
  H  H12  1  0.79160000  0.75150000  0.99070000  1.0
  C  C1  1  0.05570000  0.28780000  0.57670000  1.0
  C  C2  1  0.18780000  0.39270000  0.60870000  1.0
  C  C3  1  0.48010000  0.02700000  0.57302000  1.0
  C  C4  1  0.52940000  0.98400000  0.64378000  1.0
  C  C5  1  0.48490000  0.84760000  0.66731000  1.0
  C  C6  1  0.53140000  0.80900000  0.73179000  1.0
  C  C7  1  0.62420000  0.90720000  0.77576000  1.0
  C  C8  1  0.66810000  0.04290000  0.75227000  1.0
  C  C9  1  0.62230000  0.08130000  0.68768000  1.0
  C  C10  1  0.67580000  0.86710000  0.84649000  1.0
  C  C11  1  0.61290000  0.35570000  0.46899000  1.0
  C  C12  1  0.70800000  0.50810000  0.47071000  1.0
  C  C13  1  0.71490000  0.59040000  0.52971000  1.0
  C  C14  1  0.79430000  0.73070000  0.52908000  1.0
  C  C15  1  0.86790000  0.79450000  0.47038000  1.0
  C  C16  1  0.85960000  0.71330000  0.41172000  1.0
  C  C17  1  0.78220000  0.57340000  0.41211000  1.0
  C  C18  1  0.95830000  0.94850000  0.47037000  1.0
  C  C19  1  0.94430000  0.71220000  0.07670000  1.0
  C  C20  1  0.81220000  0.60730000  0.10870000  1.0
  C  C21  1  0.51990000  0.97300000  0.07302000  1.0
  C  C22  1  0.47060000  0.01600000  0.14378000  1.0
  C  C23  1  0.51510000  0.15240000  0.16731000  1.0
  C  C24  1  0.46860000  0.19100000  0.23179000  1.0
  C  C25  1  0.37580000  0.09280000  0.27576000  1.0
  C  C26  1  0.33190000  0.95710000  0.25227000  1.0
  C  C27  1  0.37770000  0.91870000  0.18768000  1.0
  C  C28  1  0.32420000  0.13290000  0.34649000  1.0
  C  C29  1  0.38710000  0.64430000  0.96899000  1.0
  C  C30  1  0.29200000  0.49190000  0.97071000  1.0
  C  C31  1  0.28510000  0.40960000  0.02971000  1.0
  C  C32  1  0.20570000  0.26930000  0.02908000  1.0
  C  C33  1  0.13210000  0.20550000  0.97038000  1.0
  C  C34  1  0.14040000  0.28670000  0.91172000  1.0
  C  C35  1  0.21780000  0.42660000  0.91211000  1.0
  C  C36  1  0.04170000  0.05150000  0.97037000  1.0
  O  O1  1  0.54940000  0.98300000  0.52310000  1.0
  O  O2  1  0.37310000  0.09970000  0.57214000  1.0
  O  O3  1  0.78180000  0.79680000  0.85217000  1.0
  O  O4  1  0.60570000  0.91370000  0.89820000  1.0
  O  O5  1  0.46130000  0.34180000  0.47945000  1.0
  O  O6  1  0.69550000  0.26470000  0.45670000  1.0
  O  O7  1  0.87710000  0.04130000  0.46035000  1.0
  O  O8  1  0.10950000  0.96750000  0.48133000  1.0
  O  O9  1  0.10260000  0.26570000  0.50567000  1.0
  O  O10  1  0.45060000  0.01700000  0.02310000  1.0
  O  O11  1  0.62690000  0.90030000  0.07214000  1.0
  O  O12  1  0.21820000  0.20320000  0.35217000  1.0
  O  O13  1  0.39430000  0.08630000  0.39820000  1.0
  O  O14  1  0.53870000  0.65820000  0.97945000  1.0
  O  O15  1  0.30450000  0.73530000  0.95670000  1.0
  O  O16  1  0.12290000  0.95870000  0.96035000  1.0
  O  O17  1  0.89050000  0.03250000  0.98133000  1.0
  O  O18  1  0.89740000  0.73430000  0.00567000  1.0
  F  F1  1  0.39370000  0.74880000  0.62676000  1.0
  F  F2  1  0.48080000  0.67530000  0.75233000  1.0
  F  F3  1  0.76400000  0.14110000  0.79156000  1.0
  F  F4  1  0.67040000  0.21590000  0.66721000  1.0
  F  F5  1  0.64560000  0.53440000  0.58844000  1.0
  F  F6  1  0.80010000  0.80510000  0.58811000  1.0
  F  F7  1  0.92600000  0.77150000  0.35282000  1.0
  F  F8  1  0.77960000  0.49940000  0.35330000  1.0
  F  F9  1  0.60630000  0.25120000  0.12676000  1.0
  F  F10  1  0.51920000  0.32470000  0.25233000  1.0
  F  F11  1  0.23600000  0.85890000  0.29156000  1.0
  F  F12  1  0.32960000  0.78410000  0.16721000  1.0
  F  F13  1  0.35440000  0.46560000  0.08844000  1.0
  F  F14  1  0.19990000  0.19490000  0.08811000  1.0
  F  F15  1  0.07400000  0.22850000  0.85282000  1.0
  F  F16  1  0.22040000  0.50060000  0.85330000  1.0
