# generated using pymatgen
data_BaP4H34C32(O4F)4
_symmetry_space_group_name_H-M   'P 1'
_cell_length_a   8.34758000
_cell_length_b   14.26127000
_cell_length_c   18.92851000
_cell_angle_alpha   96.41055000
_cell_angle_beta   90.62433000
_cell_angle_gamma   91.43925000
_symmetry_Int_Tables_number   1
_chemical_formula_structural   BaP4H34C32(O4F)4
_chemical_formula_sum   'Ba2 P8 H68 C64 O32 F8'
_cell_volume   2238.37515816
_cell_formula_units_Z   2
loop_
 _symmetry_equiv_pos_site_id
 _symmetry_equiv_pos_as_xyz
  1  'x, y, z'
loop_
 _atom_site_type_symbol
 _atom_site_label
 _atom_site_symmetry_multiplicity
 _atom_site_fract_x
 _atom_site_fract_y
 _atom_site_fract_z
 _atom_site_occupancy
  Ba  Ba0  1  0.84377000  0.54113000  0.46376000  1
  Ba  Ba1  1  0.34604000  0.45894000  0.53625000  1
  P  P2  1  0.06414000  0.40725000  0.34090000  1
  P  P3  1  0.62206000  0.71938000  0.54749000  1
  P  P4  1  0.07244000  0.78131000  0.39974000  1
  P  P5  1  0.12556000  0.59283000  0.65911000  1
  P  P6  1  0.11962000  0.21662000  0.59465000  1
  P  P7  1  0.60970000  0.60726000  0.27472000  1
  P  P8  1  0.56970000  0.26804000  0.44516000  1
  P  P9  1  0.62545000  0.34736000  0.71041000  1
  H  H10  1  0.48343000  0.77203000  0.31837000  1
  H  H11  1  0.58311000  0.74003000  0.77382000  1
  H  H12  1  0.44990000  0.76516000  0.22326000  1
  H  H13  1  0.39635000  0.35111000  0.34885000  1
  H  H14  1  0.60424000  0.37558000  0.32949000  1
  H  H15  1  0.35927000  0.25168000  0.23699000  1
  H  H16  1  0.45954000  0.35995000  0.21803000  1
  H  H17  1  0.57168000  0.25473000  0.21992000  1
  H  H18  1  0.67439000  0.89063000  0.22067000  1
  H  H19  1  0.96896000  0.95923000  0.26412000  1
  H  H20  1  0.31140000  0.26389000  0.71304000  1
  H  H21  1  0.20871000  0.88215000  0.69955000  1
  H  H22  1  0.11623000  0.31107000  0.73028000  1
  H  H23  1  0.71250000  0.20720000  0.79198000  1
  H  H24  1  0.83875000  0.20408000  0.71431000  1
  H  H25  1  0.68755000  0.05467000  0.66547000  1
  H  H26  1  0.12739000  0.59481000  0.81950000  1
  H  H27  1  0.86896000  0.33043000  0.82925000  1
  H  H28  1  0.41003000  0.60756000  0.14294000  1
  H  H29  1  0.08023000  0.37859000  0.18208000  1
  H  H30  1  0.84576000  0.46717000  0.64368000  1
  H  H31  1  0.34651000  0.53241000  0.35127000  1
  H  H32  1  0.87989000  0.27606000  0.39459000  1
  H  H33  1  0.74933000  0.37491000  0.91629000  1
  H  H34  1  0.69001000  0.38516000  0.13475000  1
  H  H35  1  0.17855000  0.79076000  0.27177000  1
  H  H36  1  0.91500000  0.49349000  0.15254000  1
  H  H37  1  0.50706000  0.49893000  0.07185000  1
  H  H38  1  0.67478000  0.55663000  0.98320000  1
  H  H39  1  0.57874000  0.54435000  0.85952000  1
  H  H40  1  0.31268000  0.48757000  0.82909000  1
  H  H41  1  0.97846000  0.02405000  0.57617000  1
  H  H42  1  0.85395000  0.29851000  0.52892000  1
  H  H43  1  0.07860000  0.25436000  0.42851000  1
  H  H44  1  0.77907000  0.89594000  0.55686000  1
  H  H45  1  0.43095000  0.09268000  0.42410000  1
  H  H46  1  0.18029000  0.95675000  0.27144000  1
  H  H47  1  0.31011000  0.74589000  0.61538000  1
  H  H48  1  0.11321000  0.73849000  0.57229000  1
  H  H49  1  0.45491000  0.93628000  0.64627000  1
  H  H50  1  0.30705000  0.02601000  0.67275000  1
  H  H51  1  0.40579000  0.02458000  0.58999000  1
  H  H52  1  0.83996000  0.21673000  0.24536000  1
  H  H53  1  0.74491000  0.10530000  0.21540000  1
  H  H54  1  0.96233000  0.10136000  0.40684000  1
  H  H55  1  0.95870000  0.11252000  0.22344000  1
  H  H56  1  0.40316000  0.32903000  0.93003000  1
  H  H57  1  0.48254000  0.25308000  0.85815000  1
  H  H58  1  0.34873000  0.20624000  0.92229000  1
  H  H59  1  0.04733000  0.21111000  0.92808000  1
  H  H60  1  0.11626000  0.09461000  0.89216000  1
  H  H61  1  0.90826000  0.12019000  0.89368000  1
  H  H62  1  0.06049000  0.63703000  0.21996000  1
  H  H63  1  0.15689000  0.71000000  0.15758000  1
  H  H64  1  0.96658000  0.65336000  0.13615000  1
  H  H65  1  0.07856000  0.10936000  0.33021000  1
  H  H66  1  0.64008000  0.09281000  0.86090000  1
  H  H67  1  0.68661000  0.96989000  0.83112000  1
  H  H68  1  0.48645000  0.00305000  0.85191000  1
  H  H69  1  0.48031000  0.27922000  0.09641000  1
  H  H70  1  0.66802000  0.21363000  0.09233000  1
  H  H71  1  0.49589000  0.17070000  0.04042000  1
  H  H72  1  0.28937000  0.99562000  0.16471000  1
  H  H73  1  0.22637000  0.92292000  0.08543000  1
  H  H74  1  0.30433000  0.86706000  0.15808000  1
  H  H75  1  0.80561000  0.65909000  0.65473000  1
  H  H76  1  0.60178000  0.61839000  0.66820000  1
  H  H77  1  0.78910000  0.77624000  0.76121000  1
  C  C78  1  0.60164000  0.88209000  0.26842000  1
  C  C79  1  0.01323000  0.52807000  0.72390000  1
  C  C80  1  0.89134000  0.39504000  0.80697000  1
  C  C81  1  0.05560000  0.81868000  0.26577000  1
  C  C82  1  0.82078000  0.40406000  0.74020000  1
  C  C83  1  0.35439000  0.55864000  0.17539000  1
  C  C84  1  0.40725000  0.56264000  0.24629000  1
  C  C85  1  0.16088000  0.43756000  0.19881000  1
  C  C86  1  0.18429000  0.46227000  0.27285000  1
  C  C87  1  0.99853000  0.46533000  0.84100000  1
  C  C88  1  0.88972000  0.46641000  0.69758000  1
  C  C89  1  0.54047000  0.78010000  0.26666000  1
  C  C90  1  0.23314000  0.49229000  0.14774000  1
  C  C91  1  0.31272000  0.52247000  0.29558000  1
  C  C92  1  0.81319000  0.38685000  0.96542000  1
  C  C93  1  0.07456000  0.91928000  0.24441000  1
  C  C94  1  0.73145000  0.35227000  0.02158000  1
  C  C95  1  0.76577000  0.39543000  0.09015000  1
  C  C96  1  0.89838000  0.45524000  0.10112000  1
  C  C97  1  0.01511000  0.45860000  0.04856000  1
  C  C98  1  0.96314000  0.43658000  0.97593000  1
  C  C99  1  0.17732000  0.48325000  0.06817000  1
  C  C100  1  0.50584000  0.32149000  0.32344000  1
  C  C101  1  0.28313000  0.49575000  0.01064000  1
  C  C102  1  0.22496000  0.49043000  0.93796000  1
  C  C103  1  0.06147000  0.46353000  0.91882000  1
  C  C104  1  0.44959000  0.51101000  0.02291000  1
  C  C105  1  0.18121000  0.76050000  0.62247000  1
  C  C106  1  0.55046000  0.53804000  0.97067000  1
  C  C107  1  0.49611000  0.53252000  0.90133000  1
  C  C108  1  0.33901000  0.50374000  0.88472000  1
  C  C109  1  0.70545000  0.93598000  0.52497000  1
  C  C110  1  0.51582000  0.79975000  0.49350000  1
  C  C111  1  0.47156000  0.29525000  0.24475000  1
  C  C112  1  0.37560000  0.76461000  0.45752000  1
  C  C113  1  0.27644000  0.82396000  0.42413000  1
  C  C114  1  0.31969000  0.91883000  0.42355000  1
  C  C115  1  0.46632000  0.95420000  0.45376000  1
  C  C116  1  0.56491000  0.89559000  0.49060000  1
  C  C117  1  0.16116000  0.86558000  0.64389000  1
  C  C118  1  0.64857000  0.08905000  0.48659000  1
  C  C119  1  0.75085000  0.03061000  0.52091000  1
  C  C120  1  0.68749000  0.18621000  0.48986000  1
  C  C121  1  0.82573000  0.22362000  0.52552000  1
  C  C122  1  0.18827000  0.24678000  0.72820000  1
  C  C123  1  0.93462000  0.16486000  0.55235000  1
  C  C124  1  0.89632000  0.06852000  0.55176000  1
  C  C125  1  0.50922000  0.04947000  0.45182000  1
  C  C126  1  0.99659000  0.24416000  0.38149000  1
  C  C127  1  0.97146000  0.13838000  0.35861000  1
  C  C128  1  0.68626000  0.68026000  0.67477000  1
  C  C129  1  0.70125000  0.71604000  0.75342000  1
  C  C130  1  0.35585000  0.97870000  0.62792000  1
  C  C131  1  0.84596000  0.13955000  0.24795000  1
  C  C132  1  0.37564000  0.26668000  0.89167000  1
  C  C133  1  0.19141000  0.21115000  0.80133000  1
  C  C134  1  0.02897000  0.15085000  0.88596000  1
  C  C135  1  0.04179000  0.68800000  0.18060000  1
  C  C136  1  0.59925000  0.02696000  0.82827000  1
  C  C137  1  0.56327000  0.23586000  0.06191000  1
  C  C138  1  0.23160000  0.92663000  0.14426000  1
  C  C139  1  0.72028000  0.18362000  0.73441000  1
  C  C140  1  0.70373000  0.07583000  0.72318000  1
  C  C141  1  0.05013000  0.53645000  0.79769000  1
  O  O142  1  0.89023000  0.43389000  0.32878000  1
  O  O143  1  0.26772000  0.17064000  0.55856000  1
  O  O144  1  0.12421000  0.17619000  0.67844000  1
  O  O145  1  0.13658000  0.44238000  0.41711000  1
  O  O146  1  0.55151000  0.61564000  0.53179000  1
  O  O147  1  0.39478000  0.26876000  0.47443000  1
  O  O148  1  0.55075000  0.24040000  0.35321000  1
  O  O149  1  0.50042000  0.38016000  0.76680000  1
  O  O150  1  0.59976000  0.22409000  0.69652000  1
  O  O151  1  0.63639000  0.60764000  0.36563000  1
  O  O152  1  0.73761000  0.53974000  0.24246000  1
  O  O153  1  0.62875000  0.75370000  0.63914000  1
  O  O154  1  0.06653000  0.28448000  0.32539000  1
  O  O155  1  0.66887000  0.71900000  0.25368000  1
  O  O156  1  0.79491000  0.73127000  0.52562000  1
  O  O157  1  0.04595000  0.65876000  0.39947000  1
  O  O158  1  0.97692000  0.82469000  0.46364000  1
  O  O159  1  0.23511000  0.91866000  0.59391000  1
  O  O160  1  0.82778000  0.11849000  0.31866000  1
  O  O161  1  0.24317000  0.28833000  0.85076000  1
  O  O162  1  0.03431000  0.18161000  0.81763000  1
  O  O163  1  0.96031000  0.76607000  0.21235000  1
  O  O164  1  0.96805000  0.82344000  0.32941000  1
  O  O165  1  0.56651000  0.04261000  0.75728000  1
  O  O166  1  0.60990000  0.28487000  0.00454000  1
  O  O167  1  0.07420000  0.91953000  0.16951000  1
  O  O168  1  0.29947000  0.56615000  0.67126000  1
  O  O169  1  0.05311000  0.55770000  0.58289000  1
  O  O170  1  0.55330000  0.39244000  0.63437000  1
  O  O171  1  0.12162000  0.71496000  0.67852000  1
  O  O172  1  0.63818000  0.38444000  0.46821000  1
  O  O173  1  0.14374000  0.34132000  0.60054000  1
  F  F174  1  0.99957000  0.88423000  0.64594000  1
  F  F175  1  0.69391000  0.90698000  0.32886000  1
  F  F176  1  0.75221000  0.64517000  0.79149000  1
  F  F177  1  0.47457000  0.94210000  0.26956000  1
  F  F178  1  0.29178000  0.13411000  0.79692000  1
  F  F179  1  0.84414000  0.03505000  0.74324000  1
  F  F180  1  0.32754000  0.67353000  0.45984000  1
  F  F181  1  0.21357000  0.97814000  0.39872000  1
