# generated using pymatgen
data_CaZnH6C16O9
_symmetry_space_group_name_H-M   'P 1'
_cell_length_a   11.15770000
_cell_length_b   13.04190000
_cell_length_c   17.49450000
_cell_angle_alpha   90.00000000
_cell_angle_beta   90.00000000
_cell_angle_gamma   102.31600000
_symmetry_Int_Tables_number   1
_chemical_formula_structural   CaZnH6C16O9
_chemical_formula_sum   'Ca4 Zn4 H24 C64 O36'
_cell_volume   2487.16983672
_cell_formula_units_Z   4
loop_
 _symmetry_equiv_pos_site_id
 _symmetry_equiv_pos_as_xyz
  1  'x, y, z'
loop_
 _atom_site_type_symbol
 _atom_site_label
 _atom_site_symmetry_multiplicity
 _atom_site_fract_x
 _atom_site_fract_y
 _atom_site_fract_z
 _atom_site_occupancy
  Ca  Ca1  1  0.55375000  0.42559000  0.86821000  1.0
  Ca  Ca2  1  0.94625000  0.07441000  0.36821000  1.0
  Ca  Ca3  1  0.44625000  0.57441000  0.13179000  1.0
  Ca  Ca4  1  0.05375000  0.92559000  0.63179000  1.0
  Zn  Zn1  1  0.63198000  0.35464000  0.05992000  1.0
  Zn  Zn2  1  0.86802000  0.14536000  0.55992000  1.0
  Zn  Zn3  1  0.36802000  0.64536000  0.94008000  1.0
  Zn  Zn4  1  0.13198000  0.85464000  0.44008000  1.0
  H  H1  1  0.21120000  0.78310000  0.20340000  1.0
  H  H2  1  0.16880000  0.08100000  0.18810000  1.0
  H  H3  1  0.28990000  0.94240000  0.00730000  1.0
  H  H4  1  0.00300000  0.39040000  0.01540000  1.0
  H  H5  1  0.90730000  0.22250000  0.05000000  1.0
  H  H6  1  0.01990000  0.09460000  0.06830000  1.0
  H  H7  1  0.28880000  0.71690000  0.70340000  1.0
  H  H8  1  0.33120000  0.41900000  0.68810000  1.0
  H  H9  1  0.21010000  0.55760000  0.50730000  1.0
  H  H10  1  0.49700000  0.10960000  0.51540000  1.0
  H  H11  1  0.59270000  0.27750000  0.55000000  1.0
  H  H12  1  0.48010000  0.40540000  0.56830000  1.0
  H  H13  1  0.78880000  0.21690000  0.79660000  1.0
  H  H14  1  0.83120000  0.91900000  0.81190000  1.0
  H  H15  1  0.71010000  0.05760000  0.99270000  1.0
  H  H16  1  0.99700000  0.60960000  0.98460000  1.0
  H  H17  1  0.09270000  0.77750000  0.95000000  1.0
  H  H18  1  0.98010000  0.90540000  0.93170000  1.0
  H  H19  1  0.71120000  0.28310000  0.29660000  1.0
  H  H20  1  0.66880000  0.58100000  0.31190000  1.0
  H  H21  1  0.78990000  0.44240000  0.49270000  1.0
  H  H22  1  0.50300000  0.89040000  0.48460000  1.0
  H  H23  1  0.40730000  0.72250000  0.45000000  1.0
  H  H24  1  0.51990000  0.59460000  0.43170000  1.0
  C  C1  1  0.25500000  0.84770000  0.09963000  1.0
  C  C2  1  0.21590000  0.84410000  0.17503000  1.0
  C  C3  1  0.18380000  0.93090000  0.20846000  1.0
  C  C4  1  0.19140000  0.02280000  0.16640000  1.0
  C  C5  1  0.23310000  0.02590000  0.09170000  1.0
  C  C6  1  0.26370000  0.93930000  0.05785000  1.0
  C  C7  1  0.29500000  0.75480000  0.06442000  1.0
  C  C8  1  0.14580000  0.92690000  0.29150000  1.0
  C  C9  1  0.18510000  0.18890000  0.04705000  1.0
  C  C10  1  0.24560000  0.29000000  0.02803000  1.0
  C  C11  1  0.17630000  0.36620000  0.01630000  1.0
  C  C12  1  0.04920000  0.34000000  0.02390000  1.0
  C  C13  1  0.99200000  0.23920000  0.04400000  1.0
  C  C14  1  0.05910000  0.16260000  0.05530000  1.0
  C  C15  1  0.38200000  0.31250000  0.01399000  1.0
  C  C16  1  0.23790000  0.47480000  0.99110000  1.0
  C  C17  1  0.24500000  0.65230000  0.59963000  1.0
  C  C18  1  0.28410000  0.65590000  0.67503000  1.0
  C  C19  1  0.31620000  0.56910000  0.70846000  1.0
  C  C20  1  0.30860000  0.47720000  0.66640000  1.0
  C  C21  1  0.26690000  0.47410000  0.59170000  1.0
  C  C22  1  0.23630000  0.56070000  0.55785000  1.0
  C  C23  1  0.20500000  0.74520000  0.56442000  1.0
  C  C24  1  0.35420000  0.57310000  0.79150000  1.0
  C  C25  1  0.31490000  0.31110000  0.54705000  1.0
  C  C26  1  0.25440000  0.21000000  0.52803000  1.0
  C  C27  1  0.32370000  0.13380000  0.51630000  1.0
  C  C28  1  0.45080000  0.16000000  0.52390000  1.0
  C  C29  1  0.50800000  0.26080000  0.54400000  1.0
  C  C30  1  0.44090000  0.33740000  0.55530000  1.0
  C  C31  1  0.11800000  0.18750000  0.51399000  1.0
  C  C32  1  0.26210000  0.02520000  0.49110000  1.0
  C  C33  1  0.74500000  0.15230000  0.90037000  1.0
  C  C34  1  0.78410000  0.15590000  0.82497000  1.0
  C  C35  1  0.81620000  0.06910000  0.79154000  1.0
  C  C36  1  0.80860000  0.97720000  0.83360000  1.0
  C  C37  1  0.76690000  0.97410000  0.90830000  1.0
  C  C38  1  0.73630000  0.06070000  0.94215000  1.0
  C  C39  1  0.70500000  0.24520000  0.93558000  1.0
  C  C40  1  0.85420000  0.07310000  0.70850000  1.0
  C  C41  1  0.81490000  0.81110000  0.95295000  1.0
  C  C42  1  0.75440000  0.71000000  0.97197000  1.0
  C  C43  1  0.82370000  0.63380000  0.98370000  1.0
  C  C44  1  0.95080000  0.66000000  0.97610000  1.0
  C  C45  1  0.00800000  0.76080000  0.95600000  1.0
  C  C46  1  0.94090000  0.83740000  0.94470000  1.0
  C  C47  1  0.61800000  0.68750000  0.98601000  1.0
  C  C48  1  0.76210000  0.52520000  0.00890000  1.0
  C  C49  1  0.75500000  0.34770000  0.40037000  1.0
  C  C50  1  0.71590000  0.34410000  0.32497000  1.0
  C  C51  1  0.68380000  0.43090000  0.29154000  1.0
  C  C52  1  0.69140000  0.52280000  0.33360000  1.0
  C  C53  1  0.73310000  0.52590000  0.40830000  1.0
  C  C54  1  0.76370000  0.43930000  0.44215000  1.0
  C  C55  1  0.79500000  0.25480000  0.43558000  1.0
  C  C56  1  0.64580000  0.42690000  0.20850000  1.0
  C  C57  1  0.68510000  0.68890000  0.45295000  1.0
  C  C58  1  0.74560000  0.79000000  0.47197000  1.0
  C  C59  1  0.67630000  0.86620000  0.48370000  1.0
  C  C60  1  0.54920000  0.84000000  0.47610000  1.0
  C  C61  1  0.49200000  0.73920000  0.45600000  1.0
  C  C62  1  0.55910000  0.66260000  0.44470000  1.0
  C  C63  1  0.88200000  0.81250000  0.48601000  1.0
  C  C64  1  0.73790000  0.97480000  0.50890000  1.0
  O  O1  1  0.31870000  0.76140000  0.99338000  1.0
  O  O2  1  0.30330000  0.67966000  0.10649000  1.0
  O  O3  1  0.16460000  0.84919000  0.32918000  1.0
  O  O4  1  0.10130000  0.99920000  0.31831000  1.0
  O  O5  1  0.25910000  0.11660000  0.04783000  1.0
  O  O6  1  0.18140000  0.52760000  0.95255000  1.0
  O  O7  1  0.35010000  0.50868000  0.00916000  1.0
  O  O8  1  0.41790000  0.31594000  0.94698000  1.0
  O  O9  1  0.45050000  0.32490000  0.07178000  1.0
  O  O10  1  0.18130000  0.73860000  0.49338000  1.0
  O  O11  1  0.19670000  0.82034000  0.60649000  1.0
  O  O12  1  0.33540000  0.65081000  0.82918000  1.0
  O  O13  1  0.39870000  0.50080000  0.81831000  1.0
  O  O14  1  0.24090000  0.38340000  0.54783000  1.0
  O  O15  1  0.31860000  0.97240000  0.45255000  1.0
  O  O16  1  0.14990000  0.99132000  0.50916000  1.0
  O  O17  1  0.08210000  0.18406000  0.44698000  1.0
  O  O18  1  0.04950000  0.17510000  0.57178000  1.0
  O  O19  1  0.68130000  0.23860000  0.00662000  1.0
  O  O20  1  0.69670000  0.32034000  0.89351000  1.0
  O  O21  1  0.83540000  0.15081000  0.67082000  1.0
  O  O22  1  0.89870000  0.00080000  0.68169000  1.0
  O  O23  1  0.74090000  0.88340000  0.95217000  1.0
  O  O24  1  0.81860000  0.47240000  0.04745000  1.0
  O  O25  1  0.64990000  0.49132000  0.99084000  1.0
  O  O26  1  0.58210000  0.68406000  0.05302000  1.0
  O  O27  1  0.54950000  0.67510000  0.92822000  1.0
  O  O28  1  0.81870000  0.26140000  0.50662000  1.0
  O  O29  1  0.80330000  0.17966000  0.39351000  1.0
  O  O30  1  0.66460000  0.34919000  0.17082000  1.0
  O  O31  1  0.60130000  0.49920000  0.18169000  1.0
  O  O32  1  0.75910000  0.61660000  0.45217000  1.0
  O  O33  1  0.68140000  0.02760000  0.54745000  1.0
  O  O34  1  0.85010000  0.00868000  0.49084000  1.0
  O  O35  1  0.91790000  0.81594000  0.55302000  1.0
  O  O36  1  0.95050000  0.82490000  0.42822000  1.0
