# generated using pymatgen
data_CuH6C21(N3O7)2
_symmetry_space_group_name_H-M   'P 1'
_cell_length_a   7.50224000
_cell_length_b   8.65062000
_cell_length_c   27.77630000
_cell_angle_alpha   92.74697000
_cell_angle_beta   95.50451000
_cell_angle_gamma   101.65384000
_symmetry_Int_Tables_number   1
_chemical_formula_structural   CuH6C21(N3O7)2
_chemical_formula_sum   'Cu2 H12 C42 N12 O28'
_cell_volume   1753.16053814
_cell_formula_units_Z   2
loop_
 _symmetry_equiv_pos_site_id
 _symmetry_equiv_pos_as_xyz
  1  'x, y, z'
loop_
 _atom_site_type_symbol
 _atom_site_label
 _atom_site_symmetry_multiplicity
 _atom_site_fract_x
 _atom_site_fract_y
 _atom_site_fract_z
 _atom_site_occupancy
  Cu  Cu0  1  0.31562000  0.48262000  0.49462000  1
  Cu  Cu1  1  0.68438000  0.51738000  0.50538000  1
  H  H2  1  0.23669000  0.56561000  0.64622000  1
  H  H3  1  0.76348000  0.43454000  0.35380000  1
  H  H4  1  0.24058000  0.56892000  0.73438000  1
  H  H5  1  0.75944000  0.43078000  0.26563000  1
  H  H6  1  0.24167000  0.57265000  0.34362000  1
  H  H7  1  0.75804000  0.42678000  0.65632000  1
  H  H8  1  0.74837000  0.87128000  0.13360000  1
  H  H9  1  0.25088000  0.12792000  0.86638000  1
  H  H10  1  0.74897000  0.87772000  0.04896000  1
  H  H11  1  0.25045000  0.12146000  0.95103000  1
  H  H12  1  0.68914000  0.89397000  0.97621000  1
  H  H13  1  0.31096000  0.10503000  0.02376000  1
  C  C14  1  0.54380000  0.79900000  0.50397000  1
  C  C15  1  0.45620000  0.20100000  0.49603000  1
  C  C16  1  0.49948000  0.49950000  0.59236000  1
  C  C17  1  0.50052000  0.50048000  0.40764000  1
  C  C18  1  0.57104000  0.63778000  0.82523000  1
  C  C19  1  0.42894000  0.36117000  0.17475000  1
  C  C20  1  0.40824000  0.36936000  0.81757000  1
  C  C21  1  0.59108000  0.62980000  0.18240000  1
  C  C22  1  0.64787000  0.45535000  0.72431000  1
  C  C23  1  0.35178000  0.54367000  0.27566000  1
  C  C24  1  0.64551000  0.45754000  0.67370000  1
  C  C25  1  0.35428000  0.54193000  0.32627000  1
  C  C26  1  0.35177000  0.53513000  0.66744000  1
  C  C27  1  0.64824000  0.46471000  0.33257000  1
  C  C28  1  0.35363000  0.53700000  0.71754000  1
  C  C29  1  0.64627000  0.46252000  0.28246000  1
  C  C30  1  0.49995000  0.49804000  0.74619000  1
  C  C31  1  0.49970000  0.50101000  0.25379000  1
  C  C32  1  0.48664000  0.50607000  0.89762000  1
  C  C33  1  0.51307000  0.49298000  0.10236000  1
  C  C34  1  0.56367000  0.64550000  0.87596000  1
  C  C35  1  0.43623000  0.35349000  0.12402000  1
  C  C36  1  0.63340000  0.78578000  0.90577000  1
  C  C37  1  0.36662000  0.21320000  0.09420000  1
  C  C38  1  0.40447000  0.36861000  0.86784000  1
  C  C39  1  0.59499000  0.63051000  0.13213000  1
  C  C40  1  0.49867000  0.49738000  0.64520000  1
  C  C41  1  0.50129000  0.50242000  0.35479000  1
  C  C42  1  0.58620000  0.63722000  0.03005000  1
  C  C43  1  0.41349000  0.36186000  0.96993000  1
  C  C44  1  0.42485000  0.35748000  0.02126000  1
  C  C45  1  0.57496000  0.64157000  0.97871000  1
  C  C46  1  0.50798000  0.49579000  0.05104000  1
  C  C47  1  0.49176000  0.50328000  0.94894000  1
  C  C48  1  0.67654000  0.76927000  0.06145000  1
  C  C49  1  0.32297000  0.22986000  0.93853000  1
  C  C50  1  0.67952000  0.76594000  0.11132000  1
  C  C51  1  0.31986000  0.23321000  0.88866000  1
  C  C52  1  0.63927000  0.78182000  0.95601000  1
  C  C53  1  0.36071000  0.21719000  0.04397000  1
  C  C54  1  0.55589000  0.96402000  0.51396000  1
  C  C55  1  0.44412000  0.03598000  0.48604000  1
  N  N56  1  0.49404000  0.50138000  0.79761000  1
  N  N57  1  0.50557000  0.49768000  0.20236000  1
  N  N58  1  0.96149000  0.54357000  0.51349000  1
  N  N59  1  0.03851000  0.45643000  0.48651000  1
  N  N60  1  0.06297000  0.69419000  0.52687000  1
  N  N61  1  0.93703000  0.30581000  0.47313000  1
  N  N62  1  0.69062000  0.93612000  0.88610000  1
  N  N63  1  0.30944000  0.06284000  0.11387000  1
  N  N64  1  0.20114000  0.59074000  0.24782000  1
  N  N65  1  0.79837000  0.40790000  0.75211000  1
  N  N66  1  0.65589000  0.03607000  0.55937000  1
  N  N67  1  0.34410000  0.96393000  0.44062000  1
  O  O68  1  0.38022000  0.71388000  0.49650000  1
  O  O69  1  0.61978000  0.28612000  0.50350000  1
  O  O70  1  0.69164000  0.74322000  0.50559000  1
  O  O71  1  0.30836000  0.25678000  0.49441000  1
  O  O72  1  0.34431000  0.48530000  0.56519000  1
  O  O73  1  0.65569000  0.51470000  0.43481000  1
  O  O74  1  0.65572000  0.51465000  0.57428000  1
  O  O75  1  0.34428000  0.48535000  0.42572000  1
  O  O76  1  0.65907000  0.76274000  0.80354000  1
  O  O77  1  0.34128000  0.23608000  0.19645000  1
  O  O78  1  0.66979000  0.76070000  0.21118000  1
  O  O79  1  0.32916000  0.23857000  0.78878000  1
  O  O80  1  0.05210000  0.80711000  0.49819000  1
  O  O81  1  0.12588000  0.73113000  0.57209000  1
  O  O82  1  0.94790000  0.19289000  0.50181000  1
  O  O83  1  0.87412000  0.26887000  0.42791000  1
  O  O84  1  0.84405000  0.02910000  0.90381000  1
  O  O85  1  0.57377000  0.99320000  0.85822000  1
  O  O86  1  0.15600000  0.96986000  0.09616000  1
  O  O87  1  0.42633000  0.00575000  0.14173000  1
  O  O88  1  0.17089000  0.56253000  0.20102000  1
  O  O89  1  0.09018000  0.66127000  0.26952000  1
  O  O90  1  0.91130000  0.34011000  0.73029000  1
  O  O91  1  0.82597000  0.43224000  0.79905000  1
  O  O92  1  0.80277000  0.98979000  0.57638000  1
  O  O93  1  0.58174000  0.12203000  0.58811000  1
  O  O94  1  0.19724000  0.01021000  0.42362000  1
  O  O95  1  0.41824000  0.87795000  0.41189000  1
