# generated using pymatgen
data_LaH9C15O7
_symmetry_space_group_name_H-M   'P 1'
_cell_length_a   13.79900000
_cell_length_b   14.07370000
_cell_length_c   14.62462000
_cell_angle_alpha   84.09464000
_cell_angle_beta   89.98880000
_cell_angle_gamma   60.69989000
_symmetry_Int_Tables_number   1
_chemical_formula_structural   LaH9C15O7
_chemical_formula_sum   'La4 H36 C60 O28'
_cell_volume   2459.53492895
_cell_formula_units_Z   4
loop_
 _symmetry_equiv_pos_site_id
 _symmetry_equiv_pos_as_xyz
  1  'x, y, z'
loop_
 _atom_site_type_symbol
 _atom_site_label
 _atom_site_symmetry_multiplicity
 _atom_site_fract_x
 _atom_site_fract_y
 _atom_site_fract_z
 _atom_site_occupancy
  La  La0  1  0.03991000  0.34210000  0.52635000  1
  La  La1  1  0.38270000  0.65712000  0.97456000  1
  La  La2  1  0.96009000  0.65790000  0.47365000  1
  La  La3  1  0.61731000  0.34288000  0.02545000  1
  H  H4  1  0.82805000  0.01257000  0.61110000  1
  H  H5  1  0.68401000  0.18290000  0.66975000  1
  H  H6  1  0.43367000  0.09576000  0.60928000  1
  H  H7  1  0.57901000  0.92576000  0.55147000  1
  H  H8  1  0.56415000  0.26438000  0.77711000  1
  H  H9  1  0.26047000  0.56666000  0.70469000  1
  H  H10  1  0.33710000  0.28666000  0.56207000  1
  H  H11  1  0.87361000  0.26047000  0.57791000  1
  H  H12  1  0.98748000  0.16911000  0.55046000  1
  H  H13  1  0.83924000  0.98923000  0.88988000  1
  H  H14  1  0.86719000  0.81812000  0.83099000  1
  H  H15  1  0.53027000  0.90259000  0.89077000  1
  H  H16  1  0.50376000  0.07407000  0.94753000  1
  H  H17  1  0.83036000  0.73617000  0.72362000  1
  H  H18  1  0.82648000  0.43416000  0.79269000  1
  H  H19  1  0.62313000  0.71304000  0.93618000  1
  H  H20  1  0.13203000  0.73890000  0.92103000  1
  H  H21  1  0.15676000  0.82952000  0.94772000  1
  H  H22  1  0.17195000  0.98743000  0.38890000  1
  H  H23  1  0.31600000  0.81710000  0.33026000  1
  H  H24  1  0.56633000  0.90424000  0.39072000  1
  H  H25  1  0.42099000  0.07424000  0.44853000  1
  H  H26  1  0.43585000  0.73562000  0.22290000  1
  H  H27  1  0.73953000  0.43334000  0.29531000  1
  H  H28  1  0.66290000  0.71334000  0.43794000  1
  H  H29  1  0.12640000  0.73953000  0.42210000  1
  H  H30  1  0.01253000  0.83089000  0.44954000  1
  H  H31  1  0.16076000  0.01077000  0.11012000  1
  H  H32  1  0.13282000  0.18188000  0.16902000  1
  H  H33  1  0.46973000  0.09741000  0.10923000  1
  H  H34  1  0.49625000  0.92593000  0.05247000  1
  H  H35  1  0.16964000  0.26382000  0.27639000  1
  H  H36  1  0.17353000  0.56584000  0.20731000  1
  H  H37  1  0.37688000  0.28696000  0.06382000  1
  H  H38  1  0.86797000  0.26110000  0.07897000  1
  H  H39  1  0.84324000  0.17047000  0.05229000  1
  C  C40  1  0.79562000  0.86730000  0.52882000  1
  C  C41  1  0.71160000  0.96086000  0.57440000  1
  C  C42  1  0.74159000  0.03160000  0.61139000  1
  C  C43  1  0.66080000  0.12629000  0.64454000  1
  C  C44  1  0.54807000  0.15309000  0.64150000  1
  C  C45  1  0.51981000  0.07824000  0.60977000  1
  C  C46  1  0.60087000  0.98310000  0.57690000  1
  C  C47  1  0.46292000  0.26168000  0.66541000  1
  C  C48  1  0.48731000  0.31048000  0.73422000  1
  C  C49  1  0.41460000  0.41907000  0.74969000  1
  C  C50  1  0.31561000  0.48120000  0.69528000  1
  C  C51  1  0.28762000  0.43177000  0.62929000  1
  C  C52  1  0.35964000  0.32234000  0.61525000  1
  C  C53  1  0.18283000  0.49898000  0.57110000  1
  C  C54  1  0.44580000  0.46560000  0.82466000  1
  C  C55  1  0.66029000  0.13366000  0.97133000  1
  C  C56  1  0.67116000  0.03977000  0.92547000  1
  C  C57  1  0.77234000  0.96940000  0.88904000  1
  C  C58  1  0.78704000  0.87440000  0.85577000  1
  C  C59  1  0.70158000  0.84680000  0.85850000  1
  C  C60  1  0.59818000  0.92118000  0.88992000  1
  C  C61  1  0.58315000  0.01685000  0.92244000  1
  C  C62  1  0.72521000  0.73825000  0.83413000  1
  C  C63  1  0.79898000  0.68986000  0.76558000  1
  C  C64  1  0.83429000  0.58161000  0.74933000  1
  C  C65  1  0.79646000  0.51944000  0.80258000  1
  C  C66  1  0.71879000  0.56834000  0.86845000  1
  C  C67  1  0.68189000  0.67745000  0.88334000  1
  C  C68  1  0.68065000  0.50035000  0.92514000  1
  C  C69  1  0.91249000  0.53499000  0.67490000  1
  C  C70  1  0.20438000  0.13270000  0.47119000  1
  C  C71  1  0.28841000  0.03914000  0.42561000  1
  C  C72  1  0.25841000  0.96840000  0.38861000  1
  C  C73  1  0.33920000  0.87371000  0.35546000  1
  C  C74  1  0.45193000  0.84691000  0.35850000  1
  C  C75  1  0.48020000  0.92176000  0.39023000  1
  C  C76  1  0.39914000  0.01689000  0.42311000  1
  C  C77  1  0.53708000  0.73832000  0.33459000  1
  C  C78  1  0.51270000  0.68952000  0.26578000  1
  C  C79  1  0.58541000  0.58093000  0.25031000  1
  C  C80  1  0.68439000  0.51880000  0.30473000  1
  C  C81  1  0.71238000  0.56823000  0.37071000  1
  C  C82  1  0.64036000  0.67766000  0.38476000  1
  C  C83  1  0.81718000  0.50102000  0.42890000  1
  C  C84  1  0.55420000  0.53440000  0.17535000  1
  C  C85  1  0.33972000  0.86634000  0.02867000  1
  C  C86  1  0.32884000  0.96023000  0.07454000  1
  C  C87  1  0.22766000  0.03060000  0.11096000  1
  C  C88  1  0.21296000  0.12560000  0.14424000  1
  C  C89  1  0.29842000  0.15320000  0.14151000  1
  C  C90  1  0.40182000  0.07882000  0.11008000  1
  C  C91  1  0.41685000  0.98315000  0.07756000  1
  C  C92  1  0.27480000  0.26174000  0.16588000  1
  C  C93  1  0.20102000  0.31013000  0.23442000  1
  C  C94  1  0.16571000  0.41839000  0.25067000  1
  C  C95  1  0.20354000  0.48056000  0.19743000  1
  C  C96  1  0.28121000  0.43165000  0.13155000  1
  C  C97  1  0.31811000  0.32255000  0.11667000  1
  C  C98  1  0.31935000  0.49964000  0.07486000  1
  C  C99  1  0.08751000  0.46501000  0.32511000  1
  O  O100  1  0.89879000  0.84157000  0.53690000  1
  O  O101  1  0.76512000  0.81299000  0.48179000  1
  O  O102  1  0.13350000  0.45167000  0.53675000  1
  O  O103  1  0.14313000  0.60230000  0.55564000  1
  O  O104  1  0.38227000  0.56551000  0.83802000  1
  O  O105  1  0.53675000  0.40014000  0.87151000  1
  O  O106  1  0.95243000  0.21925000  0.59721000  1
  O  O107  1  0.73963000  0.15713000  0.96770000  1
  O  O108  1  0.57250000  0.19066000  0.01411000  1
  O  O109  1  0.58598000  0.54748000  0.96279000  1
  O  O110  1  0.74214000  0.39663000  0.93624000  1
  O  O111  1  0.94884000  0.43496000  0.66188000  1
  O  O112  1  0.93826000  0.60038000  0.62811000  1
  O  O113  1  0.17315000  0.77695000  0.90291000  1
  O  O114  1  0.10121000  0.15843000  0.46310000  1
  O  O115  1  0.23488000  0.18701000  0.51821000  1
  O  O116  1  0.86651000  0.54833000  0.46325000  1
  O  O117  1  0.85687000  0.39770000  0.44436000  1
  O  O118  1  0.61774000  0.43449000  0.16198000  1
  O  O119  1  0.46326000  0.59986000  0.12850000  1
  O  O120  1  0.04757000  0.78075000  0.40280000  1
  O  O121  1  0.26038000  0.84287000  0.03231000  1
  O  O122  1  0.42750000  0.80934000  0.98589000  1
  O  O123  1  0.41402000  0.45252000  0.03721000  1
  O  O124  1  0.25787000  0.60337000  0.06376000  1
  O  O125  1  0.05116000  0.56504000  0.33812000  1
  O  O126  1  0.06175000  0.39962000  0.37190000  1
  O  O127  1  0.82686000  0.22305000  0.09709000  1
