# generated using pymatgen
data_CdH2C2N3Cl
_symmetry_space_group_name_H-M   'P 1'
_cell_length_a   8.58251000
_cell_length_b   8.58226000
_cell_length_c   15.88929000
_cell_angle_alpha   89.97710000
_cell_angle_beta   89.97736000
_cell_angle_gamma   89.50213000
_symmetry_Int_Tables_number   1
_chemical_formula_structural   CdH2C2N3Cl
_chemical_formula_sum   'Cd6 H12 C12 N18 Cl6'
_cell_volume   1170.31834490
_cell_formula_units_Z   6
loop_
 _symmetry_equiv_pos_site_id
 _symmetry_equiv_pos_as_xyz
  1  'x, y, z'
loop_
 _atom_site_type_symbol
 _atom_site_label
 _atom_site_symmetry_multiplicity
 _atom_site_fract_x
 _atom_site_fract_y
 _atom_site_fract_z
 _atom_site_occupancy
  Cd  Cd0  1  0.05770000  0.05769000  0.67794000  1
  Cd  Cd1  1  0.65429000  0.65428000  0.81307000  1
  Cd  Cd2  1  0.35834000  0.35834000  0.72732000  1
  Cd  Cd3  1  0.94233000  0.94233000  0.17776000  1
  Cd  Cd4  1  0.34579000  0.34579000  0.31318000  1
  Cd  Cd5  1  0.64160000  0.64159000  0.22725000  1
  H  H6  1  0.29261000  0.74254000  0.74371000  1
  H  H7  1  0.62203000  0.07302000  0.81809000  1
  H  H8  1  0.70774000  0.25727000  0.24406000  1
  H  H9  1  0.37781000  0.92689000  0.31818000  1
  H  H10  1  0.25723000  0.70775000  0.24406000  1
  H  H11  1  0.92690000  0.37774000  0.31817000  1
  H  H12  1  0.74259000  0.29259000  0.74371000  1
  H  H13  1  0.07301000  0.62208000  0.81808000  1
  H  H14  1  0.42354000  0.42357000  0.51378000  1
  H  H15  1  0.09061000  0.09058000  0.44478000  1
  H  H16  1  0.57661000  0.57658000  0.01372000  1
  H  H17  1  0.90961000  0.90964000  0.94452000  1
  C  C18  1  0.34962000  0.85195000  0.75667000  1
  C  C19  1  0.51784000  0.01932000  0.79360000  1
  C  C20  1  0.65042000  0.14793000  0.25682000  1
  C  C21  1  0.48204000  0.98054000  0.29364000  1
  C  C22  1  0.14790000  0.65039000  0.25682000  1
  C  C23  1  0.98051000  0.48201000  0.29363000  1
  C  C24  1  0.85198000  0.34964000  0.75668000  1
  C  C25  1  0.01935000  0.51787000  0.79359000  1
  C  C26  1  0.33458000  0.33459000  0.51650000  1
  C  C27  1  0.16567000  0.16565000  0.48137000  1
  C  C28  1  0.66560000  0.66558000  0.01641000  1
  C  C29  1  0.83450000  0.83451000  0.98112000  1
  N  N30  1  0.28991000  0.99128000  0.73695000  1
  N  N31  1  0.39858000  0.09967000  0.76082000  1
  N  N32  1  0.49209000  0.86378000  0.79221000  1
  N  N33  1  0.71000000  0.00865000  0.23689000  1
  N  N34  1  0.60111000  0.90025000  0.26057000  1
  N  N35  1  0.50798000  0.13604000  0.29246000  1
  N  N36  1  0.00863000  0.70998000  0.23689000  1
  N  N37  1  0.90023000  0.60108000  0.26056000  1
  N  N38  1  0.13601000  0.50794000  0.29245000  1
  N  N39  1  0.99130000  0.28992000  0.73695000  1
  N  N40  1  0.09970000  0.39860000  0.76081000  1
  N  N41  1  0.86382000  0.49211000  0.79221000  1
  N  N42  1  0.27807000  0.27807000  0.58825000  1
  N  N43  1  0.16866000  0.16864000  0.56553000  1
  N  N44  1  0.26788000  0.26787000  0.44799000  1
  N  N45  1  0.72209000  0.72208000  0.08810000  1
  N  N46  1  0.83151000  0.83152000  0.06529000  1
  N  N47  1  0.73229000  0.73229000  0.94782000  1
  Cl  Cl48  1  0.86204000  0.86210000  0.70274000  1
  Cl  Cl49  1  0.54659000  0.54657000  0.65899000  1
  Cl  Cl50  1  0.45505000  0.45499000  0.87606000  1
  Cl  Cl51  1  0.13790000  0.13783000  0.20298000  1
  Cl  Cl52  1  0.45325000  0.45327000  0.15920000  1
  Cl  Cl53  1  0.54501000  0.54507000  0.37611000  1
