# generated using pymatgen
data_H19(C11N2)2
_symmetry_space_group_name_H-M   'P 1'
_cell_length_a   20.33610000
_cell_length_b   20.33610000
_cell_length_c   31.53370000
_cell_angle_alpha   90.00000000
_cell_angle_beta   90.00000000
_cell_angle_gamma   120.00000000
_symmetry_Int_Tables_number   1
_chemical_formula_structural   H19(C11N2)2
_chemical_formula_sum   'H114 C132 N24'
_cell_volume   11293.82101881
_cell_formula_units_Z   6
loop_
 _symmetry_equiv_pos_site_id
 _symmetry_equiv_pos_as_xyz
  1  'x, y, z'
loop_
 _atom_site_type_symbol
 _atom_site_label
 _atom_site_symmetry_multiplicity
 _atom_site_fract_x
 _atom_site_fract_y
 _atom_site_fract_z
 _atom_site_occupancy
  C  1  1  0.41410350  0.46159750  0.98161650  1
  C  2  1  0.41823450  0.52461150  0.95942400  1
  C  3  1  0.41587400  0.52411900  0.91438900  1
  C  4  1  0.41681850  0.46454650  0.89214350  1
  C  5  1  0.41666350  0.40365250  0.91347700  1
  C  6  1  0.40954850  0.39937450  0.95836750  1
  C  7  1  0.42264750  0.58555050  0.98313000  1
  C  8  1  0.39532550  0.33353750  0.98083750  1
  C  10  1  0.41192200  0.45954200  0.02694000  1
  C  11  1  0.41365100  0.52045900  0.05016150  1
  C  12  1  0.40339150  0.51415950  0.09490350  1
  C  13  1  0.40551150  0.45440550  0.11627450  1
  C  14  1  0.40972800  0.39641900  0.09417150  1
  C  15  1  0.40520750  0.39535150  0.04909250  1
  C  16  1  0.42141400  0.58389000  0.02753000  1
  C  18  1  0.39226600  0.33130700  0.02513600  1
  C  31  1  0.88782950  0.42205350  0.31999150  1
  C  32  1  0.94646450  0.41858850  0.29704650  1
  C  33  1  0.94858200  0.42347300  0.25204350  1
  C  34  1  0.88662000  0.42073800  0.23051300  1
  C  35  1  0.82546350  0.41890250  0.25253350  1
  C  36  1  0.82748700  0.42292800  0.29753600  1
  C  37  1  0.00136150  0.41024850  0.32006250  1
  C  38  1  0.77090400  0.42776500  0.32096200  1
  C  40  1  0.89040550  0.42622650  0.36528300  1
  C  41  1  0.95189300  0.42697100  0.38737600  1
  C  42  1  0.96165150  0.44375150  0.43139450  1
  C  43  1  0.90514350  0.45011250  0.45360550  1
  C  44  1  0.84045200  0.44325100  0.43311350  1
  C  45  1  0.83425700  0.43405200  0.38829000  1
  C  46  1  0.00389150  0.41415650  0.36433950  1
  C  48  1  0.77520400  0.43487200  0.36520650  1
  C  61  1  0.42443300  0.95640400  0.64447150  1
  C  62  1  0.36084000  0.89777700  0.62257550  1
  C  63  1  0.36168650  0.89405550  0.57758400  1
  C  64  1  0.42041100  0.95461900  0.55495450  1
  C  65  1  0.48114550  0.01608650  0.57590800  1
  C  66  1  0.48524050  0.01521250  0.62089500  1
  C  67  1  0.29690350  0.84640050  0.64646900  1
  C  68  1  0.54738200  0.07297300  0.64328000  1
  C  70  1  0.42551200  0.95795600  0.68982750  1
  C  71  1  0.36286300  0.90131000  0.71341150  1
  C  72  1  0.36622950  0.90064250  0.75851350  1
  C  73  1  0.42577700  0.96377500  0.77917850  1
  C  74  1  0.48450250  0.02421650  0.75644850  1
  C  75  1  0.48777350  0.01829150  0.71165550  1
  C  76  1  0.29756750  0.84891650  0.69078700  1
  C  78  1  0.54927550  0.07350550  0.68765150  1
  C  91  1  0.50514350  0.30077650  0.86180800  1
  C  92  1  0.52443700  0.32646000  0.81952000  1
  C  93  1  0.53509200  0.28147600  0.78887750  1
  C  94  1  0.52619200  0.20976200  0.79991350  1
  C  95  1  0.50643200  0.18445200  0.84218700  1
  C  96  1  0.49640650  0.22931950  0.87259600  1
  C  98  1  0.56506500  0.37862900  0.73663900  1
  C  99  1  0.55593050  0.42393550  0.76751050  1
  C  103  1  0.58860500  0.40449700  0.69242900  1
  C  104  1  0.58301650  0.47549650  0.68009950  1
  C  107  1  0.61192750  0.53502350  0.71624850  1
  C  110  1  0.56756200  0.50042800  0.75804050  1
  C  115  1  0.53484850  0.16270550  0.76662200  1
  C  118  1  0.49593050  0.34845150  0.89443550  1
  C  121  1  0.68595900  0.44134900  0.18440500  1
  C  122  1  0.68064300  0.39869600  0.14776500  1
  C  123  1  0.61235200  0.36212300  0.12390300  1
  C  124  1  0.54880950  0.36963350  0.13527200  1
  C  125  1  0.55567700  0.41468200  0.17094350  1
  C  126  1  0.62291250  0.44959650  0.19515400  1
  C  128  1  0.66817450  0.30833250  0.07829200  1
  C  129  1  0.73571500  0.34397100  0.10252750  1
  C  133  1  0.65789900  0.25843800  0.04162900  1
  C  134  1  0.73295100  0.26458800  0.02550550  1
  C  137  1  0.78408150  0.26792650  0.06280700  1
  C  140  1  0.80234950  0.33526150  0.09301350  1
  C  145  1  0.47519800  0.32327100  0.11271500  1
  C  148  1  0.75309150  0.46972450  0.21317750  1
  C  151  1  0.63761350  0.17314550  0.51172600  1
  C  152  1  0.60181400  0.18520900  0.47643200  1
  C  153  1  0.62890700  0.25941200  0.45986250  1
  C  154  1  0.69257000  0.32306100  0.47837250  1
  C  155  1  0.72959250  0.30996050  0.51251850  1
  C  156  1  0.70300800  0.23641700  0.52870150  1
  C  158  1  0.52498300  0.20887100  0.41032200  1
  C  159  1  0.49716800  0.13548400  0.42764000  1
  C  163  1  0.48499950  0.22503450  0.37614900  1
  C  164  1  0.42158300  0.15282000  0.35400300  1
  C  167  1  0.37458150  0.08916750  0.38645350  1
  C  170  1  0.42613150  0.06835950  0.41278600  1
  C  175  1  0.71247700  0.40276400  0.46839600  1
  C  178  1  0.60087150  0.09859950  0.53449200  1
  C  181  1  0.42517550  0.68075650  0.84595550  1
  C  182  1  0.37760000  0.64056800  0.81130700  1
  C  183  1  0.33637700  0.66950300  0.78944400  1
  C  184  1  0.34394800  0.74064000  0.80070200  1
  C  185  1  0.39296800  0.78111500  0.83464700  1
  C  186  1  0.43286000  0.75178100  0.85678750  1
  C  188  1  0.27701250  0.55638650  0.74658900  1
  C  189  1  0.31736150  0.52732250  0.76884150  1
  C  193  1  0.22152750  0.51333050  0.71264000  1
  C  194  1  0.22605650  0.44365550  0.69627850  1
  C  197  1  0.23635000  0.39947300  0.73325700  1
  C  200  1  0.30820100  0.45163800  0.75982100  1
  C  205  1  0.29127100  0.76401800  0.78205600  1
  C  208  1  0.45897600  0.64502000  0.87318300  1
  C  211  1  0.14046250  0.52134350  0.19993900  1
  C  212  1  0.13704300  0.54618800  0.15850700  1
  C  213  1  0.19499800  0.56111400  0.12851850  1
  C  214  1  0.25723050  0.55105850  0.13925200  1
  C  215  1  0.25976450  0.52566250  0.18060250  1
  C  216  1  0.20260100  0.51139800  0.21039950  1
  C  218  1  0.13163350  0.59801750  0.07746250  1
  C  219  1  0.07489050  0.58467250  0.10771700  1
  C  223  1  0.13260250  0.62745650  0.03432150  1
  C  224  1  0.05695900  0.62355200  0.02155850  1
  C  227  1  0.02363250  0.64754650  0.05868250  1
  C  230  1  0.01080400  0.59768500  0.09854300  1
  C  235  1  0.31547450  0.56451550  0.10649000  1
  C  238  1  0.08207150  0.50877550  0.23242650  1
  C  241  1  0.25397350  0.70171350  0.52782600  1
  C  242  1  0.27445800  0.70550100  0.48466100  1
  C  243  1  0.22463850  0.64952350  0.45547350  1
  C  244  1  0.15321050  0.58901550  0.46892900  1
  C  245  1  0.13322000  0.58610500  0.51210000  1
  C  246  1  0.18282200  0.64129800  0.54102500  1
  C  248  1  0.31634500  0.71199100  0.39998050  1
  C  249  1  0.36639600  0.76677400  0.42937900  1
  C  253  1  0.33676000  0.71158400  0.35488450  1
  C  254  1  0.40802750  0.78617150  0.34033300  1
  C  257  1  0.47144700  0.81624500  0.37434300  1
  C  260  1  0.44272450  0.82937450  0.41738400  1
  C  265  1  0.10040600  0.53322400  0.43728500  1
  C  268  1  0.30590200  0.75961800  0.55881400  1
  H  9  1  0.41607650  0.46472950  0.85966050  1
  H  17  1  0.40070800  0.45134000  0.14864000  1
  H  19  1  0.42636050  0.63021550  0.04303250  1
  H  20  1  0.42738000  0.63254500  0.96847300  1
  H  21  1  0.37972800  0.28135100  0.03950750  1
  H  22  1  0.38521200  0.28523300  0.96536650  1
  H  24  1  0.37760500  0.29741700  0.89115950  1
  H  26  1  0.36039850  0.29003450  0.11543150  1
  H  28  1  0.43079800  0.61391200  0.12260450  1
  H  30  1  0.35479200  0.57679100  0.90436600  1
  H  39  1  0.88614950  0.42036150  0.19802700  1
  H  47  1  0.91309400  0.46351400  0.48522400  1
  H  49  1  0.04518150  0.40836950  0.37936750  1
  H  50  1  0.04101050  0.40178150  0.30502700  1
  H  51  1  0.73524100  0.44291700  0.37992900  1
  H  52  1  0.72715950  0.42949850  0.30610300  1
  H  54  1  0.71237850  0.36177150  0.24080500  1
  H  56  1  0.79849800  0.51000400  0.45065650  1
  H  58  1  0.03797850  0.41996950  0.45781200  1
  H  60  1  0.02084050  0.39000750  0.23051150  1
  H  69  1  0.41784150  0.95491450  0.52250950  1
  H  77  1  0.42453150  0.96747750  0.81153550  1
  H  79  1  0.24830900  0.81261800  0.70609250  1
  H  80  1  0.24760050  0.80762650  0.63204300  1
  H  81  1  0.59651600  0.11566200  0.70208150  1
  H  82  1  0.59265100  0.11563500  0.62770000  1
  H  84  1  0.52726800  0.12826500  0.56514500  1
  H  86  1  0.58618300  0.09816700  0.78177750  1
  H  88  1  0.26072200  0.84740400  0.78143000  1
  H  90  1  0.25384300  0.82615100  0.55798100  1
  H  101  1  0.48209500  0.20894900  0.90286800  1
  H  102  1  0.49865550  0.13280350  0.85131300  1
  H  105  1  0.55307050  0.35841250  0.67064800  1
  H  106  1  0.64721100  0.41715900  0.68855450  1
  H  108  1  0.52381250  0.45819250  0.67318800  1
  H  109  1  0.61619150  0.50102050  0.65137300  1
  H  111  1  0.60578650  0.58344750  0.70692700  1
  H  112  1  0.67235300  0.55569300  0.72151050  1
  H  113  1  0.51187200  0.49612800  0.75618150  1
  H  114  1  0.59891700  0.53898300  0.78406950  1
  H  116  1  0.58940650  0.19869550  0.75099250  1
  H  117  1  0.49032000  0.15039900  0.74324550  1
  H  119  1  0.54482700  0.40600200  0.89263550  1
  H  120  1  0.49722500  0.32743400  0.92609200  1
  H  131  1  0.62425050  0.47867650  0.22191550  1
  H  132  1  0.51033750  0.41921450  0.18103500  1
  H  135  1  0.63204500  0.27272300  0.01545100  1
  H  136  1  0.61853150  0.19985350  0.05105250  1
  H  138  1  0.76393400  0.31600000  0.00631300  1
  H  139  1  0.71989950  0.21588550  0.00529350  1
  H  141  1  0.83695700  0.27376000  0.05045100  1
  H  142  1  0.75490950  0.21461950  0.08057500  1
  H  143  1  0.84625400  0.38815400  0.07880350  1
  H  144  1  0.82494700  0.32646900  0.12258850  1
  H  146  1  0.45486500  0.26451400  0.12240650  1
  H  147  1  0.48819300  0.32630900  0.07903050  1
  H  149  1  0.74785350  0.50000850  0.24041800  1
  H  150  1  0.80382300  0.50972500  0.19557550  1
  H  161  1  0.72870850  0.23034650  0.55511600  1
  H  162  1  0.77377450  0.35478350  0.52766900  1
  H  165  1  0.52621150  0.26083950  0.35215050  1
  H  166  1  0.46022100  0.25703200  0.38996400  1
  H  168  1  0.44734900  0.13186100  0.33117950  1
  H  169  1  0.38409650  0.16721150  0.33649600  1
  H  171  1  0.33154150  0.03877750  0.36981750  1
  H  172  1  0.34523150  0.10845650  0.40781650  1
  H  173  1  0.44143050  0.03319450  0.39365400  1
  H  174  1  0.39369900  0.03478300  0.44014850  1
  H  176  1  0.69705100  0.42390300  0.49634700  1
  H  177  1  0.67729350  0.40435250  0.44282500  1
  H  179  1  0.63645550  0.09856850  0.56043700  1
  H  180  1  0.59319700  0.05394900  0.51236350  1
  H  191  1  0.46510050  0.78137550  0.88233550  1
  H  192  1  0.39706750  0.83062150  0.84509100  1
  H  195  1  0.23095000  0.55114000  0.68583750  1
  H  196  1  0.16458950  0.49429950  0.72502550  1
  H  198  1  0.27413350  0.46295550  0.67450250  1
  H  199  1  0.17438300  0.40591600  0.67868700  1
  H  201  1  0.24085050  0.35180750  0.72066300  1
  H  202  1  0.18620250  0.37636250  0.75372200  1
  H  203  1  0.35875250  0.46004650  0.74291200  1
  H  204  1  0.30481350  0.42290150  0.78972350  1
  H  206  1  0.23678050  0.72904250  0.79795350  1
  H  207  1  0.28242050  0.74691450  0.74890650  1
  H  209  1  0.49199000  0.68225700  0.89930900  1
  H  210  1  0.49749450  0.63470750  0.85382100  1
  H  221  1  0.20668600  0.49332200  0.24005650  1
  H  222  1  0.30317000  0.51696600  0.18949000  1
  H  225  1  0.14483850  0.59494950  0.01119950  1
  H  226  1  0.17874250  0.68641850  0.03297200  1
  H  228  1  0.01566400  0.56543800  0.01215300  1
  H  229  1  0.06669950  0.66048550  0.99427450  1
  H  231  1  0.96979300  0.64271400  0.04897400  1
  H  232  1  0.06292550  0.70709450  0.06648650  1
  H  233  1  0.95958850  0.54244350  0.09429350  1
  H  234  1  0.00169450  0.62551150  0.12574200  1
  H  236  1  0.33497450  0.62105350  0.09322950  1
  H  237  1  0.28502100  0.52340200  0.08123400  1
  H  239  1  0.06939650  0.55502750  0.23042250  1
  H  240  1  0.10547450  0.51259650  0.26407200  1
  H  251  1  0.16601300  0.63739500  0.57195150  1
  H  252  1  0.08185050  0.54420950  0.52298100  1
  H  255  1  0.28892250  0.70204050  0.33483550  1
  H  256  1  0.34664650  0.66395150  0.35025550  1
  H  258  1  0.39221950  0.82945250  0.33429350  1
  H  259  1  0.42941400  0.77610500  0.31067250  1
  H  261  1  0.52002750  0.86946250  0.36351800  1
  H  262  1  0.49047400  0.77495400  0.37862250  1
  H  263  1  0.44040850  0.88188250  0.41592500  1
  H  264  1  0.48359750  0.83619550  0.44195300  1
  H  266  1  0.13245550  0.51267950  0.41922150  1
  H  267  1  0.08550450  0.56556150  0.41540550  1
  H  269  1  0.36313050  0.76841250  0.55440750  1
  H  270  1  0.28915600  0.73836900  0.59109150  1
  N  23  1  0.42437200  0.35047000  0.88780850  1
  N  25  1  0.41148150  0.33916050  0.11939050  1
  N  27  1  0.38422700  0.56054500  0.11986450  1
  N  29  1  0.39774100  0.57181300  0.89033950  1
  N  53  1  0.76150350  0.40487250  0.22789000  1
  N  55  1  0.79334000  0.45895300  0.45937400  1
  N  57  1  0.03010050  0.46569950  0.45401900  1
  N  59  1  0.01097250  0.43442050  0.22649800  1
  N  83  1  0.52556050  0.08183450  0.55103450  1
  N  85  1  0.53250100  0.09086700  0.78020200  1
  N  87  1  0.30950600  0.84480400  0.78538950  1
  N  89  1  0.30667100  0.83270800  0.55296100  1
  N  97  1  0.55494450  0.31016850  0.74893150  1
  N  100  1  0.53533600  0.39536100  0.80727050  1
  N  127  1  0.60979000  0.31842000  0.09049900  1
  N  130  1  0.73873450  0.38764850  0.13583000  1
  N  157  1  0.58854100  0.26711100  0.42773650  1
  N  160  1  0.53715000  0.12721300  0.45958200  1
  N  187  1  0.28782500  0.62532100  0.75836250  1
  N  190  1  0.36585600  0.57095900  0.79985500  1
  N  217  1  0.18909350  0.58633050  0.08948300  1
  N  220  1  0.07992450  0.55869450  0.14654700  1
  N  247  1  0.24842000  0.65583300  0.41453450  1
  N  250  1  0.34272400  0.76133500  0.47011950  1
