# generated using pymatgen
data_Zn4H26C44O13
_symmetry_space_group_name_H-M   'P 1'
_cell_length_a   16.74800000
_cell_length_b   24.51800000
_cell_length_c   33.29100000
_cell_angle_alpha   90.00000000
_cell_angle_beta   90.00000000
_cell_angle_gamma   90.00000000
_symmetry_Int_Tables_number   1
_chemical_formula_structural   Zn4H26C44O13
_chemical_formula_sum   'Zn32 H208 C352 O104'
_cell_volume   13670.19890402
_cell_formula_units_Z   8
loop_
 _symmetry_equiv_pos_site_id
 _symmetry_equiv_pos_as_xyz
  1  'x, y, z'
loop_
 _atom_site_type_symbol
 _atom_site_label
 _atom_site_symmetry_multiplicity
 _atom_site_fract_x
 _atom_site_fract_y
 _atom_site_fract_z
 _atom_site_occupancy
  Zn  Zn1  1  0.89737000  0.77535000  0.84927000  1.0
  Zn  Zn2  1  0.04382000  0.28041000  0.07038000  1.0
  Zn  Zn3  1  0.04327000  0.69441000  0.84771000  1.0
  Zn  Zn4  1  0.93186000  0.19073000  0.11370000  1.0
  Zn  Zn5  1  0.39737000  0.72465000  0.65073000  1.0
  Zn  Zn6  1  0.54382000  0.21959000  0.42962000  1.0
  Zn  Zn7  1  0.54327000  0.80559000  0.65229000  1.0
  Zn  Zn8  1  0.43186000  0.30927000  0.38630000  1.0
  Zn  Zn9  1  0.60263000  0.77535000  0.15073000  1.0
  Zn  Zn10  1  0.45618000  0.28041000  0.92962000  1.0
  Zn  Zn11  1  0.45673000  0.69441000  0.15229000  1.0
  Zn  Zn12  1  0.56814000  0.19073000  0.88630000  1.0
  Zn  Zn13  1  0.10263000  0.72465000  0.34927000  1.0
  Zn  Zn14  1  0.95618000  0.21959000  0.57038000  1.0
  Zn  Zn15  1  0.95673000  0.80559000  0.34771000  1.0
  Zn  Zn16  1  0.06814000  0.30927000  0.61370000  1.0
  Zn  Zn17  1  0.10263000  0.22465000  0.15073000  1.0
  Zn  Zn18  1  0.95618000  0.71959000  0.92962000  1.0
  Zn  Zn19  1  0.95673000  0.30559000  0.15229000  1.0
  Zn  Zn20  1  0.06814000  0.80927000  0.88630000  1.0
  Zn  Zn21  1  0.60263000  0.27535000  0.34927000  1.0
  Zn  Zn22  1  0.45618000  0.78041000  0.57038000  1.0
  Zn  Zn23  1  0.45673000  0.19441000  0.34771000  1.0
  Zn  Zn24  1  0.56814000  0.69073000  0.61370000  1.0
  Zn  Zn25  1  0.39737000  0.22465000  0.84927000  1.0
  Zn  Zn26  1  0.54382000  0.71959000  0.07038000  1.0
  Zn  Zn27  1  0.54327000  0.30559000  0.84771000  1.0
  Zn  Zn28  1  0.43186000  0.80927000  0.11370000  1.0
  Zn  Zn29  1  0.89737000  0.27535000  0.65073000  1.0
  Zn  Zn30  1  0.04382000  0.78041000  0.42962000  1.0
  Zn  Zn31  1  0.04327000  0.19441000  0.65229000  1.0
  Zn  Zn32  1  0.93186000  0.69073000  0.38630000  1.0
  H  H1  1  0.83270000  0.14700000  0.00610000  1.0
  H  H2  1  0.78770000  0.11140000  0.94560000  1.0
  H  H3  1  0.97500000  0.17900000  0.88890000  1.0
  H  H4  1  0.02000000  0.21450000  0.94940000  1.0
  H  H5  1  0.78290000  0.11830000  0.87470000  1.0
  H  H6  1  0.76280000  0.03190000  0.84180000  1.0
  H  H7  1  0.79290000  0.93970000  0.83710000  1.0
  H  H8  1  0.99490000  0.96460000  0.89960000  1.0
  H  H9  1  0.96490000  0.05680000  0.90430000  1.0
  H  H10  1  0.96850000  0.09390000  0.82290000  1.0
  H  H11  1  0.78500000  0.19790000  0.83270000  1.0
  H  H12  1  0.74050000  0.66360000  0.96670000  1.0
  H  H13  1  0.61770000  0.62460000  0.98130000  1.0
  H  H14  1  0.52700000  0.68760000  0.87960000  1.0
  H  H15  1  0.64990000  0.72660000  0.86500000  1.0
  H  H16  1  0.47530000  0.62450000  0.97210000  1.0
  H  H17  1  0.40760000  0.60590000  0.87230000  1.0
  H  H18  1  0.38830000  0.70150000  0.96920000  1.0
  H  H19  1  0.00620000  0.13380000  0.76660000  1.0
  H  H20  1  0.82550000  0.23850000  0.77280000  1.0
  H  H21  1  0.29010000  0.64120000  0.84670000  1.0
  H  H22  1  0.27850000  0.74110000  0.94150000  1.0
  H  H23  1  0.56030000  0.47440000  0.86810000  1.0
  H  H24  1  0.55820000  0.56660000  0.88400000  1.0
  H  H25  1  0.42260000  0.53650000  0.97940000  1.0
  H  H26  1  0.42770000  0.44440000  0.96530000  1.0
  H  H27  1  0.33270000  0.35300000  0.49390000  1.0
  H  H28  1  0.28770000  0.38860000  0.55440000  1.0
  H  H29  1  0.47500000  0.32100000  0.61110000  1.0
  H  H30  1  0.52000000  0.28550000  0.55060000  1.0
  H  H31  1  0.28290000  0.38170000  0.62530000  1.0
  H  H32  1  0.26280000  0.46810000  0.65820000  1.0
  H  H33  1  0.29290000  0.56030000  0.66290000  1.0
  H  H34  1  0.49490000  0.53540000  0.60040000  1.0
  H  H35  1  0.46490000  0.44320000  0.59570000  1.0
  H  H36  1  0.46850000  0.40610000  0.67710000  1.0
  H  H37  1  0.28500000  0.30210000  0.66730000  1.0
  H  H38  1  0.24050000  0.83640000  0.53330000  1.0
  H  H39  1  0.11770000  0.87540000  0.51870000  1.0
  H  H40  1  0.02700000  0.81240000  0.62040000  1.0
  H  H41  1  0.14990000  0.77340000  0.63500000  1.0
  H  H42  1  0.97530000  0.87550000  0.52790000  1.0
  H  H43  1  0.90760000  0.89410000  0.62770000  1.0
  H  H44  1  0.88830000  0.79850000  0.53080000  1.0
  H  H45  1  0.50620000  0.36620000  0.73340000  1.0
  H  H46  1  0.32550000  0.26150000  0.72720000  1.0
  H  H47  1  0.79010000  0.85880000  0.65330000  1.0
  H  H48  1  0.77850000  0.75890000  0.55850000  1.0
  H  H49  1  0.06030000  0.02560000  0.63190000  1.0
  H  H50  1  0.05820000  0.93340000  0.61600000  1.0
  H  H51  1  0.92260000  0.96350000  0.52060000  1.0
  H  H52  1  0.92770000  0.05560000  0.53470000  1.0
  H  H53  1  0.66730000  0.14700000  0.99390000  1.0
  H  H54  1  0.71230000  0.11140000  0.05440000  1.0
  H  H55  1  0.52500000  0.17900000  0.11110000  1.0
  H  H56  1  0.48000000  0.21450000  0.05060000  1.0
  H  H57  1  0.71710000  0.11830000  0.12530000  1.0
  H  H58  1  0.73720000  0.03190000  0.15820000  1.0
  H  H59  1  0.70710000  0.93970000  0.16290000  1.0
  H  H60  1  0.50510000  0.96460000  0.10040000  1.0
  H  H61  1  0.53510000  0.05680000  0.09570000  1.0
  H  H62  1  0.53150000  0.09390000  0.17710000  1.0
  H  H63  1  0.71500000  0.19790000  0.16730000  1.0
  H  H64  1  0.75950000  0.66360000  0.03330000  1.0
  H  H65  1  0.88230000  0.62460000  0.01870000  1.0
  H  H66  1  0.97300000  0.68760000  0.12040000  1.0
  H  H67  1  0.85010000  0.72660000  0.13500000  1.0
  H  H68  1  0.02470000  0.62450000  0.02790000  1.0
  H  H69  1  0.09240000  0.60590000  0.12770000  1.0
  H  H70  1  0.11170000  0.70150000  0.03080000  1.0
  H  H71  1  0.49380000  0.13380000  0.23340000  1.0
  H  H72  1  0.67450000  0.23850000  0.22720000  1.0
  H  H73  1  0.20990000  0.64120000  0.15330000  1.0
  H  H74  1  0.22150000  0.74110000  0.05850000  1.0
  H  H75  1  0.93970000  0.47440000  0.13190000  1.0
  H  H76  1  0.94180000  0.56660000  0.11600000  1.0
  H  H77  1  0.07740000  0.53650000  0.02060000  1.0
  H  H78  1  0.07230000  0.44440000  0.03470000  1.0
  H  H79  1  0.16730000  0.35300000  0.50610000  1.0
  H  H80  1  0.21230000  0.38860000  0.44560000  1.0
  H  H81  1  0.02500000  0.32100000  0.38890000  1.0
  H  H82  1  0.98000000  0.28550000  0.44940000  1.0
  H  H83  1  0.21710000  0.38170000  0.37470000  1.0
  H  H84  1  0.23720000  0.46810000  0.34180000  1.0
  H  H85  1  0.20710000  0.56030000  0.33710000  1.0
  H  H86  1  0.00510000  0.53540000  0.39960000  1.0
  H  H87  1  0.03510000  0.44320000  0.40430000  1.0
  H  H88  1  0.03150000  0.40610000  0.32290000  1.0
  H  H89  1  0.21500000  0.30210000  0.33270000  1.0
  H  H90  1  0.25950000  0.83640000  0.46670000  1.0
  H  H91  1  0.38230000  0.87540000  0.48130000  1.0
  H  H92  1  0.47300000  0.81240000  0.37960000  1.0
  H  H93  1  0.35010000  0.77340000  0.36500000  1.0
  H  H94  1  0.52470000  0.87550000  0.47210000  1.0
  H  H95  1  0.59240000  0.89410000  0.37230000  1.0
  H  H96  1  0.61170000  0.79850000  0.46920000  1.0
  H  H97  1  0.99380000  0.36620000  0.26660000  1.0
  H  H98  1  0.17450000  0.26150000  0.27280000  1.0
  H  H99  1  0.70990000  0.85880000  0.34670000  1.0
  H  H100  1  0.72150000  0.75890000  0.44150000  1.0
  H  H101  1  0.43970000  0.02560000  0.36810000  1.0
  H  H102  1  0.44180000  0.93340000  0.38400000  1.0
  H  H103  1  0.57740000  0.96350000  0.47940000  1.0
  H  H104  1  0.57230000  0.05560000  0.46530000  1.0
  H  H105  1  0.16730000  0.85300000  0.99390000  1.0
  H  H106  1  0.21230000  0.88860000  0.05440000  1.0
  H  H107  1  0.02500000  0.82100000  0.11110000  1.0
  H  H108  1  0.98000000  0.78550000  0.05060000  1.0
  H  H109  1  0.21710000  0.88170000  0.12530000  1.0
  H  H110  1  0.23720000  0.96810000  0.15820000  1.0
  H  H111  1  0.20710000  0.06030000  0.16290000  1.0
  H  H112  1  0.00510000  0.03540000  0.10040000  1.0
  H  H113  1  0.03510000  0.94320000  0.09570000  1.0
  H  H114  1  0.03150000  0.90610000  0.17710000  1.0
  H  H115  1  0.21500000  0.80210000  0.16730000  1.0
  H  H116  1  0.25950000  0.33640000  0.03330000  1.0
  H  H117  1  0.38230000  0.37540000  0.01870000  1.0
  H  H118  1  0.47300000  0.31240000  0.12040000  1.0
  H  H119  1  0.35010000  0.27340000  0.13500000  1.0
  H  H120  1  0.52470000  0.37550000  0.02790000  1.0
  H  H121  1  0.59240000  0.39410000  0.12770000  1.0
  H  H122  1  0.61170000  0.29850000  0.03080000  1.0
  H  H123  1  0.99380000  0.86620000  0.23340000  1.0
  H  H124  1  0.17450000  0.76150000  0.22720000  1.0
  H  H125  1  0.70990000  0.35880000  0.15330000  1.0
  H  H126  1  0.72150000  0.25890000  0.05850000  1.0
  H  H127  1  0.43970000  0.52560000  0.13190000  1.0
  H  H128  1  0.44180000  0.43340000  0.11600000  1.0
  H  H129  1  0.57740000  0.46350000  0.02060000  1.0
  H  H130  1  0.57230000  0.55560000  0.03470000  1.0
  H  H131  1  0.66730000  0.64700000  0.50610000  1.0
  H  H132  1  0.71230000  0.61140000  0.44560000  1.0
  H  H133  1  0.52500000  0.67900000  0.38890000  1.0
  H  H134  1  0.48000000  0.71450000  0.44940000  1.0
  H  H135  1  0.71710000  0.61830000  0.37470000  1.0
  H  H136  1  0.73720000  0.53190000  0.34180000  1.0
  H  H137  1  0.70710000  0.43970000  0.33710000  1.0
  H  H138  1  0.50510000  0.46460000  0.39960000  1.0
  H  H139  1  0.53510000  0.55680000  0.40430000  1.0
  H  H140  1  0.53150000  0.59390000  0.32290000  1.0
  H  H141  1  0.71500000  0.69790000  0.33270000  1.0
  H  H142  1  0.75950000  0.16360000  0.46670000  1.0
  H  H143  1  0.88230000  0.12460000  0.48130000  1.0
  H  H144  1  0.97300000  0.18760000  0.37960000  1.0
  H  H145  1  0.85010000  0.22660000  0.36500000  1.0
  H  H146  1  0.02470000  0.12450000  0.47210000  1.0
  H  H147  1  0.09240000  0.10590000  0.37230000  1.0
  H  H148  1  0.11170000  0.20150000  0.46920000  1.0
  H  H149  1  0.49380000  0.63380000  0.26660000  1.0
  H  H150  1  0.67450000  0.73850000  0.27280000  1.0
  H  H151  1  0.20990000  0.14120000  0.34670000  1.0
  H  H152  1  0.22150000  0.24110000  0.44150000  1.0
  H  H153  1  0.93970000  0.97440000  0.36810000  1.0
  H  H154  1  0.94180000  0.06660000  0.38400000  1.0
  H  H155  1  0.07740000  0.03650000  0.47940000  1.0
  H  H156  1  0.07230000  0.94440000  0.46530000  1.0
  H  H157  1  0.33270000  0.85300000  0.00610000  1.0
  H  H158  1  0.28770000  0.88860000  0.94560000  1.0
  H  H159  1  0.47500000  0.82100000  0.88890000  1.0
  H  H160  1  0.52000000  0.78550000  0.94940000  1.0
  H  H161  1  0.28290000  0.88170000  0.87470000  1.0
  H  H162  1  0.26280000  0.96810000  0.84180000  1.0
  H  H163  1  0.29290000  0.06030000  0.83710000  1.0
  H  H164  1  0.49490000  0.03540000  0.89960000  1.0
  H  H165  1  0.46490000  0.94320000  0.90430000  1.0
  H  H166  1  0.46850000  0.90610000  0.82290000  1.0
  H  H167  1  0.28500000  0.80210000  0.83270000  1.0
  H  H168  1  0.24050000  0.33640000  0.96670000  1.0
  H  H169  1  0.11770000  0.37540000  0.98130000  1.0
  H  H170  1  0.02700000  0.31240000  0.87960000  1.0
  H  H171  1  0.14990000  0.27340000  0.86500000  1.0
  H  H172  1  0.97530000  0.37550000  0.97210000  1.0
  H  H173  1  0.90760000  0.39410000  0.87230000  1.0
  H  H174  1  0.88830000  0.29850000  0.96920000  1.0
  H  H175  1  0.50620000  0.86620000  0.76660000  1.0
  H  H176  1  0.32550000  0.76150000  0.77280000  1.0
  H  H177  1  0.79010000  0.35880000  0.84670000  1.0
  H  H178  1  0.77850000  0.25890000  0.94150000  1.0
  H  H179  1  0.06030000  0.52560000  0.86810000  1.0
  H  H180  1  0.05820000  0.43340000  0.88400000  1.0
  H  H181  1  0.92260000  0.46350000  0.97940000  1.0
  H  H182  1  0.92770000  0.55560000  0.96530000  1.0
  H  H183  1  0.83270000  0.64700000  0.49390000  1.0
  H  H184  1  0.78770000  0.61140000  0.55440000  1.0
  H  H185  1  0.97500000  0.67900000  0.61110000  1.0
  H  H186  1  0.02000000  0.71450000  0.55060000  1.0
  H  H187  1  0.78290000  0.61830000  0.62530000  1.0
  H  H188  1  0.76280000  0.53190000  0.65820000  1.0
  H  H189  1  0.79290000  0.43970000  0.66290000  1.0
  H  H190  1  0.99490000  0.46460000  0.60040000  1.0
  H  H191  1  0.96490000  0.55680000  0.59570000  1.0
  H  H192  1  0.96850000  0.59390000  0.67710000  1.0
  H  H193  1  0.78500000  0.69790000  0.66730000  1.0
  H  H194  1  0.74050000  0.16360000  0.53330000  1.0
  H  H195  1  0.61770000  0.12460000  0.51870000  1.0
  H  H196  1  0.52700000  0.18760000  0.62040000  1.0
  H  H197  1  0.64990000  0.22660000  0.63500000  1.0
  H  H198  1  0.47530000  0.12450000  0.52790000  1.0
  H  H199  1  0.40760000  0.10590000  0.62770000  1.0
  H  H200  1  0.38830000  0.20150000  0.53080000  1.0
  H  H201  1  0.00620000  0.63380000  0.73340000  1.0
  H  H202  1  0.82550000  0.73850000  0.72720000  1.0
  H  H203  1  0.29010000  0.14120000  0.65330000  1.0
  H  H204  1  0.27850000  0.24110000  0.55850000  1.0
  H  H205  1  0.56030000  0.97440000  0.63190000  1.0
  H  H206  1  0.55820000  0.06660000  0.61600000  1.0
  H  H207  1  0.42260000  0.03650000  0.52060000  1.0
  H  H208  1  0.42770000  0.94440000  0.53470000  1.0
  C  C1  1  0.95950000  0.20652000  0.02234000  1.0
  C  C2  1  0.93081000  0.18427000  0.98373000  1.0
  C  C3  1  0.86124000  0.15339000  0.98261000  1.0
  C  C4  1  0.83428000  0.13211000  0.94637000  1.0
  C  C5  1  0.87689000  0.14170000  0.91124000  1.0
  C  C6  1  0.94646000  0.17258000  0.91236000  1.0
  C  C7  1  0.97342000  0.19387000  0.94860000  1.0
  C  C8  1  0.84110000  0.11406000  0.87393000  1.0
  C  C9  1  0.86088000  0.05344000  0.87353000  1.0
  C  C10  1  0.80936000  0.01837000  0.85341000  1.0
  C  C11  1  0.82737000  0.96316000  0.85061000  1.0
  C  C12  1  0.89689000  0.94302000  0.86792000  1.0
  C  C13  1  0.94841000  0.97808000  0.88804000  1.0
  C  C14  1  0.93040000  0.03329000  0.89084000  1.0
  C  C15  1  0.87290000  0.14157000  0.83523000  1.0
  C  C16  1  0.93890000  0.12310000  0.81320000  1.0
  C  C17  1  0.82970000  0.18460000  0.81921000  1.0
  C  C18  1  0.78670000  0.72197000  0.90522000  1.0
  C  C19  1  0.70736000  0.69899000  0.91441000  1.0
  C  C20  1  0.69772000  0.66844000  0.94925000  1.0
  C  C21  1  0.62413000  0.64506000  0.95799000  1.0
  C  C22  1  0.56019000  0.65224000  0.93191000  1.0
  C  C23  1  0.56982000  0.68279000  0.89707000  1.0
  C  C24  1  0.64341000  0.70617000  0.88832000  1.0
  C  C25  1  0.48150000  0.62218000  0.94287000  1.0
  C  C26  1  0.40900000  0.64824000  0.92433000  1.0
  C  C27  1  0.37980000  0.63200000  0.88691000  1.0
  C  C28  1  0.36950000  0.68947000  0.94442000  1.0
  C  C29  1  0.93700000  0.20850000  0.72119000  1.0
  C  C30  1  0.91670000  0.18767000  0.76077000  1.0
  C  C31  1  0.95990000  0.14600000  0.77915000  1.0
  C  C32  1  0.85310000  0.20840000  0.78256000  1.0
  C  C33  1  0.19250000  0.71720000  0.87689000  1.0
  C  C34  1  0.27080000  0.69509000  0.89187000  1.0
  C  C35  1  0.31020000  0.65390000  0.87104000  1.0
  C  C36  1  0.30310000  0.71250000  0.92799000  1.0
  C  C37  1  0.91800000  0.88323000  0.86599000  1.0
  C  C38  1  0.50070000  0.39043000  0.90868000  1.0
  C  C39  1  0.49490000  0.44958000  0.91578000  1.0
  C  C40  1  0.53310000  0.48648000  0.89080000  1.0
  C  C41  1  0.53040000  0.54202000  0.90009000  1.0
  C  C42  1  0.48840000  0.56108000  0.93199000  1.0
  C  C43  1  0.45040000  0.52420000  0.95696000  1.0
  C  C44  1  0.45380000  0.46889000  0.94849000  1.0
  C  C45  1  0.45950000  0.29348000  0.47766000  1.0
  C  C46  1  0.43081000  0.31573000  0.51627000  1.0
  C  C47  1  0.36124000  0.34661000  0.51739000  1.0
  C  C48  1  0.33428000  0.36789000  0.55363000  1.0
  C  C49  1  0.37689000  0.35830000  0.58876000  1.0
  C  C50  1  0.44646000  0.32742000  0.58764000  1.0
  C  C51  1  0.47342000  0.30613000  0.55140000  1.0
  C  C52  1  0.34110000  0.38594000  0.62607000  1.0
  C  C53  1  0.36088000  0.44656000  0.62647000  1.0
  C  C54  1  0.30936000  0.48163000  0.64659000  1.0
  C  C55  1  0.32737000  0.53684000  0.64939000  1.0
  C  C56  1  0.39689000  0.55698000  0.63208000  1.0
  C  C57  1  0.44841000  0.52192000  0.61196000  1.0
  C  C58  1  0.43040000  0.46671000  0.60916000  1.0
  C  C59  1  0.37290000  0.35843000  0.66477000  1.0
  C  C60  1  0.43890000  0.37690000  0.68680000  1.0
  C  C61  1  0.32970000  0.31540000  0.68079000  1.0
  C  C62  1  0.28670000  0.77803000  0.59478000  1.0
  C  C63  1  0.20736000  0.80101000  0.58559000  1.0
  C  C64  1  0.19772000  0.83156000  0.55075000  1.0
  C  C65  1  0.12413000  0.85494000  0.54201000  1.0
  C  C66  1  0.06019000  0.84776000  0.56809000  1.0
  C  C67  1  0.06982000  0.81721000  0.60293000  1.0
  C  C68  1  0.14341000  0.79383000  0.61168000  1.0
  C  C69  1  0.98150000  0.87782000  0.55713000  1.0
  C  C70  1  0.90900000  0.85176000  0.57567000  1.0
  C  C71  1  0.87980000  0.86800000  0.61309000  1.0
  C  C72  1  0.86950000  0.81053000  0.55558000  1.0
  C  C73  1  0.43700000  0.29150000  0.77881000  1.0
  C  C74  1  0.41670000  0.31233000  0.73923000  1.0
  C  C75  1  0.45990000  0.35400000  0.72085000  1.0
  C  C76  1  0.35310000  0.29160000  0.71744000  1.0
  C  C77  1  0.69250000  0.78280000  0.62311000  1.0
  C  C78  1  0.77080000  0.80491000  0.60813000  1.0
  C  C79  1  0.81020000  0.84610000  0.62896000  1.0
  C  C80  1  0.80310000  0.78750000  0.57201000  1.0
  C  C81  1  0.41800000  0.61677000  0.63401000  1.0
  C  C82  1  0.00070000  0.10957000  0.59132000  1.0
  C  C83  1  0.99490000  0.05042000  0.58422000  1.0
  C  C84  1  0.03310000  0.01352000  0.60920000  1.0
  C  C85  1  0.03040000  0.95798000  0.59991000  1.0
  C  C86  1  0.98840000  0.93892000  0.56801000  1.0
  C  C87  1  0.95040000  0.97580000  0.54304000  1.0
  C  C88  1  0.95380000  0.03111000  0.55151000  1.0
  C  C89  1  0.54050000  0.20652000  0.97766000  1.0
  C  C90  1  0.56919000  0.18427000  0.01627000  1.0
  C  C91  1  0.63876000  0.15339000  0.01739000  1.0
  C  C92  1  0.66572000  0.13211000  0.05363000  1.0
  C  C93  1  0.62311000  0.14170000  0.08876000  1.0
  C  C94  1  0.55354000  0.17258000  0.08764000  1.0
  C  C95  1  0.52658000  0.19387000  0.05140000  1.0
  C  C96  1  0.65890000  0.11406000  0.12607000  1.0
  C  C97  1  0.63912000  0.05344000  0.12647000  1.0
  C  C98  1  0.69064000  0.01837000  0.14659000  1.0
  C  C99  1  0.67263000  0.96316000  0.14939000  1.0
  C  C100  1  0.60311000  0.94302000  0.13208000  1.0
  C  C101  1  0.55159000  0.97808000  0.11196000  1.0
  C  C102  1  0.56960000  0.03329000  0.10916000  1.0
  C  C103  1  0.62710000  0.14157000  0.16477000  1.0
  C  C104  1  0.56110000  0.12310000  0.18680000  1.0
  C  C105  1  0.67030000  0.18460000  0.18079000  1.0
  C  C106  1  0.71330000  0.72197000  0.09478000  1.0
  C  C107  1  0.79264000  0.69899000  0.08559000  1.0
  C  C108  1  0.80228000  0.66844000  0.05075000  1.0
  C  C109  1  0.87587000  0.64506000  0.04201000  1.0
  C  C110  1  0.93981000  0.65224000  0.06809000  1.0
  C  C111  1  0.93018000  0.68279000  0.10293000  1.0
  C  C112  1  0.85659000  0.70617000  0.11168000  1.0
  C  C113  1  0.01850000  0.62218000  0.05713000  1.0
  C  C114  1  0.09100000  0.64824000  0.07567000  1.0
  C  C115  1  0.12020000  0.63200000  0.11309000  1.0
  C  C116  1  0.13050000  0.68947000  0.05558000  1.0
  C  C117  1  0.56300000  0.20850000  0.27881000  1.0
  C  C118  1  0.58330000  0.18767000  0.23923000  1.0
  C  C119  1  0.54010000  0.14600000  0.22085000  1.0
  C  C120  1  0.64690000  0.20840000  0.21744000  1.0
  C  C121  1  0.30750000  0.71720000  0.12311000  1.0
  C  C122  1  0.22920000  0.69509000  0.10813000  1.0
  C  C123  1  0.18980000  0.65390000  0.12896000  1.0
  C  C124  1  0.19690000  0.71250000  0.07201000  1.0
  C  C125  1  0.58200000  0.88323000  0.13401000  1.0
  C  C126  1  0.99930000  0.39043000  0.09132000  1.0
  C  C127  1  0.00510000  0.44958000  0.08422000  1.0
  C  C128  1  0.96690000  0.48648000  0.10920000  1.0
  C  C129  1  0.96960000  0.54202000  0.09991000  1.0
  C  C130  1  0.01160000  0.56108000  0.06801000  1.0
  C  C131  1  0.04960000  0.52420000  0.04304000  1.0
  C  C132  1  0.04620000  0.46889000  0.05151000  1.0
  C  C133  1  0.04050000  0.29348000  0.52234000  1.0
  C  C134  1  0.06919000  0.31573000  0.48373000  1.0
  C  C135  1  0.13876000  0.34661000  0.48261000  1.0
  C  C136  1  0.16572000  0.36789000  0.44637000  1.0
  C  C137  1  0.12311000  0.35830000  0.41124000  1.0
  C  C138  1  0.05354000  0.32742000  0.41236000  1.0
  C  C139  1  0.02658000  0.30613000  0.44860000  1.0
  C  C140  1  0.15890000  0.38594000  0.37393000  1.0
  C  C141  1  0.13912000  0.44656000  0.37353000  1.0
  C  C142  1  0.19064000  0.48163000  0.35341000  1.0
  C  C143  1  0.17263000  0.53684000  0.35061000  1.0
  C  C144  1  0.10311000  0.55698000  0.36792000  1.0
  C  C145  1  0.05159000  0.52192000  0.38804000  1.0
  C  C146  1  0.06960000  0.46671000  0.39084000  1.0
  C  C147  1  0.12710000  0.35843000  0.33523000  1.0
  C  C148  1  0.06110000  0.37690000  0.31320000  1.0
  C  C149  1  0.17030000  0.31540000  0.31921000  1.0
  C  C150  1  0.21330000  0.77803000  0.40522000  1.0
  C  C151  1  0.29264000  0.80101000  0.41441000  1.0
  C  C152  1  0.30228000  0.83156000  0.44925000  1.0
  C  C153  1  0.37587000  0.85494000  0.45799000  1.0
  C  C154  1  0.43981000  0.84776000  0.43191000  1.0
  C  C155  1  0.43018000  0.81721000  0.39707000  1.0
  C  C156  1  0.35659000  0.79383000  0.38832000  1.0
  C  C157  1  0.51850000  0.87782000  0.44287000  1.0
  C  C158  1  0.59100000  0.85176000  0.42433000  1.0
  C  C159  1  0.62020000  0.86800000  0.38691000  1.0
  C  C160  1  0.63050000  0.81053000  0.44442000  1.0
  C  C161  1  0.06300000  0.29150000  0.22119000  1.0
  C  C162  1  0.08330000  0.31233000  0.26077000  1.0
  C  C163  1  0.04010000  0.35400000  0.27915000  1.0
  C  C164  1  0.14690000  0.29160000  0.28256000  1.0
  C  C165  1  0.80750000  0.78280000  0.37689000  1.0
  C  C166  1  0.72920000  0.80491000  0.39187000  1.0
  C  C167  1  0.68980000  0.84610000  0.37104000  1.0
  C  C168  1  0.69690000  0.78750000  0.42799000  1.0
  C  C169  1  0.08200000  0.61677000  0.36599000  1.0
  C  C170  1  0.49930000  0.10957000  0.40868000  1.0
  C  C171  1  0.50510000  0.05042000  0.41578000  1.0
  C  C172  1  0.46690000  0.01352000  0.39080000  1.0
  C  C173  1  0.46960000  0.95798000  0.40009000  1.0
  C  C174  1  0.51160000  0.93892000  0.43199000  1.0
  C  C175  1  0.54960000  0.97580000  0.45696000  1.0
  C  C176  1  0.54620000  0.03111000  0.44849000  1.0
  C  C177  1  0.04050000  0.79348000  0.97766000  1.0
  C  C178  1  0.06919000  0.81573000  0.01627000  1.0
  C  C179  1  0.13876000  0.84661000  0.01739000  1.0
  C  C180  1  0.16572000  0.86789000  0.05363000  1.0
  C  C181  1  0.12311000  0.85830000  0.08876000  1.0
  C  C182  1  0.05354000  0.82742000  0.08764000  1.0
  C  C183  1  0.02658000  0.80613000  0.05140000  1.0
  C  C184  1  0.15890000  0.88594000  0.12607000  1.0
  C  C185  1  0.13912000  0.94656000  0.12647000  1.0
  C  C186  1  0.19064000  0.98163000  0.14659000  1.0
  C  C187  1  0.17263000  0.03684000  0.14939000  1.0
  C  C188  1  0.10311000  0.05698000  0.13208000  1.0
  C  C189  1  0.05159000  0.02192000  0.11196000  1.0
  C  C190  1  0.06960000  0.96671000  0.10916000  1.0
  C  C191  1  0.12710000  0.85843000  0.16477000  1.0
  C  C192  1  0.06110000  0.87690000  0.18680000  1.0
  C  C193  1  0.17030000  0.81540000  0.18079000  1.0
  C  C194  1  0.21330000  0.27803000  0.09478000  1.0
  C  C195  1  0.29264000  0.30101000  0.08559000  1.0
  C  C196  1  0.30228000  0.33156000  0.05075000  1.0
  C  C197  1  0.37587000  0.35494000  0.04201000  1.0
  C  C198  1  0.43981000  0.34776000  0.06809000  1.0
  C  C199  1  0.43018000  0.31721000  0.10293000  1.0
  C  C200  1  0.35659000  0.29383000  0.11168000  1.0
  C  C201  1  0.51850000  0.37782000  0.05713000  1.0
  C  C202  1  0.59100000  0.35176000  0.07567000  1.0
  C  C203  1  0.62020000  0.36800000  0.11309000  1.0
  C  C204  1  0.63050000  0.31053000  0.05558000  1.0
  C  C205  1  0.06300000  0.79150000  0.27881000  1.0
  C  C206  1  0.08330000  0.81233000  0.23923000  1.0
  C  C207  1  0.04010000  0.85400000  0.22085000  1.0
  C  C208  1  0.14690000  0.79160000  0.21744000  1.0
  C  C209  1  0.80750000  0.28280000  0.12311000  1.0
  C  C210  1  0.72920000  0.30491000  0.10813000  1.0
  C  C211  1  0.68980000  0.34610000  0.12896000  1.0
  C  C212  1  0.69690000  0.28750000  0.07201000  1.0
  C  C213  1  0.08200000  0.11677000  0.13401000  1.0
  C  C214  1  0.49930000  0.60957000  0.09132000  1.0
  C  C215  1  0.50510000  0.55042000  0.08422000  1.0
  C  C216  1  0.46690000  0.51352000  0.10920000  1.0
  C  C217  1  0.46960000  0.45798000  0.09991000  1.0
  C  C218  1  0.51160000  0.43892000  0.06801000  1.0
  C  C219  1  0.54960000  0.47580000  0.04304000  1.0
  C  C220  1  0.54620000  0.53111000  0.05151000  1.0
  C  C221  1  0.54050000  0.70652000  0.52234000  1.0
  C  C222  1  0.56919000  0.68427000  0.48373000  1.0
  C  C223  1  0.63876000  0.65339000  0.48261000  1.0
  C  C224  1  0.66572000  0.63211000  0.44637000  1.0
  C  C225  1  0.62311000  0.64170000  0.41124000  1.0
  C  C226  1  0.55354000  0.67258000  0.41236000  1.0
  C  C227  1  0.52658000  0.69387000  0.44860000  1.0
  C  C228  1  0.65890000  0.61406000  0.37393000  1.0
  C  C229  1  0.63912000  0.55344000  0.37353000  1.0
  C  C230  1  0.69064000  0.51837000  0.35341000  1.0
  C  C231  1  0.67263000  0.46316000  0.35061000  1.0
  C  C232  1  0.60311000  0.44302000  0.36792000  1.0
  C  C233  1  0.55159000  0.47808000  0.38804000  1.0
  C  C234  1  0.56960000  0.53329000  0.39084000  1.0
  C  C235  1  0.62710000  0.64157000  0.33523000  1.0
  C  C236  1  0.56110000  0.62310000  0.31320000  1.0
  C  C237  1  0.67030000  0.68460000  0.31921000  1.0
  C  C238  1  0.71330000  0.22197000  0.40522000  1.0
  C  C239  1  0.79264000  0.19899000  0.41441000  1.0
  C  C240  1  0.80228000  0.16844000  0.44925000  1.0
  C  C241  1  0.87587000  0.14506000  0.45799000  1.0
  C  C242  1  0.93981000  0.15224000  0.43191000  1.0
  C  C243  1  0.93018000  0.18279000  0.39707000  1.0
  C  C244  1  0.85659000  0.20617000  0.38832000  1.0
  C  C245  1  0.01850000  0.12218000  0.44287000  1.0
  C  C246  1  0.09100000  0.14824000  0.42433000  1.0
  C  C247  1  0.12020000  0.13200000  0.38691000  1.0
  C  C248  1  0.13050000  0.18947000  0.44442000  1.0
  C  C249  1  0.56300000  0.70850000  0.22119000  1.0
  C  C250  1  0.58330000  0.68767000  0.26077000  1.0
  C  C251  1  0.54010000  0.64600000  0.27915000  1.0
  C  C252  1  0.64690000  0.70840000  0.28256000  1.0
  C  C253  1  0.30750000  0.21720000  0.37689000  1.0
  C  C254  1  0.22920000  0.19509000  0.39187000  1.0
  C  C255  1  0.18980000  0.15390000  0.37104000  1.0
  C  C256  1  0.19690000  0.21250000  0.42799000  1.0
  C  C257  1  0.58200000  0.38323000  0.36599000  1.0
  C  C258  1  0.99930000  0.89043000  0.40868000  1.0
  C  C259  1  0.00510000  0.94958000  0.41578000  1.0
  C  C260  1  0.96690000  0.98648000  0.39080000  1.0
  C  C261  1  0.96960000  0.04202000  0.40009000  1.0
  C  C262  1  0.01160000  0.06108000  0.43199000  1.0
  C  C263  1  0.04960000  0.02420000  0.45696000  1.0
  C  C264  1  0.04620000  0.96889000  0.44849000  1.0
  C  C265  1  0.45950000  0.79348000  0.02234000  1.0
  C  C266  1  0.43081000  0.81573000  0.98373000  1.0
  C  C267  1  0.36124000  0.84661000  0.98261000  1.0
  C  C268  1  0.33428000  0.86789000  0.94637000  1.0
  C  C269  1  0.37689000  0.85830000  0.91124000  1.0
  C  C270  1  0.44646000  0.82742000  0.91236000  1.0
  C  C271  1  0.47342000  0.80613000  0.94860000  1.0
  C  C272  1  0.34110000  0.88594000  0.87393000  1.0
  C  C273  1  0.36088000  0.94656000  0.87353000  1.0
  C  C274  1  0.30936000  0.98163000  0.85341000  1.0
  C  C275  1  0.32737000  0.03684000  0.85061000  1.0
  C  C276  1  0.39689000  0.05698000  0.86792000  1.0
  C  C277  1  0.44841000  0.02192000  0.88804000  1.0
  C  C278  1  0.43040000  0.96671000  0.89084000  1.0
  C  C279  1  0.37290000  0.85843000  0.83523000  1.0
  C  C280  1  0.43890000  0.87690000  0.81320000  1.0
  C  C281  1  0.32970000  0.81540000  0.81921000  1.0
  C  C282  1  0.28670000  0.27803000  0.90522000  1.0
  C  C283  1  0.20736000  0.30101000  0.91441000  1.0
  C  C284  1  0.19772000  0.33156000  0.94925000  1.0
  C  C285  1  0.12413000  0.35494000  0.95799000  1.0
  C  C286  1  0.06019000  0.34776000  0.93191000  1.0
  C  C287  1  0.06982000  0.31721000  0.89707000  1.0
  C  C288  1  0.14341000  0.29383000  0.88832000  1.0
  C  C289  1  0.98150000  0.37782000  0.94287000  1.0
  C  C290  1  0.90900000  0.35176000  0.92433000  1.0
  C  C291  1  0.87980000  0.36800000  0.88691000  1.0
  C  C292  1  0.86950000  0.31053000  0.94442000  1.0
  C  C293  1  0.43700000  0.79150000  0.72119000  1.0
  C  C294  1  0.41670000  0.81233000  0.76077000  1.0
  C  C295  1  0.45990000  0.85400000  0.77915000  1.0
  C  C296  1  0.35310000  0.79160000  0.78256000  1.0
  C  C297  1  0.69250000  0.28280000  0.87689000  1.0
  C  C298  1  0.77080000  0.30491000  0.89187000  1.0
  C  C299  1  0.81020000  0.34610000  0.87104000  1.0
  C  C300  1  0.80310000  0.28750000  0.92799000  1.0
  C  C301  1  0.41800000  0.11677000  0.86599000  1.0
  C  C302  1  0.00070000  0.60957000  0.90868000  1.0
  C  C303  1  0.99490000  0.55042000  0.91578000  1.0
  C  C304  1  0.03310000  0.51352000  0.89080000  1.0
  C  C305  1  0.03040000  0.45798000  0.90009000  1.0
  C  C306  1  0.98840000  0.43892000  0.93199000  1.0
  C  C307  1  0.95040000  0.47580000  0.95696000  1.0
  C  C308  1  0.95380000  0.53111000  0.94849000  1.0
  C  C309  1  0.95950000  0.70652000  0.47766000  1.0
  C  C310  1  0.93081000  0.68427000  0.51627000  1.0
  C  C311  1  0.86124000  0.65339000  0.51739000  1.0
  C  C312  1  0.83428000  0.63211000  0.55363000  1.0
  C  C313  1  0.87689000  0.64170000  0.58876000  1.0
  C  C314  1  0.94646000  0.67258000  0.58764000  1.0
  C  C315  1  0.97342000  0.69387000  0.55140000  1.0
  C  C316  1  0.84110000  0.61406000  0.62607000  1.0
  C  C317  1  0.86088000  0.55344000  0.62647000  1.0
  C  C318  1  0.80936000  0.51837000  0.64659000  1.0
  C  C319  1  0.82737000  0.46316000  0.64939000  1.0
  C  C320  1  0.89689000  0.44302000  0.63208000  1.0
  C  C321  1  0.94841000  0.47808000  0.61196000  1.0
  C  C322  1  0.93040000  0.53329000  0.60916000  1.0
  C  C323  1  0.87290000  0.64157000  0.66477000  1.0
  C  C324  1  0.93890000  0.62310000  0.68680000  1.0
  C  C325  1  0.82970000  0.68460000  0.68079000  1.0
  C  C326  1  0.78670000  0.22197000  0.59478000  1.0
  C  C327  1  0.70736000  0.19899000  0.58559000  1.0
  C  C328  1  0.69772000  0.16844000  0.55075000  1.0
  C  C329  1  0.62413000  0.14506000  0.54201000  1.0
  C  C330  1  0.56019000  0.15224000  0.56809000  1.0
  C  C331  1  0.56982000  0.18279000  0.60293000  1.0
  C  C332  1  0.64341000  0.20617000  0.61168000  1.0
  C  C333  1  0.48150000  0.12218000  0.55713000  1.0
  C  C334  1  0.40900000  0.14824000  0.57567000  1.0
  C  C335  1  0.37980000  0.13200000  0.61309000  1.0
  C  C336  1  0.36950000  0.18947000  0.55558000  1.0
  C  C337  1  0.93700000  0.70850000  0.77881000  1.0
  C  C338  1  0.91670000  0.68767000  0.73923000  1.0
  C  C339  1  0.95990000  0.64600000  0.72085000  1.0
  C  C340  1  0.85310000  0.70840000  0.71744000  1.0
  C  C341  1  0.19250000  0.21720000  0.62311000  1.0
  C  C342  1  0.27080000  0.19509000  0.60813000  1.0
  C  C343  1  0.31020000  0.15390000  0.62896000  1.0
  C  C344  1  0.30310000  0.21250000  0.57201000  1.0
  C  C345  1  0.91800000  0.38323000  0.63401000  1.0
  C  C346  1  0.50070000  0.89043000  0.59132000  1.0
  C  C347  1  0.49490000  0.94958000  0.58422000  1.0
  C  C348  1  0.53310000  0.98648000  0.60920000  1.0
  C  C349  1  0.53040000  0.04202000  0.59991000  1.0
  C  C350  1  0.48840000  0.06108000  0.56801000  1.0
  C  C351  1  0.45040000  0.02420000  0.54304000  1.0
  C  C352  1  0.45380000  0.96889000  0.55151000  1.0
  O  O1  1  0.87260000  0.85232000  0.84631000  1.0
  O  O2  1  0.93130000  0.18359000  0.05335000  1.0
  O  O3  1  0.00690000  0.24519000  0.02207000  1.0
  O  O4  1  0.51880000  0.37756000  0.87241000  1.0
  O  O5  1  0.48100000  0.35863000  0.93567000  1.0
  O  O6  1  0.84018000  0.71781000  0.93136000  1.0
  O  O7  1  0.79811000  0.74388000  0.87161000  1.0
  O  O8  1  0.89560000  0.24561000  0.70568000  1.0
  O  O9  1  0.99710000  0.18721000  0.70523000  1.0
  O  O10  1  0.16890000  0.76070000  0.89294000  1.0
  O  O11  1  0.15820000  0.69169000  0.84971000  1.0
  O  O12  1  0.98841000  0.74959000  0.87921000  1.0
  O  O13  1  0.97380000  0.86739000  0.88531000  1.0
  O  O14  1  0.37260000  0.64768000  0.65369000  1.0
  O  O15  1  0.43130000  0.31641000  0.44665000  1.0
  O  O16  1  0.50690000  0.25481000  0.47793000  1.0
  O  O17  1  0.01880000  0.12244000  0.62759000  1.0
  O  O18  1  0.98100000  0.14137000  0.56433000  1.0
  O  O19  1  0.34018000  0.78219000  0.56864000  1.0
  O  O20  1  0.29811000  0.75612000  0.62839000  1.0
  O  O21  1  0.39560000  0.25439000  0.79432000  1.0
  O  O22  1  0.49710000  0.31279000  0.79477000  1.0
  O  O23  1  0.66890000  0.73930000  0.60706000  1.0
  O  O24  1  0.65820000  0.80831000  0.65029000  1.0
  O  O25  1  0.48841000  0.75041000  0.62079000  1.0
  O  O26  1  0.47380000  0.63261000  0.61469000  1.0
  O  O27  1  0.62740000  0.85232000  0.15369000  1.0
  O  O28  1  0.56870000  0.18359000  0.94665000  1.0
  O  O29  1  0.49310000  0.24519000  0.97793000  1.0
  O  O30  1  0.98120000  0.37756000  0.12759000  1.0
  O  O31  1  0.01900000  0.35863000  0.06433000  1.0
  O  O32  1  0.65982000  0.71781000  0.06864000  1.0
  O  O33  1  0.70189000  0.74388000  0.12839000  1.0
  O  O34  1  0.60440000  0.24561000  0.29432000  1.0
  O  O35  1  0.50290000  0.18721000  0.29477000  1.0
  O  O36  1  0.33110000  0.76070000  0.10706000  1.0
  O  O37  1  0.34180000  0.69169000  0.15029000  1.0
  O  O38  1  0.51159000  0.74959000  0.12079000  1.0
  O  O39  1  0.52620000  0.86739000  0.11469000  1.0
  O  O40  1  0.12740000  0.64768000  0.34631000  1.0
  O  O41  1  0.06870000  0.31641000  0.55335000  1.0
  O  O42  1  0.99310000  0.25481000  0.52207000  1.0
  O  O43  1  0.48120000  0.12244000  0.37241000  1.0
  O  O44  1  0.51900000  0.14137000  0.43567000  1.0
  O  O45  1  0.15982000  0.78219000  0.43136000  1.0
  O  O46  1  0.20189000  0.75612000  0.37161000  1.0
  O  O47  1  0.10440000  0.25439000  0.20568000  1.0
  O  O48  1  0.00290000  0.31279000  0.20523000  1.0
  O  O49  1  0.83110000  0.73930000  0.39294000  1.0
  O  O50  1  0.84180000  0.80831000  0.34971000  1.0
  O  O51  1  0.01159000  0.75041000  0.37921000  1.0
  O  O52  1  0.02620000  0.63261000  0.38531000  1.0
  O  O53  1  0.12740000  0.14768000  0.15369000  1.0
  O  O54  1  0.06870000  0.81641000  0.94665000  1.0
  O  O55  1  0.99310000  0.75481000  0.97793000  1.0
  O  O56  1  0.48120000  0.62244000  0.12759000  1.0
  O  O57  1  0.51900000  0.64137000  0.06433000  1.0
  O  O58  1  0.15982000  0.28219000  0.06864000  1.0
  O  O59  1  0.20189000  0.25612000  0.12839000  1.0
  O  O60  1  0.10440000  0.75439000  0.29432000  1.0
  O  O61  1  0.00290000  0.81279000  0.29477000  1.0
  O  O62  1  0.83110000  0.23930000  0.10706000  1.0
  O  O63  1  0.84180000  0.30831000  0.15029000  1.0
  O  O64  1  0.01159000  0.25041000  0.12079000  1.0
  O  O65  1  0.02620000  0.13261000  0.11469000  1.0
  O  O66  1  0.62740000  0.35232000  0.34631000  1.0
  O  O67  1  0.56870000  0.68359000  0.55335000  1.0
  O  O68  1  0.49310000  0.74519000  0.52207000  1.0
  O  O69  1  0.98120000  0.87756000  0.37241000  1.0
  O  O70  1  0.01900000  0.85863000  0.43567000  1.0
  O  O71  1  0.65982000  0.21781000  0.43136000  1.0
  O  O72  1  0.70189000  0.24388000  0.37161000  1.0
  O  O73  1  0.60440000  0.74561000  0.20568000  1.0
  O  O74  1  0.50290000  0.68721000  0.20523000  1.0
  O  O75  1  0.33110000  0.26070000  0.39294000  1.0
  O  O76  1  0.34180000  0.19169000  0.34971000  1.0
  O  O77  1  0.51159000  0.24959000  0.37921000  1.0
  O  O78  1  0.52620000  0.36739000  0.38531000  1.0
  O  O79  1  0.37260000  0.14768000  0.84631000  1.0
  O  O80  1  0.43130000  0.81641000  0.05335000  1.0
  O  O81  1  0.50690000  0.75481000  0.02207000  1.0
  O  O82  1  0.01880000  0.62244000  0.87241000  1.0
  O  O83  1  0.98100000  0.64137000  0.93567000  1.0
  O  O84  1  0.34018000  0.28219000  0.93136000  1.0
  O  O85  1  0.29811000  0.25612000  0.87161000  1.0
  O  O86  1  0.39560000  0.75439000  0.70568000  1.0
  O  O87  1  0.49710000  0.81279000  0.70523000  1.0
  O  O88  1  0.66890000  0.23930000  0.89294000  1.0
  O  O89  1  0.65820000  0.30831000  0.84971000  1.0
  O  O90  1  0.48841000  0.25041000  0.87921000  1.0
  O  O91  1  0.47380000  0.13261000  0.88531000  1.0
  O  O92  1  0.87260000  0.35232000  0.65369000  1.0
  O  O93  1  0.93130000  0.68359000  0.44665000  1.0
  O  O94  1  0.00690000  0.74519000  0.47793000  1.0
  O  O95  1  0.51880000  0.87756000  0.62759000  1.0
  O  O96  1  0.48100000  0.85863000  0.56433000  1.0
  O  O97  1  0.84018000  0.21781000  0.56864000  1.0
  O  O98  1  0.79811000  0.24388000  0.62839000  1.0
  O  O99  1  0.89560000  0.74561000  0.79432000  1.0
  O  O100  1  0.99710000  0.68721000  0.79477000  1.0
  O  O101  1  0.16890000  0.26070000  0.60706000  1.0
  O  O102  1  0.15820000  0.19169000  0.65029000  1.0
  O  O103  1  0.98841000  0.24959000  0.62079000  1.0
  O  O104  1  0.97380000  0.36739000  0.61469000  1.0
