# generated using pymatgen
data_H28C37N4
_symmetry_space_group_name_H-M   'P 1'
_cell_length_a   23.55890000
_cell_length_b   36.54990000
_cell_length_c   36.54990000
_cell_angle_alpha   120.00000000
_cell_angle_beta   90.00000000
_cell_angle_gamma   90.00000000
_symmetry_Int_Tables_number   1
_chemical_formula_structural   H28C37N4
_chemical_formula_sum   'H168 C222 N24'
_cell_volume   27255.74306573
_cell_formula_units_Z   6
loop_
 _symmetry_equiv_pos_site_id
 _symmetry_equiv_pos_as_xyz
  1  'x, y, z'
loop_
 _atom_site_type_symbol
 _atom_site_label
 _atom_site_symmetry_multiplicity
 _atom_site_fract_x
 _atom_site_fract_y
 _atom_site_fract_z
 _atom_site_occupancy
  C  1  1  0.83858200  0.44591900  0.44926400  1
  C  2  1  0.88294700  0.46727600  0.44148300  1
  C  3  1  0.93288200  0.44621000  0.42043600  1
  C  4  1  0.94197000  0.40266900  0.40621900  1
  C  5  1  0.89604200  0.38110600  0.41225800  1
  C  6  1  0.84669900  0.40237700  0.43444000  1
  C  7  1  0.99681000  0.38109700  0.38274200  1
  C  8  1  0.98538900  0.37877300  0.34032400  1
  C  9  1  0.94513200  0.34956900  0.31157100  1
  C  10  1  0.92886700  0.34952500  0.27444700  1
  C  11  1  0.95160100  0.37904100  0.26403700  1
  C  12  1  0.99255800  0.40760500  0.29199100  1
  C  13  1  0.00748700  0.40837200  0.32963300  1
  C  14  1  0.04970000  0.40588000  0.40677000  1
  C  15  1  0.00979000  0.33783000  0.37790500  1
  C  16  1  0.03931000  0.30593900  0.34232500  1
  C  17  1  0.05730600  0.26810200  0.34008500  1
  C  18  1  0.04603300  0.25918900  0.37288900  1
  C  19  1  0.01909200  0.29184700  0.40935900  1
  C  20  1  0.00333200  0.33034400  0.41224000  1
  C  21  1  0.05122200  0.43066800  0.45160000  1
  C  22  1  0.10048200  0.45216100  0.47360400  1
  C  23  1  0.15166200  0.44900500  0.45201000  1
  C  24  1  0.15141400  0.42315200  0.40757200  1
  C  25  1  0.10233400  0.40101300  0.38583200  1
  C  42  1  0.50521800  0.99867100  0.55038600  1
  C  43  1  0.54961400  0.96956300  0.52903000  1
  C  44  1  0.59955500  0.96960200  0.55010000  1
  C  45  1  0.60864500  0.99894500  0.59363500  1
  C  46  1  0.56268700  0.02651300  0.61519400  1
  C  47  1  0.51332200  0.02739200  0.59392700  1
  C  48  1  0.66347300  0.99704800  0.61522000  1
  C  49  1  0.65207500  0.95696600  0.61756700  1
  C  50  1  0.61179300  0.95741500  0.64675900  1
  C  51  1  0.59548900  0.92033700  0.64679300  1
  C  52  1  0.61818600  0.88040100  0.61726300  1
  C  53  1  0.65914800  0.87978400  0.58869900  1
  C  54  1  0.67410600  0.91666200  0.58794500  1
  C  55  1  0.71635700  0.99627700  0.59042700  1
  C  56  1  0.67641800  0.03547300  0.65848500  1
  C  57  1  0.70607500  0.03181300  0.69034800  1
  C  58  1  0.72408100  0.06740400  0.72818500  1
  C  59  1  0.71282100  0.10911700  0.73708300  1
  C  60  1  0.68581200  0.11292700  0.70444800  1
  C  61  1  0.66999200  0.07730300  0.66597400  1
  C  62  1  0.71790600  0.01638000  0.56569400  1
  C  63  1  0.76716600  0.01690900  0.54421200  1
  C  64  1  0.81834000  0.99844700  0.54733700  1
  C  65  1  0.81808000  0.97982000  0.57315400  1
  C  66  1  0.76900000  0.98020800  0.59528800  1
  C  83  1  0.17187700  0.54709900  0.99762900  1
  C  84  1  0.21626600  0.55484600  0.02673900  1
  C  85  1  0.26620400  0.57588800  0.02671200  1
  C  86  1  0.27529600  0.59009100  0.99737800  1
  C  87  1  0.22934000  0.58408900  0.96981100  1
  C  88  1  0.17997000  0.56195100  0.96893100  1
  C  89  1  0.33013000  0.61357200  0.99927800  1
  C  90  1  0.31872800  0.65600000  0.03935500  1
  C  91  1  0.27845900  0.68474700  0.03890100  1
  C  92  1  0.26215300  0.72186200  0.07597900  1
  C  93  1  0.28483400  0.73226300  0.11591800  1
  C  94  1  0.32578300  0.70431000  0.11654100  1
  C  95  1  0.34074400  0.66666667  0.07965267  1
  C  96  1  0.38301000  0.58955000  0.00005300  1
  C  97  1  0.34307400  0.61840500  0.96084500  1
  C  98  1  0.37273400  0.65392100  0.96449700  1
  C  99  1  0.39068000  0.65618100  0.92890100  1
  C  100  1  0.37940600  0.62336600  0.88719100  1
  C  101  1  0.35241800  0.58691900  0.88339100  1
  C  102  1  0.33663200  0.58406500  0.91901800  1
  C  103  1  0.38456400  0.54471300  0.97994000  1
  C  104  1  0.43382300  0.52270100  0.97941700  1
  C  105  1  0.48498800  0.54429200  0.99789300  1
  C  106  1  0.48473200  0.58873400  0.01651800  1
  C  107  1  0.43565000  0.61047800  0.01613100  1
  C  124  1  0.33856000  0.54854800  0.54891300  1
  C  125  1  0.38292500  0.52719100  0.55669100  1
  C  126  1  0.43286200  0.54826000  0.57774000  1
  C  127  1  0.44196800  0.59179100  0.59192200  1
  C  128  1  0.39602200  0.61335700  0.58590500  1
  C  129  1  0.34667100  0.59209100  0.56374200  1
  C  130  1  0.49680400  0.61336300  0.61540600  1
  C  131  1  0.48542100  0.61569800  0.65783100  1
  C  132  1  0.44513500  0.64489400  0.68656700  1
  C  133  1  0.42880600  0.64491400  0.72366900  1
  C  134  1  0.45151400  0.61539500  0.73408500  1
  C  135  1  0.49249700  0.58684200  0.70615200  1
  C  136  1  0.50746000  0.58608300  0.66851800  1
  C  137  1  0.54968000  0.58856600  0.59137100  1
  C  138  1  0.50974800  0.65663000  0.62024400  1
  C  139  1  0.53936700  0.68850600  0.65577500  1
  C  140  1  0.55735600  0.72634600  0.65801700  1
  C  141  1  0.54603300  0.73526700  0.62522300  1
  C  142  1  0.51908600  0.70260300  0.58876500  1
  C  143  1  0.50333800  0.66411100  0.58589600  1
  C  144  1  0.55122600  0.56379500  0.54654100  1
  C  145  1  0.60049500  0.54231500  0.52454300  1
  C  146  1  0.65166400  0.54545700  0.54614400  1
  C  147  1  0.65140100  0.57131200  0.59058400  1
  C  148  1  0.60231600  0.59344600  0.61231500  1
  C  165  1  0.00521600  0.99582400  0.44778200  1
  C  166  1  0.04961100  0.02493200  0.46913800  1
  C  167  1  0.09955400  0.02488900  0.44806300  1
  C  168  1  0.10864200  0.99554200  0.40452800  1
  C  169  1  0.06267200  0.96798300  0.38296900  1
  C  170  1  0.01332200  0.96709700  0.40424200  1
  C  171  1  0.16347400  0.99744100  0.38294800  1
  C  172  1  0.15209000  0.03752100  0.38059600  1
  C  173  1  0.11182400  0.03704500  0.35138200  1
  C  174  1  0.09550900  0.07411400  0.35133000  1
  C  175  1  0.11816900  0.11406300  0.38087000  1
  C  176  1  0.15913200  0.11469900  0.40944400  1
  C  177  1  0.17408200  0.07783500  0.41022500  1
  C  178  1  0.21634200  0.99820400  0.40774900  1
  C  179  1  0.17643200  0.95898600  0.33969700  1
  C  180  1  0.20607000  0.96267000  0.30784300  1
  C  181  1  0.22405200  0.92708000  0.26999400  1
  C  182  1  0.21273000  0.88536100  0.26106100  1
  C  183  1  0.18573400  0.88154400  0.29369600  1
  C  184  1  0.16994000  0.91715700  0.33218400  1
  C  185  1  0.21788800  0.97810800  0.43248600  1
  C  186  1  0.26714900  0.97757200  0.45396400  1
  C  187  1  0.31831600  0.99605000  0.45085200  1
  C  188  1  0.31805800  0.01467900  0.42503600  1
  C  189  1  0.26897600  0.01429300  0.40290500  1
  C  206  1  0.67187700  0.44735000  0.00048300  1
  C  207  1  0.71627600  0.43959500  0.97137800  1
  C  208  1  0.76622000  0.41856900  0.97142400  1
  C  209  1  0.77529000  0.40436400  0.00076000  1
  C  210  1  0.72933800  0.41039500  0.02834300  1
  C  211  1  0.67998400  0.43254500  0.02921900  1
  C  212  1  0.83013200  0.38090600  0.99888900  1
  C  213  1  0.81878100  0.33847700  0.95879500  1
  C  214  1  0.77851100  0.30972600  0.95924400  1
  C  215  1  0.76222600  0.27260600  0.92215900  1
  C  216  1  0.78493400  0.26220900  0.88223000  1
  C  217  1  0.82589600  0.29015800  0.88161900  1
  C  218  1  0.84081200  0.32780600  0.91849300  1
  C  219  1  0.88300300  0.40495500  0.99814400  1
  C  220  1  0.84307000  0.37610600  0.03734500  1
  C  221  1  0.87264600  0.34054400  0.03366300  1
  C  222  1  0.89064400  0.33829600  0.06925700  1
  C  223  1  0.87940400  0.37111500  0.11097200  1
  C  224  1  0.85238600  0.40755800  0.11478600  1
  C  225  1  0.83658800  0.41042600  0.07917200  1
  C  226  1  0.88453200  0.44978700  0.01822300  1
  C  227  1  0.93379000  0.47180100  0.01875500  1
  C  228  1  0.98498100  0.45021900  0.00032200  1
  C  229  1  0.98473100  0.40577600  0.98170600  1
  C  230  1  0.93564900  0.38402800  0.98208600  1
  C  247  1  0.71198000  0.41321500  0.43116000  1
  C  248  1  0.73231700  0.45427000  0.46593500  1
  C  253  1  0.70041000  0.52181500  0.52341500  1
  C  254  1  0.75709800  0.53688900  0.52924500  1
  C  255  1  0.77506200  0.58097400  0.55819500  1
  C  260  1  0.78949600  0.46871500  0.47279200  1
  C  261  1  0.37861200  0.01331100  0.58310000  1
  C  262  1  0.39894600  0.00697000  0.54202000  1
  C  267  1  0.36705400  0.99692800  0.47448300  1
  C  268  1  0.42374600  0.98771400  0.45942100  1
  C  269  1  0.44172200  0.97262200  0.41534600  1
  C  274  1  0.45612400  0.99936200  0.52757200  1
  C  275  1  0.04527100  0.56520300  0.98304800  1
  C  276  1  0.06560500  0.53045100  0.98936600  1
  C  281  1  0.03371700  0.47296600  0.99942900  1
  C  282  1  0.09042600  0.46706800  0.00856900  1
  C  283  1  0.10840400  0.43817100  0.02376500  1
  C  288  1  0.12279800  0.52356200  0.99689600  1
  C  289  1  0.21195300  0.58124100  0.56702000  1
  C  290  1  0.23229800  0.54019700  0.53222800  1
  C  295  1  0.20040600  0.47264600  0.47474800  1
  C  296  1  0.25709600  0.45757600  0.46890500  1
  C  297  1  0.27506100  0.41349000  0.43997300  1
  C  302  1  0.28947400  0.52574800  0.52538000  1
  C  303  1  0.87859800  0.98123600  0.41510100  1
  C  304  1  0.89895100  0.98750500  0.45615000  1
  C  309  1  0.86707300  0.99754200  0.52368900  1
  C  310  1  0.92376500  0.00677800  0.53875400  1
  C  311  1  0.94174500  0.02188600  0.58283200  1
  C  316  1  0.95613000  0.99511700  0.47059600  1
  C  317  1  0.54527100  0.42927400  0.01511200  1
  C  318  1  0.56560800  0.46402100  0.00878500  1
  C  323  1  0.53372600  0.52154300  0.99878200  1
  C  324  1  0.59041800  0.52737200  0.98954100  1
  C  325  1  0.60839300  0.55635600  0.97445000  1
  C  330  1  0.62278600  0.47085600  0.00117300  1
  C  331  1  0.05602200  0.16711100  0.29197500  1
  C  332  1  0.07101300  0.17994600  0.33609800  1
  C  337  1  0.10080400  0.15163100  0.38076900  1
  C  338  1  0.09178600  0.19216400  0.41672800  1
  C  339  1  0.09371400  0.20245000  0.46136500  1
  C  344  1  0.06471000  0.22112600  0.37190400  1
  C  345  1  0.72277100  0.12026900  0.82915900  1
  C  346  1  0.73784800  0.15153600  0.81631700  1
  C  351  1  0.76764200  0.22453100  0.84464600  1
  C  352  1  0.75846000  0.22000000  0.80414400  1
  C  353  1  0.76048000  0.25435400  0.79387100  1
  C  358  1  0.73146700  0.14620000  0.77515800  1
  C  359  1  0.38943600  0.70428400  0.87603900  1
  C  360  1  0.40444600  0.66016300  0.84475700  1
  C  365  1  0.43416000  0.61549000  0.77175200  1
  C  366  1  0.42503600  0.57952800  0.77630600  1
  C  367  1  0.42711600  0.53489200  0.74196400  1
  C  372  1  0.39802800  0.62434600  0.85009900  1
  C  373  1  0.55612500  0.82733300  0.70615600  1
  C  374  1  0.57103200  0.81450900  0.66202400  1
  C  379  1  0.60084200  0.84282400  0.61735700  1
  C  380  1  0.59168200  0.80231500  0.58139100  1
  C  381  1  0.59378000  0.79201900  0.53675700  1
  C  386  1  0.56463100  0.77334500  0.62620800  1
  C  387  1  0.22277300  0.87423500  0.16901000  1
  C  388  1  0.23773600  0.84293000  0.18182500  1
  C  393  1  0.26749000  0.76993500  0.15349300  1
  C  394  1  0.25846000  0.77449700  0.19402300  1
  C  395  1  0.26036800  0.74013700  0.20429300  1
  C  400  1  0.23141100  0.84828800  0.22299600  1
  C  401  1  0.88943800  0.29017400  0.12210100  1
  C  402  1  0.90449700  0.33428700  0.15337200  1
  C  407  1  0.93429900  0.37895000  0.22636000  1
  C  408  1  0.92510600  0.41492500  0.22183700  1
  C  409  1  0.92714400  0.45955300  0.25619100  1
  C  414  1  0.89804900  0.37011300  0.14804800  1
  H  26  1  0.08135700  0.24812600  0.31474200  1
  H  27  1  0.05040000  0.31067900  0.31797500  1
  H  28  1  0.01144000  0.28844200  0.43505700  1
  H  29  1  0.98669600  0.35323400  0.44024000  1
  H  30  1  0.01610400  0.43333000  0.46916800  1
  H  31  1  0.09870100  0.46982700  0.50587900  1
  H  32  1  0.18648300  0.42100100  0.39021000  1
  H  33  1  0.10506200  0.38207800  0.35378300  1
  H  34  1  0.03409200  0.43192400  0.34971600  1
  H  35  1  0.01248700  0.42837200  0.28535800  1
  H  36  1  0.89877600  0.32822100  0.25556700  1
  H  37  1  0.92596000  0.32836300  0.31809400  1
  H  38  1  0.89784600  0.34930000  0.40074200  1
  H  39  1  0.96343500  0.46342200  0.41589000  1
  H  40  1  0.87941700  0.49871300  0.45103200  1
  H  41  1  0.81745600  0.38552700  0.44047300  1
  H  67  1  0.74820400  0.06204600  0.74813300  1
  H  68  1  0.71717900  0.00272800  0.68561100  1
  H  69  1  0.67811100  0.14202900  0.70786500  1
  H  70  1  0.65330100  0.08241500  0.64310200  1
  H  71  1  0.68279000  0.03129700  0.56304500  1
  H  72  1  0.76538700  0.03154100  0.52656600  1
  H  73  1  0.85314900  0.96460700  0.57530200  1
  H  74  1  0.77172400  0.96707000  0.61420000  1
  H  75  1  0.70071100  0.91318500  0.56438700  1
  H  76  1  0.67904700  0.85237800  0.56791800  1
  H  77  1  0.56539100  0.92276900  0.66809800  1
  H  78  1  0.59263700  0.98514600  0.66796900  1
  H  79  1  0.56449100  0.04681800  0.64699900  1
  H  80  1  0.63012900  0.94786700  0.53288600  1
  H  81  1  0.54609400  0.94767100  0.49759100  1
  H  82  1  0.48407800  0.05027600  0.61077000  1
  H  108  1  0.41485800  0.68146200  0.93425500  1
  H  109  1  0.38386300  0.67826500  0.99358200  1
  H  110  1  0.34472700  0.56122400  0.85429300  1
  H  111  1  0.31995000  0.55608000  0.91391200  1
  H  112  1  0.34945100  0.52714700  0.96501800  1
  H  113  1  0.43204400  0.49042500  0.96477900  1
  H  114  1  0.51979900  0.60609400  0.03172900  1
  H  115  1  0.43838200  0.64252900  0.02926200  1
  H  116  1  0.36733600  0.64659400  0.08314500  1
  H  117  1  0.34566900  0.71093100  0.14395000  1
  H  118  1  0.23206400  0.74073600  0.07354300  1
  H  119  1  0.25931400  0.67823000  0.01116700  1
  H  120  1  0.23114400  0.59560400  0.94951800  1
  H  121  1  0.29677900  0.58039900  0.04844400  1
  H  122  1  0.21275600  0.54527900  0.04861600  1
  H  123  1  0.15074000  0.55589600  0.94603400  1
  H  149  1  0.58142200  0.74631900  0.68334800  1
  H  150  1  0.55046600  0.68377900  0.68013200  1
  H  151  1  0.51141200  0.70600300  0.56306500  1
  H  152  1  0.48667800  0.64122400  0.55790400  1
  H  153  1  0.51611000  0.56112600  0.52897000  1
  H  154  1  0.59871500  0.52463600  0.49226800  1
  H  155  1  0.68647000  0.57347800  0.60795300  1
  H  156  1  0.60504400  0.61238700  0.64436100  1
  H  157  1  0.53407000  0.56252800  0.64844000  1
  H  158  1  0.51239600  0.56606300  0.71278100  1
  H  159  1  0.39869000  0.66620300  0.74252700  1
  H  160  1  0.42593800  0.66607600  0.68002300  1
  H  161  1  0.39782800  0.64516100  0.59741700  1
  H  162  1  0.46342300  0.53104200  0.58226800  1
  H  163  1  0.37939800  0.49575400  0.54714400  1
  H  164  1  0.31742500  0.60893600  0.55770400  1
  H  190  1  0.24818600  0.93244300  0.25005400  1
  H  191  1  0.21720200  0.99175600  0.31259300  1
  H  192  1  0.17801500  0.85243700  0.29026400  1
  H  193  1  0.15323600  0.91204400  0.35505200  1
  H  194  1  0.18277100  0.96318400  0.43512800  1
  H  195  1  0.26536800  0.96294800  0.47161500  1
  H  196  1  0.35312500  0.02989500  0.42289200  1
  H  197  1  0.27171000  0.02742400  0.38398600  1
  H  198  1  0.20070500  0.08131700  0.43377500  1
  H  199  1  0.17901000  0.14211300  0.43022800  1
  H  200  1  0.06536100  0.07167800  0.33005800  1
  H  201  1  0.09264000  0.00931300  0.33020100  1
  H  202  1  0.06446400  0.94769700  0.35116100  1
  H  203  1  0.13012800  0.04662400  0.46527800  1
  H  204  1  0.04609600  0.04682300  0.50057600  1
  H  205  1  0.98404700  0.94424200  0.38739200  1
  H  231  1  0.91483000  0.31301500  0.06389500  1
  H  232  1  0.88384000  0.31623100  0.00458000  1
  H  233  1  0.84468300  0.43324000  0.14389300  1
  H  234  1  0.81990600  0.43841300  0.08428300  1
  H  235  1  0.84940600  0.46734700  0.03312700  1
  H  236  1  0.93200400  0.50407700  0.03338000  1
  H  237  1  0.01980900  0.38841800  0.96651200  1
  H  238  1  0.93839100  0.35198000  0.96896800  1
  H  239  1  0.86744100  0.34788300  0.91503100  1
  H  240  1  0.84581100  0.28353500  0.85421800  1
  H  241  1  0.73209300  0.25375200  0.92458000  1
  H  242  1  0.75930100  0.31626600  0.98696400  1
  H  243  1  0.73112900  0.39888700  0.04863900  1
  H  244  1  0.79679800  0.41404800  0.94969200  1
  H  245  1  0.71276700  0.44914600  0.94948800  1
  H  246  1  0.65072200  0.43857800  0.05209100  1
  H  249  1  0.72073000  0.38822600  0.43838000  1
  H  250  1  0.73253000  0.40590000  0.40149800  1
  H  251  1  0.66617500  0.41372400  0.42673200  1
  H  256  1  0.74689400  0.60291800  0.55498100  1
  H  257  1  0.81822000  0.58651800  0.55113000  1
  H  258  1  0.77452200  0.58768200  0.59077300  1
  H  263  1  0.38735200  0.04553700  0.60805600  1
  H  264  1  0.39916900  0.99099800  0.59045800  1
  H  265  1  0.33280800  0.00837100  0.58259500  1
  H  270  1  0.41356700  0.94746700  0.39338200  1
  H  271  1  0.48488600  0.96002000  0.40979800  1
  H  272  1  0.44117900  0.99851200  0.40866700  1
  H  277  1  0.05402600  0.55795600  0.95083000  1
  H  278  1  0.06581600  0.59487200  0.00538100  1
  H  279  1  0.99946400  0.56963100  0.98797800  1
  H  284  1  0.08025400  0.44143000  0.04894900  1
  H  285  1  0.15157000  0.44524300  0.03635700  1
  H  286  1  0.10784800  0.40557500  0.99793000  1
  H  291  1  0.22069800  0.60624300  0.55981700  1
  H  292  1  0.23250200  0.58854200  0.59667600  1
  H  293  1  0.16614600  0.58072300  0.57144300  1
  H  298  1  0.24689600  0.39155200  0.44319800  1
  H  299  1  0.31821900  0.40795000  0.44704100  1
  H  300  1  0.27452400  0.40676500  0.40738900  1
  H  305  1  0.88731900  0.94902200  0.39010900  1
  H  306  1  0.89915900  0.00357100  0.40777700  1
  H  307  1  0.83279700  0.98619500  0.41562800  1
  H  312  1  0.91358900  0.04704100  0.60479000  1
  H  313  1  0.98490600  0.03448400  0.58837200  1
  H  314  1  0.94119900  0.99600200  0.58952000  1
  H  319  1  0.55399800  0.43653800  0.04733700  1
  H  320  1  0.56583000  0.39960500  0.99279700  1
  H  321  1  0.49946700  0.42483500  0.01016100  1
  H  326  1  0.58023300  0.55317100  0.94930200  1
  H  327  1  0.65155400  0.54929800  0.96184500  1
  H  328  1  0.60785700  0.58892300  0.00034500  1
  H  333  1  0.08947300  0.17657300  0.27780900  1
  H  334  1  0.01578500  0.18134100  0.29089400  1
  H  335  1  0.05136000  0.13285000  0.27271700  1
  H  340  1  0.07350000  0.17750300  0.46487300  1
  H  341  1  0.07131000  0.23193200  0.48188700  1
  H  342  1  0.13754000  0.20642400  0.47223100  1
  H  347  1  0.75618100  0.09661300  0.81970400  1
  H  348  1  0.68252200  0.10499200  0.81493100  1
  H  349  1  0.71809800  0.13528200  0.86342100  1
  H  354  1  0.74025100  0.28281200  0.81880300  1
  H  355  1  0.73813500  0.24540300  0.76436600  1
  H  356  1  0.80432700  0.26123700  0.78993300  1
  H  361  1  0.42287200  0.71845600  0.89967900  1
  H  362  1  0.34919200  0.70536300  0.89133800  1
  H  363  1  0.38478400  0.72354500  0.86103700  1
  H  368  1  0.40693200  0.53134500  0.71348400  1
  H  369  1  0.40475300  0.51434200  0.75090900  1
  H  370  1  0.47097200  0.52409600  0.73512900  1
  H  375  1  0.58961900  0.81786900  0.72029100  1
  H  376  1  0.51590600  0.81310300  0.70727300  1
  H  377  1  0.55146400  0.86159500  0.72542400  1
  H  382  1  0.57360200  0.81695000  0.53320400  1
  H  383  1  0.57142200  0.76252100  0.51620300  1
  H  384  1  0.63764000  0.78805700  0.52596800  1
  H  389  1  0.25622600  0.89786400  0.17849200  1
  H  390  1  0.18253200  0.88954500  0.18323100  1
  H  391  1  0.21813000  0.85924800  0.13474600  1
  H  396  1  0.24013400  0.71169300  0.17934300  1
  H  397  1  0.23797300  0.74909700  0.23377900  1
  H  398  1  0.30419000  0.73322500  0.20825500  1
  H  403  1  0.92284300  0.27598700  0.09843900  1
  H  404  1  0.84917700  0.28911700  0.10683000  1
  H  405  1  0.88479100  0.27091600  0.13710800  1
  H  410  1  0.90691800  0.46307800  0.28464900  1
  H  411  1  0.90480700  0.48010900  0.24724300  1
  H  412  1  0.97099500  0.47036100  0.26306900  1
  N  252  1  0.69174200  0.48158400  0.49148000  1
  N  259  1  0.79758000  0.50954300  0.50372200  1
  N  266  1  0.35838000  0.00522600  0.51471400  1
  N  273  1  0.46422300  0.98951500  0.48676100  1
  N  280  1  0.02503600  0.50490600  0.99113900  1
  N  287  1  0.13089400  0.49261100  0.00676200  1
  N  294  1  0.19173200  0.51287700  0.50668400  1
  N  301  1  0.29756800  0.48492300  0.49444400  1
  N  308  1  0.85838900  0.98926000  0.48346400  1
  N  315  1  0.96423500  0.00497800  0.51141100  1
  N  322  1  0.52505000  0.48959800  0.00706000  1
  N  329  1  0.63089000  0.50182400  0.99133000  1
  N  336  1  0.08859400  0.14829300  0.34282700  1
  N  343  1  0.07467600  0.22370800  0.40982600  1
  N  350  1  0.75542600  0.18992100  0.84797300  1
  N  357  1  0.74138000  0.18155100  0.77258900  1
  N  364  1  0.42200600  0.65343400  0.80637100  1
  N  371  1  0.40796800  0.58642300  0.81475600  1
  N  378  1  0.58865900  0.84615400  0.65529600  1
  N  385  1  0.57459800  0.77076500  0.58828600  1
  N  392  1  0.25530400  0.80454900  0.15016700  1
  N  399  1  0.24135600  0.81294200  0.22557100  1
  N  406  1  0.92209300  0.34101300  0.19175000  1
  N  413  1  0.90799200  0.40803200  0.18339600  1
