# generated using pymatgen
data_Tb2H6C14S(NO6)2
_symmetry_space_group_name_H-M   'P 1'
_cell_length_a   7.23299000
_cell_length_b   12.43440000
_cell_length_c   14.92982000
_cell_angle_alpha   113.83425000
_cell_angle_beta   103.13567000
_cell_angle_gamma   91.80914000
_symmetry_Int_Tables_number   1
_chemical_formula_structural   Tb2H6C14S(NO6)2
_chemical_formula_sum   'Tb4 H12 C28 S2 N4 O24'
_cell_volume   1184.57341395
_cell_formula_units_Z   2
loop_
 _symmetry_equiv_pos_site_id
 _symmetry_equiv_pos_as_xyz
  1  'x, y, z'
loop_
 _atom_site_type_symbol
 _atom_site_label
 _atom_site_symmetry_multiplicity
 _atom_site_fract_x
 _atom_site_fract_y
 _atom_site_fract_z
 _atom_site_occupancy
  Tb  Tb1  1  0.99468000  0.91769000  0.21114000  1.0
  Tb  Tb2  1  0.50140000  0.70750000  0.79158000  1.0
  Tb  Tb3  1  0.00655000  0.08402000  0.79053000  1.0
  Tb  Tb4  1  0.49000000  0.29654000  0.21315000  1.0
  H  H1  1  0.01937000  0.56571000  0.27559000  1.0
  H  H2  1  0.06662000  0.89521000  0.53754000  1.0
  H  H3  1  0.16832000  0.56608000  0.56090000  1.0
  H  H4  1  0.47858000  0.29186000  0.73422000  1.0
  H  H5  1  0.42359000  0.36413000  0.47128000  1.0
  H  H6  1  0.34345000  0.00820000  0.44943000  1.0
  H  H7  1  0.98242000  0.43549000  0.72541000  1.0
  H  H8  1  0.92936000  0.10377000  0.46413000  1.0
  H  H9  1  0.83134000  0.43251000  0.43928000  1.0
  H  H10  1  0.52520000  0.71161000  0.27115000  1.0
  H  H11  1  0.57556000  0.64100000  0.53492000  1.0
  H  H12  1  0.65556000  0.99573000  0.55481000  1.0
  C  C1  1  0.05164000  0.61551000  0.35779000  1.0
  C  C2  1  0.04527000  0.73852000  0.39887000  1.0
  C  C3  1  0.07618000  0.80046000  0.50364000  1.0
  C  C4  1  0.11837000  0.73781000  0.56378000  1.0
  C  C5  1  0.13144000  0.61624000  0.51577000  1.0
  C  C6  1  0.00637000  0.80007000  0.33084000  1.0
  C  C7  1  0.14150000  0.79933000  0.67559000  1.0
  C  C8  1  0.44915000  0.25973000  0.65192000  1.0
  C  C9  1  0.45060000  0.34249000  0.60982000  1.0
  C  C10  1  0.41870000  0.30143000  0.50506000  1.0
  C  C11  1  0.37936000  0.17872000  0.44559000  1.0
  C  C12  1  0.37577000  0.10357000  0.49454000  1.0
  C  C13  1  0.48325000  0.47180000  0.67596000  1.0
  C  C14  1  0.34723000  0.13030000  0.33337000  1.0
  C  C15  1  0.94964000  0.38496000  0.64325000  1.0
  C  C16  1  0.95463000  0.26170000  0.60261000  1.0
  C  C17  1  0.92131000  0.19882000  0.49780000  1.0
  C  C18  1  0.87767000  0.26105000  0.43735000  1.0
  C  C19  1  0.86738000  0.38290000  0.48490000  1.0
  C  C20  1  0.99417000  0.20067000  0.67105000  1.0
  C  C21  1  0.85251000  0.19916000  0.32557000  1.0
  C  C22  1  0.55410000  0.74348000  0.35332000  1.0
  C  C23  1  0.55273000  0.66119000  0.39575000  1.0
  C  C24  1  0.58083000  0.70288000  0.50038000  1.0
  C  C25  1  0.61802000  0.82567000  0.55931000  1.0
  C  C26  1  0.62381000  0.90030000  0.51013000  1.0
  C  C27  1  0.52206000  0.53217000  0.32980000  1.0
  C  C28  1  0.64351000  0.87539000  0.67114000  1.0
  S  S1  1  0.74277000  0.81853000  0.00182000  1.0
  S  S2  1  0.25571000  0.18187000  0.00014000  1.0
  N  N1  1  0.09407000  0.55452000  0.41445000  1.0
  N  N2  1  0.41403000  0.14186000  0.59588000  1.0
  N  N3  1  0.90706000  0.44539000  0.58615000  1.0
  N  N4  1  0.58774000  0.86130000  0.40890000  1.0
  O  O1  1  0.99199000  0.74196000  0.23566000  1.0
  O  O2  1  0.99221000  0.91146000  0.36713000  1.0
  O  O3  1  0.08140000  0.89866000  0.70975000  1.0
  O  O4  1  0.21509000  0.74785000  0.73202000  1.0
  O  O5  1  0.72409000  0.92779000  0.09076000  1.0
  O  O6  1  0.91700000  0.77254000  0.04365000  1.0
  O  O7  1  0.48232000  0.50865000  0.76945000  1.0
  O  O8  1  0.50916000  0.54704000  0.63952000  1.0
  O  O9  1  0.38283000  0.20132000  0.29633000  1.0
  O  O10  1  0.28668000  0.01907000  0.27870000  1.0
  O  O11  1  0.76665000  0.84294000  0.91353000  1.0
  O  O12  1  0.56430000  0.72925000  0.95906000  1.0
  O  O13  1  0.00823000  0.25911000  0.76616000  1.0
  O  O14  1  0.00921000  0.08936000  0.63505000  1.0
  O  O15  1  0.91841000  0.10163000  0.29236000  1.0
  O  O16  1  0.77064000  0.24716000  0.26791000  1.0
  O  O17  1  0.27061000  0.07101000  0.91124000  1.0
  O  O18  1  0.08162000  0.22810000  0.95853000  1.0
  O  O19  1  0.52276000  0.49505000  0.23614000  1.0
  O  O20  1  0.49668000  0.45742000  0.36679000  1.0
  O  O21  1  0.59200000  0.80676000  0.70711000  1.0
  O  O22  1  0.71348000  0.98518000  0.72624000  1.0
  O  O23  1  0.23159000  0.15822000  0.08870000  1.0
  O  O24  1  0.43468000  0.27045000  0.04211000  1.0
