# generated using pymatgen
data_H13C16N2O
_symmetry_space_group_name_H-M   'P 1'
_cell_length_a   15.71930000
_cell_length_b   15.71930000
_cell_length_c   62.87720000
_cell_angle_alpha   90.00000000
_cell_angle_beta   90.00000000
_cell_angle_gamma   90.00000000
_symmetry_Int_Tables_number   1
_chemical_formula_structural   H13C16N2O
_chemical_formula_sum   'H104 C128 N16 O8'
_cell_volume   15536.72928987
_cell_formula_units_Z   8
loop_
 _symmetry_equiv_pos_site_id
 _symmetry_equiv_pos_as_xyz
  1  'x, y, z'
loop_
 _atom_site_type_symbol
 _atom_site_label
 _atom_site_symmetry_multiplicity
 _atom_site_fract_x
 _atom_site_fract_y
 _atom_site_fract_z
 _atom_site_occupancy
  C  1  1  0.00216500  0.04010000  0.12060000  1
  C  2  1  0.00240100  0.01874400  0.09841100  1
  C  3  1  0.00588700  0.07987800  0.08180600  1
  C  4  1  0.00751800  0.16683500  0.08726000  1
  C  5  1  0.00682200  0.19223100  0.10873400  1
  C  6  1  0.00463700  0.12927700  0.12477800  1
  C  9  1  0.00000900  0.97790900  0.13763100  1
  C  10  1  0.00304300  0.88857900  0.13358000  1
  C  11  1  0.00059100  0.82613900  0.14975900  1
  C  12  1  0.99646500  0.85215900  0.17117200  1
  C  13  1  0.99333200  0.93916900  0.17645200  1
  C  14  1  0.99466500  0.99979300  0.15975900  1
  C  25  1  0.98547900  0.01184700  0.62074200  1
  C  26  1  0.00666000  0.01203800  0.59853000  1
  C  27  1  0.94524500  0.01493800  0.58199000  1
  C  28  1  0.85834200  0.01585400  0.58749300  1
  C  29  1  0.83321300  0.01545000  0.60897600  1
  C  30  1  0.89632100  0.01391000  0.62497500  1
  C  33  1  0.04770200  0.00986800  0.63776900  1
  C  34  1  0.13701800  0.01226200  0.63368400  1
  C  35  1  0.19948900  0.00979800  0.64985600  1
  C  36  1  0.17358000  0.00625900  0.67128300  1
  C  37  1  0.08659600  0.00379700  0.67659500  1
  C  38  1  0.02591200  0.00521600  0.65991800  1
  C  49  1  0.01443100  0.04022200  0.88789100  1
  C  50  1  0.01318400  0.01901800  0.91009600  1
  C  51  1  0.01032600  0.08036300  0.92665400  1
  C  52  1  0.00874300  0.16726400  0.92117800  1
  C  53  1  0.01059300  0.19246000  0.89970300  1
  C  54  1  0.01360200  0.12942400  0.88368900  1
  C  57  1  0.01549200  0.97795600  0.87086300  1
  C  58  1  0.01398600  0.88863300  0.87497900  1
  C  59  1  0.01317700  0.82610700  0.85881500  1
  C  60  1  0.01317000  0.85192600  0.83736900  1
  C  61  1  0.01658800  0.93883200  0.83202300  1
  C  62  1  0.01748400  0.99963600  0.84867600  1
  C  73  1  0.02743200  0.01074600  0.38770500  1
  C  74  1  0.00610900  0.01691100  0.40984500  1
  C  75  1  0.06739700  0.01938100  0.42641500  1
  C  76  1  0.15433600  0.01673300  0.42099500  1
  C  77  1  0.17961200  0.01069800  0.39956600  1
  C  78  1  0.11658000  0.00684400  0.38355700  1
  C  81  1  0.96522600  0.00927600  0.37067800  1
  C  82  1  0.87592800  0.00756000  0.37481300  1
  C  83  1  0.81337100  0.00779500  0.35865500  1
  C  84  1  0.83919000  0.00941600  0.33720800  1
  C  85  1  0.92616900  0.00902100  0.33185200  1
  C  86  1  0.98700900  0.00975400  0.34850000  1
  C  97  1  0.99747400  0.01429100  0.23147700  1
  C  98  1  0.04895900  0.06788000  0.24413000  1
  C  99  1  0.05262500  0.06060300  0.26659600  1
  C  100  1  0.00247100  0.99763600  0.27710200  1
  C  101  1  0.94952600  0.94306900  0.26463300  1
  C  103  1  0.94755700  0.95302200  0.24221000  1
  C  105  1  0.10862000  0.12009000  0.27866900  1
  C  109  1  0.89520700  0.87390900  0.27356800  1
  C  113  1  0.99459500  0.02403000  0.20929200  1
  C  115  1  0.00732500  0.98934700  0.29920700  1
  C  117  1  0.01200800  0.00910800  0.73163600  1
  C  118  1  0.95892200  0.06115600  0.74427900  1
  C  119  1  0.96650200  0.06515200  0.76673600  1
  C  120  1  0.02929800  0.01479300  0.77724500  1
  C  121  1  0.08336600  0.96129200  0.76479100  1
  C  123  1  0.07311700  0.95901800  0.74237900  1
  C  125  1  0.90742800  0.12165000  0.77879300  1
  C  129  1  0.15227400  0.90667700  0.77373700  1
  C  133  1  0.00198100  0.00575600  0.70944500  1
  C  135  1  0.03770100  0.01980500  0.79934500  1
  C  137  1  0.02357800  0.00419500  0.98154000  1
  C  138  1  0.95144700  0.03917800  0.99167900  1
  C  139  1  0.94214300  0.03906900  0.01412900  1
  C  140  1  0.00780500  0.00366400  0.02713100  1
  C  141  1  0.08252600  0.97074500  0.01714000  1
  C  143  1  0.08842300  0.97084100  0.99463900  1
  C  145  1  0.86265500  0.07505700  0.02347400  1
  C  149  1  0.15719000  0.93573400  0.02888600  1
  C  153  1  0.03156100  0.00087100  0.95939900  1
  C  155  1  0.99533900  0.99608700  0.04909900  1
  C  157  1  0.99620500  0.00892200  0.48125200  1
  C  158  1  0.97360100  0.93776400  0.49373500  1
  C  159  1  0.98313100  0.93693600  0.51616300  1
  C  160  1  0.01541100  0.01056900  0.52678900  1
  C  161  1  0.03713000  0.08376600  0.51442700  1
  C  163  1  0.02761100  0.08127800  0.49199100  1
  C  165  1  0.95915500  0.85810300  0.52796200  1
  C  169  1  0.06842000  0.16555500  0.52357300  1
  C  173  1  0.98500800  0.00873000  0.45916600  1
  C  175  1  0.02777700  0.00846000  0.54884300  1
  C  177  1  0.00542900  0.41493200  0.12981400  1
  C  178  1  0.00035300  0.46140900  0.14888000  1
  C  179  1  0.99993900  0.55146500  0.14936600  1
  C  180  1  0.00534300  0.59859200  0.12980900  1
  C  181  1  0.01067800  0.55140800  0.11027900  1
  C  183  1  0.01042900  0.46132100  0.11069800  1
  C  185  1  0.99357400  0.59093300  0.17091300  1
  C  189  1  0.01694500  0.59245900  0.08886800  1
  C  193  1  0.00508800  0.32512500  0.13043700  1
  C  195  1  0.00547300  0.68931000  0.12904600  1
  C  197  1  0.61062800  0.01319100  0.63004400  1
  C  198  1  0.56403500  0.00777000  0.64908300  1
  C  199  1  0.47398100  0.00729900  0.64952200  1
  C  200  1  0.42701400  0.01313300  0.62994700  1
  C  201  1  0.47432400  0.01862900  0.61044100  1
  C  203  1  0.56439300  0.01835000  0.61090500  1
  C  205  1  0.43438100  0.00036800  0.67104100  1
  C  209  1  0.43343300  0.02523300  0.58901800  1
  C  213  1  0.70041500  0.01308300  0.63071200  1
  C  215  1  0.33631500  0.01358500  0.62914200  1
  C  217  1  0.01144200  0.41506800  0.87866700  1
  C  218  1  0.01537100  0.46165900  0.85960600  1
  C  219  1  0.01541100  0.55170600  0.85916000  1
  C  220  1  0.01106400  0.59865600  0.87876200  1
  C  221  1  0.00689500  0.55135000  0.89828700  1
  C  223  1  0.00724200  0.46128200  0.89782100  1
  C  225  1  0.02042200  0.59129500  0.83760600  1
  C  229  1  0.00155500  0.59223700  0.91973400  1
  C  233  1  0.01206900  0.32529600  0.87799400  1
  C  235  1  0.01099500  0.68934900  0.87957300  1
  C  237  1  0.40232500  0.00451600  0.37859400  1
  C  238  1  0.44892200  0.99886300  0.35955600  1
  C  239  1  0.53897700  0.99931800  0.35909700  1
  C  240  1  0.58595700  0.00593100  0.37865200  1
  C  241  1  0.53865800  0.01142100  0.39816000  1
  C  243  1  0.44858000  0.01062000  0.39771200  1
  C  245  1  0.57858400  0.99226100  0.33758000  1
  C  249  1  0.57957000  0.01905500  0.41956100  1
  C  253  1  0.31253000  0.00408300  0.37793000  1
  C  255  1  0.67665400  0.00712100  0.37943300  1
  H  7  1  0.99958900  0.95712500  0.09365700  1
  H  16  1  0.98952800  0.06134800  0.16445100  1
  H  17  1  0.95179400  0.24139500  0.06813700  1
  H  18  1  0.05158800  0.78506600  0.19203600  1
  H  19  1  0.00646500  0.15105200  0.13992300  1
  H  20  1  0.00780800  0.86633900  0.11849500  1
  H  31  1  0.06822400  0.00933000  0.59369400  1
  H  40  1  0.96436500  0.00080100  0.66465600  1
  H  41  1  0.78389500  0.95901800  0.56853800  1
  H  42  1  0.24095600  0.06131400  0.69210300  1
  H  43  1  0.87459900  0.01562500  0.64012400  1
  H  44  1  0.15919500  0.01632500  0.61857900  1
  H  55  1  0.01319700  0.95740800  0.91493900  1
  H  64  1  0.01882800  0.06122000  0.84385900  1
  H  65  1  0.06332600  0.24183300  0.94050600  1
  H  66  1  0.95400500  0.78489700  0.81720600  1
  H  67  1  0.01424600  0.15125800  0.86854900  1
  H  68  1  0.01319800  0.86640900  0.89011000  1
  H  79  1  0.94457000  0.02238300  0.41458400  1
  H  88  1  0.04858800  0.01301100  0.34370800  1
  H  89  1  0.22697200  0.96300300  0.44091000  1
  H  90  1  0.77061800  0.06739200  0.31715000  1
  H  91  1  0.13825400  0.00034900  0.36848000  1
  H  92  1  0.85385700  0.00466500  0.38994700  1
  H  102  1  0.08518500  0.11325200  0.23675000  1
  H  104  1  0.90880500  0.91406600  0.23343000  1
  H  106  1  0.14197400  0.16518700  0.26842500  1
  H  107  1  0.15651600  0.08404600  0.28743000  1
  H  108  1  0.07052600  0.15671500  0.28993700  1
  H  110  1  0.90131200  0.86608100  0.29070800  1
  H  111  1  0.91233300  0.81327000  0.26626300  1
  H  112  1  0.82847100  0.88724600  0.27007700  1
  H  114  1  0.02338200  0.07409700  0.20289400  1
  H  116  1  0.05989700  0.96563100  0.30565600  1
  H  122  1  0.91367200  0.09752700  0.73690000  1
  H  124  1  0.11170000  0.91984900  0.73361300  1
  H  126  1  0.86239400  0.15507800  0.76854700  1
  H  127  1  0.94381000  0.16950100  0.78748100  1
  H  128  1  0.87072500  0.08392900  0.79012300  1
  H  130  1  0.16033000  0.91302700  0.79086400  1
  H  131  1  0.21293700  0.92328400  0.76637000  1
  H  132  1  0.13845800  0.83996900  0.77032700  1
  H  134  1  0.95167900  0.03468600  0.70320100  1
  H  136  1  0.06075600  0.07268300  0.80578300  1
  H  142  1  0.90359500  0.06337100  0.98242900  1
  H  144  1  0.14186200  0.94621800  0.98760000  1
  H  146  1  0.81832400  0.09852300  0.01145800  1
  H  147  1  0.87837800  0.12826000  0.03391700  1
  H  148  1  0.82980700  0.02630100  0.03270700  1
  H  150  1  0.15204500  0.94146600  0.04610300  1
  H  151  1  0.21477700  0.96964200  0.02412200  1
  H  152  1  0.16488800  0.86846300  0.02504000  1
  H  154  1  0.06192500  0.95202000  0.95281800  1
  H  156  1  0.00408700  0.93911800  0.05551600  1
  H  162  1  0.95040100  0.88480600  0.48622900  1
  H  164  1  0.04290500  0.13414900  0.48323900  1
  H  166  1  0.93811700  0.80678400  0.51750600  1
  H  167  1  0.90719900  0.87188900  0.53894900  1
  H  168  1  0.01368000  0.83473700  0.53698000  1
  H  170  1  0.07022700  0.16635300  0.54088600  1
  H  171  1  0.02686800  0.21753100  0.51857600  1
  H  172  1  0.13263700  0.17829300  0.51778100  1
  H  174  1  0.94252500  0.96831500  0.45323600  1
  H  176  1  0.08400700  0.02586200  0.55454300  1
  H  182  1  0.99653200  0.42820300  0.16287600  1
  H  184  1  0.01426600  0.42845800  0.09667900  1
  H  186  1  0.98925400  0.54483000  0.18386300  1
  H  187  1  0.93654800  0.63034900  0.17181600  1
  H  188  1  0.05001000  0.62940200  0.17395800  1
  H  190  1  0.07392400  0.63205300  0.08813400  1
  H  191  1  0.96093900  0.63191400  0.08604500  1
  H  192  1  0.02088700  0.54699900  0.07576500  1
  H  194  1  0.00141200  0.29522000  0.14483800  1
  H  196  1  0.00851400  0.71944600  0.11474600  1
  H  202  1  0.59714300  0.00374900  0.66308900  1
  H  204  1  0.59735200  0.02241300  0.59690500  1
  H  206  1  0.48039300  0.99530400  0.68399700  1
  H  207  1  0.39463200  0.94354000  0.67180600  1
  H  208  1  0.39624200  0.05691900  0.67420000  1
  H  210  1  0.39395100  0.08229200  0.58831000  1
  H  211  1  0.39389600  0.96933300  0.58613500  1
  H  212  1  0.47899300  0.02924700  0.57593700  1
  H  214  1  0.73030100  0.00946700  0.64511600  1
  H  216  1  0.30624400  0.01673900  0.61483300  1
  H  222  1  0.01850800  0.42855400  0.84558500  1
  H  224  1  0.00423600  0.42831100  0.91183800  1
  H  226  1  0.02448900  0.54528400  0.82462800  1
  H  227  1  0.07704900  0.63120900  0.83653100  1
  H  228  1  0.96349000  0.62925600  0.83475100  1
  H  230  1  0.94462500  0.63184500  0.92063900  1
  H  231  1  0.05769000  0.63164800  0.92242700  1
  H  232  1  0.99815400  0.54667600  0.93282500  1
  H  234  1  0.01522600  0.29545400  0.86357700  1
  H  236  1  0.00944400  0.71943600  0.89389600  1
  H  242  1  0.41581500  0.99433100  0.34556100  1
  H  244  1  0.41562700  0.01485600  0.41171000  1
  H  246  1  0.53260300  0.98557400  0.32466500  1
  H  247  1  0.61965000  0.93634800  0.33694200  1
  H  248  1  0.61536200  0.04954800  0.33425600  1
  H  250  1  0.61870100  0.07638700  0.42013200  1
  H  251  1  0.61946000  0.96351500  0.42255900  1
  H  252  1  0.53402400  0.02324900  0.43263900  1
  H  254  1  0.28267600  0.00001800  0.36352900  1
  H  256  1  0.70677300  0.00985700  0.39374200  1
  N  21  1  0.98776900  0.95728700  0.19722400  1
  N  22  1  0.00186700  0.74106500  0.14615900  1
  N  23  1  0.00741000  0.27715200  0.11260500  1
  N  24  1  0.00670700  0.06253000  0.06094700  1
  N  45  1  0.06861200  0.99871700  0.69737800  1
  N  46  1  0.28453800  0.01052500  0.64624900  1
  N  47  1  0.74834900  0.01557500  0.61288400  1
  N  48  1  0.96196000  0.01439200  0.56112900  1
  N  69  1  0.01664400  0.95662600  0.81120300  1
  N  70  1  0.01224700  0.74108500  0.86244600  1
  N  71  1  0.00990200  0.27732600  0.89581800  1
  N  72  1  0.00758500  0.06292000  0.94748700  1
  N  93  1  0.94393100  0.01006800  0.31103300  1
  N  94  1  0.72833600  0.00690800  0.36228900  1
  N  95  1  0.26450700  0.00918900  0.39571300  1
  N  96  1  0.04959800  0.02694300  0.44715900  1
  O  8  1  0.01106400  0.22721400  0.07164500  1
  O  15  1  0.99294400  0.79245500  0.18693400  1
  O  32  1  0.79772200  0.01848900  0.57191800  1
  O  39  1  0.23334000  0.00265500  0.68703100  1
  O  56  1  0.00427400  0.22771100  0.93676400  1
  O  63  1  0.01356500  0.79211700  0.82160800  1
  O  80  1  0.21474400  0.02182100  0.43657300  1
  O  87  1  0.77939100  0.00791900  0.32144900  1
