# generated using pymatgen
data_CdH42C38(NO2)4
_symmetry_space_group_name_H-M   'P 1'
_cell_length_a   13.57764000
_cell_length_b   15.13523000
_cell_length_c   19.49454000
_cell_angle_alpha   90.03725000
_cell_angle_beta   90.13303000
_cell_angle_gamma   89.96724000
_symmetry_Int_Tables_number   1
_chemical_formula_structural   CdH42C38(NO2)4
_chemical_formula_sum   'Cd4 H168 C152 N16 O32'
_cell_volume   4006.12940296
_cell_formula_units_Z   4
loop_
 _symmetry_equiv_pos_site_id
 _symmetry_equiv_pos_as_xyz
  1  'x, y, z'
loop_
 _atom_site_type_symbol
 _atom_site_label
 _atom_site_symmetry_multiplicity
 _atom_site_fract_x
 _atom_site_fract_y
 _atom_site_fract_z
 _atom_site_occupancy
  Cd  Cd1  1  0.69302000  0.86202000  0.03378000  1.0
  Cd  Cd2  1  0.80775000  0.13635000  0.53474000  1.0
  Cd  Cd3  1  0.30736000  0.36281000  0.46499000  1.0
  Cd  Cd4  1  0.19233000  0.63562000  0.96453000  1.0
  H  H1  1  0.73477000  0.96364000  0.89474000  1.0
  H  H2  1  0.66035000  0.91390000  0.30056000  1.0
  H  H3  1  0.54583000  0.77191000  0.36261000  1.0
  H  H4  1  0.75871000  0.82264000  0.89401000  1.0
  H  H5  1  0.91291000  0.78315000  0.94596000  1.0
  H  H6  1  0.07236000  0.87685000  0.09372000  1.0
  H  H7  1  0.87981000  0.95156000  0.76755000  1.0
  H  H8  1  0.95871000  0.89408000  0.66068000  1.0
  H  H9  1  0.12301000  0.94543000  0.98548000  1.0
  H  H10  1  0.82501000  0.68501000  0.90179000  1.0
  H  H11  1  0.97251000  0.59448000  0.67844000  1.0
  H  H12  1  0.00920000  0.02563000  0.07038000  1.0
  H  H13  1  0.99843000  0.06545000  0.98529000  1.0
  H  H14  1  0.83970000  0.01401000  0.97197000  1.0
  H  H15  1  0.83681000  0.00300000  0.06246000  1.0
  H  H16  1  0.69568000  0.69192000  0.37768000  1.0
  H  H17  1  0.98937000  0.95629000  0.89047000  1.0
  H  H18  1  0.04721000  0.85166000  0.89666000  1.0
  H  H19  1  0.66353000  0.94385000  0.17422000  1.0
  H  H20  1  0.80577000  0.53580000  0.10449000  1.0
  H  H21  1  0.77385000  0.61071000  0.31572000  1.0
  H  H22  1  0.93020000  0.48108000  0.76706000  1.0
  H  H23  1  0.75019000  0.68507000  0.06702000  1.0
  H  H24  1  0.90266000  0.86597000  0.11073000  1.0
  H  H25  1  0.90693000  0.76900000  0.05938000  1.0
  H  H26  1  0.83532000  0.47182000  0.98357000  1.0
  H  H27  1  0.90319000  0.57372000  0.97674000  1.0
  H  H28  1  0.77299000  0.57230000  0.95972000  1.0
  H  H29  1  0.88923000  0.39604000  0.29273000  1.0
  H  H30  1  0.91918000  0.50970000  0.30999000  1.0
  H  H31  1  0.79929000  0.46721000  0.33068000  1.0
  H  H32  1  0.76632000  0.88156000  0.39294000  1.0
  H  H33  1  0.71471000  0.74430000  0.49934000  1.0
  H  H34  1  0.70899000  0.86003000  0.50483000  1.0
  H  H35  1  0.01657000  0.83141000  0.40670000  1.0
  H  H36  1  0.92960000  0.91365000  0.38317000  1.0
  H  H37  1  0.84494000  0.65116000  0.41222000  1.0
  H  H38  1  0.97068000  0.67926000  0.40570000  1.0
  H  H39  1  0.98046000  0.71324000  0.52414000  1.0
  H  H40  1  0.86415000  0.66170000  0.53197000  1.0
  H  H41  1  0.84921000  0.81279000  0.57748000  1.0
  H  H42  1  0.99306000  0.87544000  0.52072000  1.0
  H  H43  1  0.76077000  0.03179000  0.39465000  1.0
  H  H44  1  0.84026000  0.08575000  0.80227000  1.0
  H  H45  1  0.95420000  0.22661000  0.86348000  1.0
  H  H46  1  0.74087000  0.17300000  0.39408000  1.0
  H  H47  1  0.58654000  0.21555000  0.44615000  1.0
  H  H48  1  0.42755000  0.12014000  0.59384000  1.0
  H  H49  1  0.61787000  0.04744000  0.26653000  1.0
  H  H50  1  0.53987000  0.10696000  0.15991000  1.0
  H  H51  1  0.37671000  0.05225000  0.48524000  1.0
  H  H52  1  0.67472000  0.31172000  0.40354000  1.0
  H  H53  1  0.52738000  0.40634000  0.18075000  1.0
  H  H54  1  0.49095000  0.97143000  0.56928000  1.0
  H  H55  1  0.50275000  0.93323000  0.48378000  1.0
  H  H56  1  0.66132000  0.98492000  0.47287000  1.0
  H  H57  1  0.66278000  0.99647000  0.56333000  1.0
  H  H58  1  0.80345000  0.30779000  0.87890000  1.0
  H  H59  1  0.50983000  0.04282000  0.39022000  1.0
  H  H60  1  0.45157000  0.14718000  0.39694000  1.0
  H  H61  1  0.83728000  0.05511000  0.67596000  1.0
  H  H62  1  0.69490000  0.46278000  0.60480000  1.0
  H  H63  1  0.72660000  0.38895000  0.81627000  1.0
  H  H64  1  0.57006000  0.51802000  0.27087000  1.0
  H  H65  1  0.75097000  0.31353000  0.56779000  1.0
  H  H66  1  0.59715000  0.13253000  0.61103000  1.0
  H  H67  1  0.59187000  0.22961000  0.56004000  1.0
  H  H68  1  0.66621000  0.52469000  0.48685000  1.0
  H  H69  1  0.59826000  0.42285000  0.48039000  1.0
  H  H70  1  0.72816000  0.42429000  0.46268000  1.0
  H  H71  1  0.61027000  0.60409000  0.79147000  1.0
  H  H72  1  0.57973000  0.49066000  0.80900000  1.0
  H  H73  1  0.69942000  0.53319000  0.83084000  1.0
  H  H74  1  0.73373000  0.11773000  0.89330000  1.0
  H  H75  1  0.78466000  0.25487000  0.00032000  1.0
  H  H76  1  0.79131000  0.13914000  0.00538000  1.0
  H  H77  1  0.48356000  0.16764000  0.90600000  1.0
  H  H78  1  0.57033000  0.08573000  0.88185000  1.0
  H  H79  1  0.65437000  0.34803000  0.91346000  1.0
  H  H80  1  0.52886000  0.31948000  0.90614000  1.0
  H  H81  1  0.51871000  0.28415000  0.02424000  1.0
  H  H82  1  0.63460000  0.33619000  0.03311000  1.0
  H  H83  1  0.65035000  0.18442000  0.07747000  1.0
  H  H84  1  0.50711000  0.12176000  0.01950000  1.0
  H  H85  1  0.26545000  0.46417000  0.60528000  1.0
  H  H86  1  0.34016000  0.41400000  0.19790000  1.0
  H  H87  1  0.45506000  0.27320000  0.13605000  1.0
  H  H88  1  0.24259000  0.32315000  0.60575000  1.0
  H  H89  1  0.08777000  0.28352000  0.55385000  1.0
  H  H90  1  0.92874000  0.37819000  0.40684000  1.0
  H  H91  1  0.12412000  0.45026000  0.73403000  1.0
  H  H92  1  0.04281000  0.39222000  0.83974000  1.0
  H  H93  1  0.87769000  0.44547000  0.51559000  1.0
  H  H94  1  0.17405000  0.18572000  0.59643000  1.0
  H  H95  1  0.02894000  0.09286000  0.81982000  1.0
  H  H96  1  0.99076000  0.52650000  0.43095000  1.0
  H  H97  1  0.00202000  0.56571000  0.51625000  1.0
  H  H98  1  0.16116000  0.51472000  0.52843000  1.0
  H  H99  1  0.16315000  0.50365000  0.43802000  1.0
  H  H100  1  0.30534000  0.19154000  0.12108000  1.0
  H  H101  1  0.01240000  0.45660000  0.61016000  1.0
  H  H102  1  0.95431000  0.35212000  0.60443000  1.0
  H  H103  1  0.33595000  0.44460000  0.32410000  1.0
  H  H104  1  0.19376000  0.03716000  0.39449000  1.0
  H  H105  1  0.22901000  0.10999000  0.18320000  1.0
  H  H106  1  0.07335000  0.98019000  0.73093000  1.0
  H  H107  1  0.25108000  0.18585000  0.43170000  1.0
  H  H108  1  0.09816000  0.36694000  0.38962000  1.0
  H  H109  1  0.09440000  0.26981000  0.44073000  1.0
  H  H110  1  0.16401000  0.97351000  0.51325000  1.0
  H  H111  1  0.09636000  0.07545000  0.52108000  1.0
  H  H112  1  0.22660000  0.07356000  0.53768000  1.0
  H  H113  1  0.10970000  0.89642000  0.20722000  1.0
  H  H114  1  0.08003000  0.01020000  0.19013000  1.0
  H  H115  1  0.19934000  0.96706000  0.16850000  1.0
  H  H116  1  0.23446000  0.38106000  0.10589000  1.0
  H  H117  1  0.28605000  0.24393000  0.99924000  1.0
  H  H118  1  0.29131000  0.35966000  0.99394000  1.0
  H  H119  1  0.98437000  0.32990000  0.09263000  1.0
  H  H120  1  0.07031000  0.41260000  0.11683000  1.0
  H  H121  1  0.15593000  0.15046000  0.08675000  1.0
  H  H122  1  0.03041000  0.17890000  0.09364000  1.0
  H  H123  1  0.01990000  0.21291000  0.97527000  1.0
  H  H124  1  0.13621000  0.16124000  0.96700000  1.0
  H  H125  1  0.15065000  0.31256000  0.92178000  1.0
  H  H126  1  0.00742000  0.37551000  0.97909000  1.0
  H  H127  1  0.23889000  0.53191000  0.10532000  1.0
  H  H128  1  0.15839000  0.58561000  0.69696000  1.0
  H  H129  1  0.04498000  0.73016000  0.63634000  1.0
  H  H130  1  0.25820000  0.67274000  0.10539000  1.0
  H  H131  1  0.41243000  0.71565000  0.05343000  1.0
  H  H132  1  0.57102000  0.61922000  0.90562000  1.0
  H  H133  1  0.37678000  0.54807000  0.23347000  1.0
  H  H134  1  0.45621000  0.60587000  0.34028000  1.0
  H  H135  1  0.62319000  0.55301000  0.01462000  1.0
  H  H136  1  0.32697000  0.81383000  0.09683000  1.0
  H  H137  1  0.47130000  0.90486000  0.32153000  1.0
  H  H138  1  0.50973000  0.47132000  0.93068000  1.0
  H  H139  1  0.49799000  0.43331000  0.01616000  1.0
  H  H140  1  0.33868000  0.48407000  0.02649000  1.0
  H  H141  1  0.33797000  0.49615000  0.93611000  1.0
  H  H142  1  0.19743000  0.80923000  0.62187000  1.0
  H  H143  1  0.49056000  0.54368000  0.10977000  1.0
  H  H144  1  0.54785000  0.64832000  0.10261000  1.0
  H  H145  1  0.16099000  0.55462000  0.82312000  1.0
  H  H146  1  0.31048000  0.95973000  0.89546000  1.0
  H  H147  1  0.27283000  0.88833000  0.68391000  1.0
  H  H148  1  0.42641000  0.01832000  0.23338000  1.0
  H  H149  1  0.25115000  0.81148000  0.93211000  1.0
  H  H150  1  0.40163000  0.63262000  0.88881000  1.0
  H  H151  1  0.40705000  0.72937000  0.94040000  1.0
  H  H152  1  0.33541000  0.02731000  0.01579000  1.0
  H  H153  1  0.40339000  0.92548000  0.02279000  1.0
  H  H154  1  0.27318000  0.92688000  0.03923000  1.0
  H  H155  1  0.39366000  0.10027000  0.70785000  1.0
  H  H156  1  0.41994000  0.98636000  0.68853000  1.0
  H  H157  1  0.30043000  0.03201000  0.67018000  1.0
  H  H158  1  0.26464000  0.61878000  0.60556000  1.0
  H  H159  1  0.21404000  0.75662000  0.49906000  1.0
  H  H160  1  0.20722000  0.64095000  0.49354000  1.0
  H  H161  1  0.51513000  0.66845000  0.59291000  1.0
  H  H162  1  0.42863000  0.58633000  0.61698000  1.0
  H  H163  1  0.34496000  0.84905000  0.58622000  1.0
  H  H164  1  0.47025000  0.81978000  0.59356000  1.0
  H  H165  1  0.48042000  0.78489000  0.47531000  1.0
  H  H166  1  0.36497000  0.83770000  0.46652000  1.0
  H  H167  1  0.34826000  0.68614000  0.42177000  1.0
  H  H168  1  0.49109000  0.62251000  0.47946000  1.0
  C  C1  1  0.68175000  0.86192000  0.26503000  1.0
  C  C2  1  0.82357000  0.86249000  0.87995000  1.0
  C  C3  1  0.89942000  0.85391000  0.93885000  1.0
  C  C4  1  0.70511000  0.77890000  0.29014000  1.0
  C  C5  1  0.92755000  0.70491000  0.74101000  1.0
  C  C6  1  0.03527000  0.85427000  0.04681000  1.0
  C  C7  1  0.73133000  0.73458000  0.17047000  1.0
  C  C8  1  0.86737000  0.82454000  0.81448000  1.0
  C  C9  1  0.88470000  0.73198000  0.80500000  1.0
  C  C10  1  0.89346000  0.88132000  0.76190000  1.0
  C  C11  1  0.93772000  0.84892000  0.70177000  1.0
  C  C12  1  0.04509000  0.92846000  0.99222000  1.0
  C  C13  1  0.86119000  0.66617000  0.85441000  1.0
  C  C14  1  0.94212000  0.61350000  0.72789000  1.0
  C  C15  1  0.98584000  0.00785000  0.01819000  1.0
  C  C16  1  0.87578000  0.98273000  0.01577000  1.0
  C  C17  1  0.69283000  0.76327000  0.36667000  1.0
  C  C18  1  0.88071000  0.57795000  0.84085000  1.0
  C  C19  1  0.73504000  0.71270000  0.24223000  1.0
  C  C20  1  0.99934000  0.89841000  0.92384000  1.0
  C  C21  1  0.68301000  0.87908000  0.19450000  1.0
  C  C22  1  0.78571000  0.58628000  0.14166000  1.0
  C  C23  1  0.76810000  0.62709000  0.26174000  1.0
  C  C24  1  0.91937000  0.55121000  0.77654000  1.0
  C  C25  1  0.75579000  0.66893000  0.12135000  1.0
  C  C26  1  0.79408000  0.56543000  0.21244000  1.0
  C  C27  1  0.92406000  0.83970000  0.06047000  1.0
  C  C28  1  0.09007000  0.77250000  0.02226000  1.0
  C  C29  1  0.84195000  0.53441000  0.95572000  1.0
  C  C30  1  0.86064000  0.46367000  0.29426000  1.0
  C  C31  1  0.77224000  0.81201000  0.40833000  1.0
  C  C32  1  0.75479000  0.80528000  0.48673000  1.0
  C  C33  1  0.94083000  0.85457000  0.41471000  1.0
  C  C34  1  0.89961000  0.70154000  0.42615000  1.0
  C  C35  1  0.90427000  0.71449000  0.50531000  1.0
  C  C36  1  0.85614000  0.80380000  0.52196000  1.0
  C  C37  1  0.92331000  0.87731000  0.49180000  1.0
  C  C38  1  0.87965000  0.96884000  0.50467000  1.0
  C  C39  1  0.81901000  0.13754000  0.76647000  1.0
  C  C40  1  0.67469000  0.13477000  0.38010000  1.0
  C  C41  1  0.59966000  0.14470000  0.43917000  1.0
  C  C42  1  0.79558000  0.22067000  0.79131000  1.0
  C  C43  1  0.57193000  0.29476000  0.24221000  1.0
  C  C44  1  0.46421000  0.14348000  0.54711000  1.0
  C  C45  1  0.76943000  0.26435000  0.67142000  1.0
  C  C46  1  0.63126000  0.17370000  0.31473000  1.0
  C  C47  1  0.61462000  0.26647000  0.30606000  1.0
  C  C48  1  0.60485000  0.11786000  0.26149000  1.0
  C  C49  1  0.56115000  0.15148000  0.20143000  1.0
  C  C50  1  0.45454000  0.06964000  0.49208000  1.0
  C  C51  1  0.63853000  0.33131000  0.35627000  1.0
  C  C52  1  0.55775000  0.38641000  0.23007000  1.0
  C  C53  1  0.51449000  0.99031000  0.51749000  1.0
  C  C54  1  0.62436000  0.01620000  0.51616000  1.0
  C  C55  1  0.80730000  0.23644000  0.86791000  1.0
  C  C56  1  0.61921000  0.41970000  0.34364000  1.0
  C  C57  1  0.76558000  0.28665000  0.74313000  1.0
  C  C58  1  0.49967000  0.10036000  0.42394000  1.0
  C  C59  1  0.81769000  0.11999000  0.69596000  1.0
  C  C60  1  0.71503000  0.41254000  0.64214000  1.0
  C  C61  1  0.73233000  0.37237000  0.76233000  1.0
  C  C62  1  0.58060000  0.44771000  0.27955000  1.0
  C  C63  1  0.74526000  0.32985000  0.62209000  1.0
  C  C64  1  0.70635000  0.43381000  0.71282000  1.0
  C  C65  1  0.57535000  0.15879000  0.56083000  1.0
  C  C66  1  0.40814000  0.22497000  0.52332000  1.0
  C  C67  1  0.65912000  0.46210000  0.45899000  1.0
  C  C68  1  0.63866000  0.53641000  0.79373000  1.0
  C  C69  1  0.72784000  0.18724000  0.90891000  1.0
  C  C70  1  0.74505000  0.19366000  0.98737000  1.0
  C  C71  1  0.55930000  0.14433000  0.91397000  1.0
  C  C72  1  0.59996000  0.29724000  0.92675000  1.0
  C  C73  1  0.59499000  0.28346000  0.00581000  1.0
  C  C74  1  0.64352000  0.19416000  0.02202000  1.0
  C  C75  1  0.57693000  0.12069000  0.99086000  1.0
  C  C76  1  0.62023000  0.02899000  0.00345000  1.0
  C  C77  1  0.31904000  0.36204000  0.23349000  1.0
  C  C78  1  0.17748000  0.36253000  0.62011000  1.0
  C  C79  1  0.10152000  0.35416000  0.56133000  1.0
  C  C80  1  0.29630000  0.27882000  0.20846000  1.0
  C  C81  1  0.07274000  0.20387000  0.75779000  1.0
  C  C82  1  0.96574000  0.35491000  0.45354000  1.0
  C  C83  1  0.26956000  0.23505000  0.32819000  1.0
  C  C84  1  0.13402000  0.32405000  0.68548000  1.0
  C  C85  1  0.11581000  0.23151000  0.69405000  1.0
  C  C86  1  0.10893000  0.38017000  0.73877000  1.0
  C  C87  1  0.06370000  0.34729000  0.79841000  1.0
  C  C88  1  0.95564000  0.42867000  0.50867000  1.0
  C  C89  1  0.13890000  0.16628000  0.64400000  1.0
  C  C90  1  0.05907000  0.11228000  0.77041000  1.0
  C  C91  1  0.01449000  0.50838000  0.48296000  1.0
  C  C92  1  0.12463000  0.48339000  0.48484000  1.0
  C  C93  1  0.30842000  0.26297000  0.13188000  1.0
  C  C94  1  0.12000000  0.07787000  0.65700000  1.0
  C  C95  1  0.26634000  0.21275000  0.25646000  1.0
  C  C96  1  0.00183000  0.39868000  0.57687000  1.0
  C  C97  1  0.31718000  0.37957000  0.30401000  1.0
  C  C98  1  0.21453000  0.08720000  0.35725000  1.0
  C  C99  1  0.23349000  0.12692000  0.23715000  1.0
  C  C100  1  0.08262000  0.05046000  0.72149000  1.0
  C  C101  1  0.24499000  0.16972000  0.37740000  1.0
  C  C102  1  0.20656000  0.06581000  0.28658000  1.0
  C  C103  1  0.07692000  0.34047000  0.43981000  1.0
  C  C104  1  0.91087000  0.27277000  0.47701000  1.0
  C  C105  1  0.15766000  0.03576000  0.54161000  1.0
  C  C106  1  0.13858000  0.96391000  0.20542000  1.0
  C  C107  1  0.22870000  0.31151000  0.09050000  1.0
  C  C108  1  0.24577000  0.30482000  0.01206000  1.0
  C  C109  1  0.05985000  0.35375000  0.08488000  1.0
  C  C110  1  0.10139000  0.20105000  0.07307000  1.0
  C  C111  1  0.09622000  0.21405000  0.99391000  1.0
  C  C112  1  0.14413000  0.30344000  0.97728000  1.0
  C  C113  1  0.07722000  0.37700000  0.00792000  1.0
  C  C114  1  0.12041000  0.46868000  0.99529000  1.0
  C  C115  1  0.17987000  0.63727000  0.73282000  1.0
  C  C116  1  0.32464000  0.63502000  0.11961000  1.0
  C  C117  1  0.39973000  0.64477000  0.06060000  1.0
  C  C118  1  0.20383000  0.72040000  0.70831000  1.0
  C  C119  1  0.42741000  0.79436000  0.25856000  1.0
  C  C120  1  0.53506000  0.64325000  0.95238000  1.0
  C  C121  1  0.23137000  0.76300000  0.82836000  1.0
  C  C122  1  0.36744000  0.67432000  0.18516000  1.0
  C  C123  1  0.38510000  0.76697000  0.19431000  1.0
  C  C124  1  0.39178000  0.61815000  0.23862000  1.0
  C  C125  1  0.43607000  0.65081000  0.29877000  1.0
  C  C126  1  0.54523000  0.56998000  0.00774000  1.0
  C  C127  1  0.36205000  0.83276000  0.14468000  1.0
  C  C128  1  0.44121000  0.88583000  0.27190000  1.0
  C  C129  1  0.48590000  0.49025000  0.98243000  1.0
  C  C130  1  0.37588000  0.51575000  0.98352000  1.0
  C  C131  1  0.19223000  0.73776000  0.63191000  1.0
  C  C132  1  0.38038000  0.92107000  0.15864000  1.0
  C  C133  1  0.23450000  0.78569000  0.75678000  1.0
  C  C134  1  0.50007000  0.60102000  0.07584000  1.0
  C  C135  1  0.18122000  0.61937000  0.80329000  1.0
  C  C136  1  0.28892000  0.91002000  0.85803000  1.0
  C  C137  1  0.26843000  0.87110000  0.73777000  1.0
  C  C138  1  0.41757000  0.94810000  0.22339000  1.0
  C  C139  1  0.25715000  0.82782000  0.87787000  1.0
  C  C140  1  0.29681000  0.93147000  0.78737000  1.0
  C  C141  1  0.42379000  0.65860000  0.93907000  1.0
  C  C142  1  0.59173000  0.72476000  0.97539000  1.0
  C  C143  1  0.34208000  0.96473000  0.04364000  1.0
  C  C144  1  0.36322000  0.03332000  0.70571000  1.0
  C  C145  1  0.27086000  0.68836000  0.59028000  1.0
  C  C146  1  0.25355000  0.69529000  0.51183000  1.0
  C  C147  1  0.43939000  0.64514000  0.58510000  1.0
  C  C148  1  0.39908000  0.79803000  0.57281000  1.0
  C  C149  1  0.40410000  0.78462000  0.49372000  1.0
  C  C150  1  0.35513000  0.69569000  0.47723000  1.0
  C  C151  1  0.42132000  0.62189000  0.50821000  1.0
  C  C152  1  0.37730000  0.53063000  0.49535000  1.0
  N  N1  1  0.70526000  0.81736000  0.14802000  1.0
  N  N2  1  0.95490000  0.76355000  0.69123000  1.0
  N  N3  1  0.86206000  0.88498000  0.00760000  1.0
  N  N4  1  0.87341000  0.78445000  0.39048000  1.0
  N  N5  1  0.79541000  0.18141000  0.64922000  1.0
  N  N6  1  0.54448000  0.23708000  0.19163000  1.0
  N  N7  1  0.63749000  0.11392000  0.50798000  1.0
  N  N8  1  0.62669000  0.21481000  0.89064000  1.0
  N  N9  1  0.29507000  0.31805000  0.35060000  1.0
  N  N10  1  0.04520000  0.26198000  0.80802000  1.0
  N  N11  1  0.13871000  0.38568000  0.49274000  1.0
  N  N12  1  0.12780000  0.28386000  0.10875000  1.0
  N  N13  1  0.20454000  0.68023000  0.85026000  1.0
  N  N14  1  0.45434000  0.73607000  0.30878000  1.0
  N  N15  1  0.36211000  0.61342000  0.99187000  1.0
  N  N16  1  0.37207000  0.71557000  0.60866000  1.0
  O  O1  1  0.79505000  0.95190000  0.86781000  1.0
  O  O2  1  0.60128000  0.79896000  0.39001000  1.0
  O  O3  1  0.86212000  0.50977000  0.88561000  1.0
  O  O4  1  0.82897000  0.48236000  0.22543000  1.0
  O  O5  1  0.18430000  0.77282000  0.02819000  1.0
  O  O6  1  0.04332000  0.70962000  0.99370000  1.0
  O  O7  1  0.85295000  0.01797000  0.45445000  1.0
  O  O8  1  0.87127000  0.99490000  0.56669000  1.0
  O  O9  1  0.70050000  0.04463000  0.36783000  1.0
  O  O10  1  0.89908000  0.20139000  0.89208000  1.0
  O  O11  1  0.63799000  0.48699000  0.38911000  1.0
  O  O12  1  0.67129000  0.51701000  0.72532000  1.0
  O  O13  1  0.31403000  0.22282000  0.52812000  1.0
  O  O14  1  0.45382000  0.28969000  0.49648000  1.0
  O  O15  1  0.64252000  0.97836000  0.95306000  1.0
  O  O16  1  0.63244000  0.00452000  0.06566000  1.0
  O  O17  1  0.20545000  0.45206000  0.63240000  1.0
  O  O18  1  0.39955000  0.29874000  0.10777000  1.0
  O  O19  1  0.13803000  0.01027000  0.61155000  1.0
  O  O20  1  0.17119000  0.98273000  0.27406000  1.0
  O  O21  1  0.81704000  0.27260000  0.46900000  1.0
  O  O22  1  0.95682000  0.21013000  0.50658000  1.0
  O  O23  1  0.14702000  0.51780000  0.04553000  1.0
  O  O24  1  0.12844000  0.49485000  0.93325000  1.0
  O  O25  1  0.29925000  0.54481000  0.13201000  1.0
  O  O26  1  0.09997000  0.70498000  0.60745000  1.0
  O  O27  1  0.36194000  0.98924000  0.11383000  1.0
  O  O28  1  0.33367000  0.01379000  0.77474000  1.0
  O  O29  1  0.68560000  0.72290000  0.96881000  1.0
  O  O30  1  0.54666000  0.78910000  0.00337000  1.0
  O  O31  1  0.35757000  0.47851000  0.54532000  1.0
  O  O32  1  0.36225000  0.50791000  0.43313000  1.0
