# generated using pymatgen
data_SiH40C52(N2O)4
_symmetry_space_group_name_H-M   'P 1'
_cell_length_a   33.22090000
_cell_length_b   33.22090000
_cell_length_c   42.89960000
_cell_angle_alpha   90.00000000
_cell_angle_beta   90.00000000
_cell_angle_gamma   120.00000000
_symmetry_Int_Tables_number   1
_chemical_formula_structural   SiH40C52(N2O)4
_chemical_formula_sum   'Si3 H120 C156 N24 O12'
_cell_volume   41002.15304162
_cell_formula_units_Z   3
loop_
 _symmetry_equiv_pos_site_id
 _symmetry_equiv_pos_as_xyz
  1  'x, y, z'
loop_
 _atom_site_type_symbol
 _atom_site_label
 _atom_site_symmetry_multiplicity
 _atom_site_fract_x
 _atom_site_fract_y
 _atom_site_fract_z
 _atom_site_occupancy
  Si  7  1  0.53918300  0.51907800  0.00042100  1
  Si  56  1  0.03803400  0.51871300  0.33403000  1
  Si  105  1  0.53955000  0.01940600  0.66763800  1
  H  26  1  0.41806800  0.43180600  0.92733700  1
  H  27  1  0.45658000  0.49051700  0.96600700  1
  H  28  1  0.52030800  0.39276900  0.93645100  1
  H  29  1  0.55929600  0.45103400  0.97520400  1
  H  30  1  0.62154100  0.54742200  0.96580700  1
  H  31  1  0.66001400  0.60611700  0.92713200  1
  H  32  1  0.55828300  0.64575400  0.93672500  1
  H  33  1  0.51926400  0.58741300  0.97543600  1
  H  34  1  0.54544200  0.59605100  0.03460800  1
  H  35  1  0.49797800  0.59907300  0.07539400  1
  H  36  1  0.40703700  0.45466100  0.06684600  1
  H  37  1  0.45370500  0.45077400  0.02676200  1
  H  38  1  0.53287600  0.44200000  0.03447700  1
  H  39  1  0.62478100  0.58725900  0.02671700  1
  H  40  1  0.67145000  0.58320900  0.06674800  1
  H  41  1  0.58033100  0.43881900  0.07520500  1
  H  43  1  0.41810800  0.34509100  0.91266200  1
  H  45  1  0.65958000  0.69342900  0.91318600  1
  H  47  1  0.40782600  0.54827700  0.09404900  1
  H  49  1  0.67075100  0.48975000  0.09367100  1
  H  75  1  0.07185100  0.63953400  0.26069900  1
  H  76  1  0.09206800  0.60103400  0.29937000  1
  H  77  1  0.93049500  0.53773600  0.27022800  1
  H  78  1  0.94979400  0.49873500  0.30895100  1
  H  79  1  0.98520300  0.43666800  0.29883400  1
  H  80  1  0.00667800  0.39895300  0.26034700  1
  H  81  1  0.14753200  0.50143400  0.27124200  1
  H  82  1  0.12698500  0.53956600  0.30985300  1
  H  83  1  0.10768300  0.51197100  0.36909400  1
  H  84  1  0.15801900  0.55955400  0.40988000  1
  H  85  1  0.10610500  0.65161200  0.39993300  1
  H  86  1  0.05561700  0.60476300  0.35986500  1
  H  87  1  0.96746800  0.52494200  0.36831100  1
  H  88  1  0.01994200  0.43241900  0.35965300  1
  H  89  1  0.96908300  0.38546300  0.39952800  1
  H  90  1  0.91668700  0.47719600  0.40887500  1
  H  92  1  0.98464600  0.63939100  0.24643300  1
  H  94  1  0.09348300  0.39931000  0.24643300  1
  H  96  1  0.19816900  0.65061100  0.42743900  1
  H  98  1  0.87684100  0.38639100  0.42710400  1
  H  124  1  0.62782400  0.98601200  0.59511000  1
  H  125  1  0.56923700  0.96568700  0.63387500  1
  H  126  1  0.66469300  0.12685700  0.60295200  1
  H  127  1  0.60655700  0.10744800  0.64181200  1
  H  128  1  0.50941300  0.07228500  0.63328800  1
  H  129  1  0.45057000  0.05104700  0.59459000  1
  H  130  1  0.41464900  0.91057300  0.60338100  1
  H  131  1  0.47291900  0.93087300  0.64225700  1
  H  132  1  0.46262600  0.94830400  0.70163100  1
  H  133  1  0.45964800  0.89777600  0.74235900  1
  H  134  1  0.60430300  0.95234500  0.73442400  1
  H  135  1  0.60815000  0.00304200  0.69444400  1
  H  136  1  0.61642300  0.09107500  0.70134400  1
  H  137  1  0.47090100  0.03614400  0.69388500  1
  H  138  1  0.47457000  0.08710100  0.73360100  1
  H  139  1  0.61922200  0.14187900  0.74182300  1
  H  141  1  0.71330700  0.07236400  0.57959500  1
  H  143  1  0.36570000  0.96530100  0.57944100  1
  H  145  1  0.51082200  0.85878000  0.76073400  1
  H  147  1  0.56780700  0.18069600  0.76023100  1
  H  154  1  0.55137700  0.27542000  0.82666500  1
  H  155  1  0.57384700  0.22161600  0.80866400  1
  H  162  1  0.45077700  0.23276200  0.87978800  1
  H  163  1  0.44584600  0.29422600  0.90381200  1
  H  164  1  0.47971200  0.36744600  0.81869400  1
  H  165  1  0.43289700  0.11842400  0.79971100  1
  H  167  1  0.37402300  0.13627200  0.81244600  1
  H  168  1  0.38586000  0.18867600  0.82392000  1
  H  170  1  0.48952000  0.28222100  0.77446700  1
  H  171  1  0.49300500  0.33372800  0.77379100  1
  H  182  1  0.78168000  0.50586200  0.16015700  1
  H  183  1  0.70550400  0.48361700  0.14207000  1
  H  190  1  0.83964900  0.60630600  0.21342100  1
  H  191  1  0.90617500  0.61150100  0.23743700  1
  H  192  1  0.94580100  0.57801600  0.15227600  1
  H  193  1  0.74362500  0.62467800  0.13324500  1
  H  195  1  0.82033500  0.68338700  0.14615400  1
  H  196  1  0.86078400  0.67139600  0.15765300  1
  H  198  1  0.85058800  0.56779400  0.10807500  1
  H  199  1  0.89877400  0.56461100  0.10738000  1
  H  210  1  0.78279000  0.27551300  0.49382700  1
  H  211  1  0.83644700  0.35173500  0.47566800  1
  H  218  1  0.82559000  0.21754500  0.54673900  1
  H  219  1  0.76421000  0.15109100  0.57077700  1
  H  220  1  0.69081800  0.11176500  0.48572200  1
  H  221  1  0.93956500  0.31394700  0.46628400  1
  H  223  1  0.92184600  0.23729200  0.47907600  1
  H  224  1  0.86954000  0.19675700  0.49073800  1
  H  226  1  0.77589800  0.20687600  0.44147700  1
  H  227  1  0.72442200  0.15881700  0.44082200  1
  H  238  1  0.52649000  0.76313900  0.82668400  1
  H  239  1  0.50446500  0.81733000  0.80882100  1
  H  246  1  0.62654600  0.80520300  0.88026000  1
  H  247  1  0.63157900  0.74374200  0.90420100  1
  H  248  1  0.59859500  0.67107600  0.81887700  1
  H  249  1  0.64562700  0.92024100  0.80056300  1
  H  251  1  0.70418000  0.90200300  0.81345600  1
  H  252  1  0.69204100  0.84941600  0.82471100  1
  H  254  1  0.58864100  0.75630800  0.77477400  1
  H  255  1  0.58542100  0.70492300  0.77400700  1
  H  266  1  0.29696100  0.53212700  0.16055100  1
  H  267  1  0.37307700  0.55422000  0.14242700  1
  H  274  1  0.23839700  0.43105500  0.21350000  1
  H  275  1  0.17226700  0.42658500  0.23765000  1
  H  276  1  0.13362500  0.46190500  0.15280700  1
  H  277  1  0.33451700  0.41308500  0.13326400  1
  H  279  1  0.25771500  0.35448900  0.14605000  1
  H  280  1  0.21737100  0.36658800  0.15762300  1
  H  282  1  0.22817500  0.47095700  0.10838300  1
  H  283  1  0.18047900  0.47503100  0.10784600  1
  H  294  1  0.29349400  0.76194500  0.49331000  1
  H  295  1  0.23919100  0.68582500  0.47541900  1
  H  302  1  0.25123500  0.82082600  0.54637800  1
  H  303  1  0.31328500  0.88655700  0.57061100  1
  H  304  1  0.38739300  0.92475300  0.48582000  1
  H  305  1  0.13680000  0.72469500  0.46659800  1
  H  307  1  0.15529100  0.80159000  0.47941400  1
  H  308  1  0.20788400  0.84188600  0.49076900  1
  H  310  1  0.30128300  0.83087400  0.44125800  1
  H  311  1  0.35330000  0.87825100  0.44077300  1
  C  1  1  0.62958300  0.51078900  0.07524500  1
  C  2  1  0.64236900  0.55320000  0.06002500  1
  C  3  1  0.61516200  0.55519300  0.03579000  1
  C  4  1  0.57533100  0.51446900  0.02497600  1
  C  5  1  0.56264800  0.47197400  0.04033500  1
  C  6  1  0.59017600  0.46995300  0.06455500  1
  C  8  1  0.50304600  0.52359700  0.02503900  1
  C  9  1  0.46327900  0.48281700  0.03585700  1
  C  10  1  0.43609100  0.48470900  0.06014200  1
  C  11  1  0.44879900  0.52708800  0.07538200  1
  C  12  1  0.48812900  0.56798400  0.06467800  1
  C  13  1  0.51569000  0.56604500  0.04044900  1
  C  14  1  0.56775700  0.56303300  0.97587400  1
  C  15  1  0.51059500  0.47515800  0.97585300  1
  C  16  1  0.47011600  0.46959300  0.96071200  1
  C  17  1  0.44723800  0.43519400  0.93788700  1
  C  18  1  0.46564500  0.40705200  0.92862200  1
  C  19  1  0.50637600  0.41282000  0.94310200  1
  C  20  1  0.52888700  0.44679400  0.96621200  1
  C  21  1  0.60809800  0.56845600  0.96060900  1
  C  22  1  0.63098100  0.60287800  0.93779800  1
  C  23  1  0.61270800  0.63119000  0.92866400  1
  C  24  1  0.57211600  0.62557500  0.94327700  1
  C  25  1  0.54958800  0.59155600  0.96636100  1
  C  50  1  0.93893000  0.42758300  0.40841800  1
  C  51  1  0.96829800  0.41468100  0.39296800  1
  C  52  1  0.99756200  0.44205800  0.36881200  1
  C  53  1  0.99708600  0.48226300  0.35835700  1
  C  54  1  0.96740100  0.49494800  0.37390300  1
  C  55  1  0.93773500  0.46722900  0.39801300  1
  C  57  1  0.07831300  0.55479000  0.35887000  1
  C  58  1  0.07773500  0.59496300  0.36927100  1
  C  59  1  0.10676200  0.62226900  0.39354400  1
  C  60  1  0.13595400  0.60930600  0.40918000  1
  C  61  1  0.13707900  0.56956200  0.39890800  1
  C  62  1  0.10765900  0.54192200  0.37468100  1
  C  63  1  0.05420300  0.49069100  0.30957600  1
  C  64  1  0.02268500  0.54718800  0.30937500  1
  C  65  1  0.05759400  0.58756800  0.29414200  1
  C  66  1  0.04606300  0.61046500  0.27133800  1
  C  67  1  0.99947900  0.59218400  0.26220200  1
  C  68  1  0.96450700  0.55156100  0.27677600  1
  C  69  1  0.97598800  0.52905100  0.29987900  1
  C  70  1  0.01982000  0.45039200  0.29397200  1
  C  71  1  0.03209700  0.42795200  0.27127200  1
  C  72  1  0.07891600  0.44669300  0.26256600  1
  C  73  1  0.11336200  0.48726000  0.27748900  1
  C  74  1  0.10114100  0.50925900  0.30052200  1
  C  99  1  0.54710200  0.11844500  0.74196200  1
  C  100  1  0.50471900  0.08831800  0.72688500  1
  C  101  1  0.50294400  0.05898600  0.70281500  1
  C  102  1  0.54382800  0.06019700  0.69201600  1
  C  103  1  0.58630200  0.09057200  0.70720200  1
  C  104  1  0.58811000  0.12025600  0.73125800  1
  C  106  1  0.53525000  0.97906100  0.69244200  1
  C  107  1  0.57609100  0.98036800  0.70343300  1
  C  108  1  0.57421000  0.95120200  0.72765700  1
  C  109  1  0.53176000  0.92115700  0.74269900  1
  C  110  1  0.49081500  0.91934600  0.73183900  1
  C  111  1  0.49273100  0.94887400  0.70764300  1
  C  112  1  0.49552100  0.00336700  0.64306200  1
  C  113  1  0.58352800  0.03487500  0.64310800  1
  C  114  1  0.58970800  0.00011000  0.62831300  1
  C  115  1  0.62407600  0.01171100  0.60545100  1
  C  116  1  0.65146300  0.05813500  0.59571800  1
  C  117  1  0.64511800  0.09294700  0.60987900  1
  C  118  1  0.61124000  0.08142200  0.63306600  1
  C  119  1  0.48908000  0.03776000  0.62795000  1
  C  120  1  0.45455800  0.02561900  0.60512400  1
  C  121  1  0.42737700  0.97902600  0.59567700  1
  C  122  1  0.43408600  0.94460200  0.61008000  1
  C  123  1  0.46804000  0.95665500  0.63328100  1
  C  148  1  0.50528700  0.16489200  0.80264200  1
  C  149  1  0.45780600  0.15133800  0.80606600  1
  C  150  1  0.44354100  0.18281200  0.81621800  1
  C  151  1  0.47842500  0.22910300  0.82349200  1
  C  152  1  0.52590300  0.24236500  0.82106800  1
  C  153  1  0.53917300  0.21075200  0.81053500  1
  C  156  1  0.46789800  0.26293800  0.83458700  1
  C  157  1  0.45493800  0.25995400  0.86618700  1
  C  158  1  0.45154100  0.29617100  0.88029200  1
  C  159  1  0.46109500  0.33641600  0.86324600  1
  C  160  1  0.47237000  0.33834500  0.83128200  1
  C  161  1  0.47595500  0.30218400  0.81647900  1
  C  172  1  0.51789700  0.13392200  0.78897700  1
  C  173  1  0.46634400  0.37659100  0.87874000  1
  C  176  1  0.71752200  0.55225300  0.13608900  1
  C  177  1  0.75152800  0.59969300  0.13958800  1
  C  178  1  0.79720800  0.61382600  0.14980300  1
  C  179  1  0.80849000  0.57884500  0.15705000  1
  C  180  1  0.77419500  0.53140400  0.15456200  1
  C  181  1  0.72936700  0.51826900  0.14398000  1
  C  184  1  0.85276900  0.58923500  0.16822500  1
  C  185  1  0.86266900  0.60209600  0.19984000  1
  C  186  1  0.90235200  0.60564100  0.21393400  1
  C  187  1  0.93326300  0.59643700  0.19686100  1
  C  188  1  0.92393500  0.58517700  0.16489100  1
  C  189  1  0.88410100  0.58141100  0.15009600  1
  C  200  1  0.67400800  0.53977400  0.12235900  1
  C  201  1  0.96837300  0.59143600  0.21230700  1
  C  204  1  0.89312500  0.33988700  0.46941000  1
  C  205  1  0.90671100  0.30597300  0.47277600  1
  C  206  1  0.87532700  0.26027200  0.48303000  1
  C  207  1  0.82909200  0.24888200  0.49046800  1
  C  208  1  0.81581100  0.28309100  0.48812500  1
  C  209  1  0.84733700  0.32794300  0.47749600  1
  C  212  1  0.79531000  0.20450900  0.50157100  1
  C  213  1  0.79838000  0.19451000  0.53315100  1
  C  214  1  0.76221600  0.15486000  0.54726300  1
  C  215  1  0.72194400  0.12416700  0.53024200  1
  C  216  1  0.71994100  0.13352600  0.49829100  1
  C  217  1  0.75604900  0.17330500  0.48348000  1
  C  228  1  0.92394600  0.38337800  0.45557000  1
  C  229  1  0.68179600  0.08926400  0.54576700  1
  C  232  1  0.57317000  0.87395400  0.80313200  1
  C  233  1  0.62057100  0.88729000  0.80672700  1
  C  234  1  0.63457700  0.85559100  0.81682000  1
  C  235  1  0.59950800  0.80926600  0.82383400  1
  C  236  1  0.55210100  0.79620200  0.82123700  1
  C  237  1  0.53909600  0.82805100  0.81078500  1
  C  240  1  0.60975600  0.77526400  0.83498400  1
  C  241  1  0.62239700  0.77803600  0.86663500  1
  C  242  1  0.62584800  0.74182200  0.88068600  1
  C  243  1  0.61677400  0.70180700  0.86353900  1
  C  244  1  0.60565500  0.70002300  0.83155100  1
  C  245  1  0.60199200  0.73617800  0.81679600  1
  C  256  1  0.56082900  0.90520100  0.78957700  1
  C  257  1  0.61191100  0.66169800  0.87890900  1
  C  260  1  0.36083500  0.48553600  0.13627800  1
  C  261  1  0.32672300  0.43811500  0.13969500  1
  C  262  1  0.28106500  0.42407000  0.14992100  1
  C  263  1  0.26992500  0.45911700  0.15728300  1
  C  264  1  0.30434100  0.50653400  0.15489100  1
  C  265  1  0.34913500  0.51958300  0.14428300  1
  C  268  1  0.22564700  0.44882600  0.16841600  1
  C  269  1  0.21554600  0.43560500  0.19997100  1
  C  270  1  0.17609900  0.43249400  0.21415000  1
  C  271  1  0.14573600  0.44264800  0.19723000  1
  C  272  1  0.15516100  0.45414900  0.16530200  1
  C  273  1  0.19471600  0.45741100  0.15042000  1
  C  284  1  0.40427200  0.49790200  0.12247600  1
  C  285  1  0.11112400  0.44826000  0.21284500  1
  C  288  1  0.18282100  0.69822700  0.46940300  1
  C  289  1  0.16966200  0.73244000  0.47288500  1
  C  290  1  0.20144800  0.77811200  0.48300600  1
  C  291  1  0.24767400  0.78918000  0.49016500  1
  C  292  1  0.26052200  0.75466000  0.48773400  1
  C  293  1  0.22860000  0.70984600  0.47725800  1
  C  296  1  0.28180900  0.83338100  0.50131900  1
  C  297  1  0.27880600  0.84348200  0.53289000  1
  C  298  1  0.31538800  0.88266800  0.54711900  1
  C  299  1  0.35602500  0.91280400  0.53023800  1
  C  300  1  0.35799000  0.90342800  0.49828400  1
  C  301  1  0.32145200  0.86412300  0.48335100  1
  C  312  1  0.15153400  0.65471200  0.45577300  1
  C  313  1  0.39647100  0.94688900  0.54592100  1
  N  42  1  0.44440600  0.37456200  0.90599200  1
  N  44  1  0.63404700  0.66376200  0.90607200  1
  N  46  1  0.42158800  0.52895800  0.09849400  1
  N  48  1  0.65675900  0.50879900  0.09833600  1
  N  91  1  0.98817800  0.61337900  0.23956600  1
  N  93  1  0.09096500  0.42607800  0.23997100  1
  N  95  1  0.16518100  0.63661100  0.43221800  1
  N  97  1  0.90994500  0.40038800  0.43155600  1
  N  140  1  0.68388900  0.06942400  0.57303100  1
  N  142  1  0.39472900  0.96714900  0.57307500  1
  N  144  1  0.52973800  0.89174900  0.76563600  1
  N  146  1  0.54885000  0.14765900  0.76493900  1
  N  166  1  0.39727600  0.16799600  0.81789300  1
  N  169  1  0.48777200  0.30663900  0.78577400  1
  N  194  1  0.82872800  0.66006300  0.15155100  1
  N  197  1  0.87682000  0.56968100  0.11937600  1
  N  222  1  0.89016200  0.22883200  0.48463300  1
  N  225  1  0.75152200  0.18068300  0.45278900  1
  N  250  1  0.68078900  0.87023800  0.81869300  1
  N  253  1  0.59044700  0.73189600  0.78604500  1
  N  278  1  0.24943000  0.37785600  0.15156000  1
  N  281  1  0.20215900  0.46944200  0.11975100  1
  N  306  1  0.18698800  0.80983200  0.48475000  1
  N  309  1  0.32594800  0.85670000  0.45266300  1
  O  174  1  0.50194100  0.41821500  0.86928400  1
  O  175  1  0.49090200  0.08801500  0.79541700  1
  O  202  1  0.97498200  0.55626200  0.20270500  1
  O  203  1  0.65525400  0.56694700  0.12867600  1
  O  230  1  0.64016700  0.08329000  0.53637300  1
  O  231  1  0.96994900  0.40222000  0.46166100  1
  O  258  1  0.57718600  0.61980700  0.86907800  1
  O  259  1  0.58795500  0.95103700  0.79618400  1
  O  286  1  0.10566400  0.48430300  0.20363800  1
  O  287  1  0.42296800  0.47065100  0.12869700  1
  O  314  1  0.43783500  0.95210500  0.53661800  1
  O  315  1  0.10563300  0.63614200  0.46209500  1
