# generated using pymatgen
data_H17C29N6O
_symmetry_space_group_name_H-M   'P 1'
_cell_length_a   20.27995000
_cell_length_b   35.12050433
_cell_length_c   83.55240000
_cell_angle_alpha   89.99998577
_cell_angle_beta   89.00710000
_cell_angle_gamma   89.99975215
_symmetry_Int_Tables_number   1
_chemical_formula_structural   H17C29N6O
_chemical_formula_sum   'H204 C348 N72 O12'
_cell_volume   59500.59912367
_cell_formula_units_Z   12
loop_
 _symmetry_equiv_pos_site_id
 _symmetry_equiv_pos_as_xyz
  1  'x, y, z'
loop_
 _atom_site_type_symbol
 _atom_site_label
 _atom_site_symmetry_multiplicity
 _atom_site_fract_x
 _atom_site_fract_y
 _atom_site_fract_z
 _atom_site_occupancy
  C  1  1  0.25591500  0.25987600  0.83618600  1
  C  2  1  0.29004300  0.28340000  0.82480700  1
  C  3  1  0.33699400  0.31096400  0.82935000  1
  C  4  1  0.34853700  0.31594400  0.84588900  1
  C  5  1  0.30561100  0.29970300  0.85756700  1
  C  6  1  0.26257500  0.27056100  0.85253400  1
  C  9  1  0.21977100  0.22652800  0.83157100  1
  C  10  1  0.19968200  0.22046600  0.81550600  1
  C  11  1  0.17347000  0.18553800  0.81009500  1
  C  12  1  0.17343000  0.15453400  0.82091700  1
  C  13  1  0.18233900  0.16034900  0.83752300  1
  C  14  1  0.20446200  0.19651000  0.84257800  1
  C  21  1  0.30420700  0.31275800  0.87360500  1
  C  22  1  0.36960800  0.33573000  0.81846300  1
  C  23  1  0.14694800  0.18219800  0.79458100  1
  C  24  1  0.16454200  0.13046400  0.84810600  1
  C  29  1  0.72960500  0.21843700  0.16771200  1
  C  30  1  0.74315700  0.19104700  0.15548000  1
  C  31  1  0.76010800  0.15303200  0.15901000  1
  C  32  1  0.77107200  0.14298100  0.17518900  1
  C  33  1  0.76939300  0.17075900  0.18753200  1
  C  34  1  0.74532300  0.20739600  0.18361400  1
  C  37  1  0.69711800  0.25369000  0.16415100  1
  C  38  1  0.69723400  0.26904600  0.14835800  1
  C  39  1  0.65637400  0.29964000  0.14380200  1
  C  40  1  0.60927500  0.31276400  0.15525400  1
  C  41  1  0.61427500  0.30299200  0.17166000  1
  C  42  1  0.65954800  0.27423200  0.17589800  1
  C  49  1  0.79135000  0.16264500  0.20320900  1
  C  50  1  0.76947700  0.12497100  0.14706800  1
  C  51  1  0.66345900  0.31671900  0.12849200  1
  C  52  1  0.57657300  0.32431800  0.18287600  1
  C  57  1  0.92353300  0.49403100  0.50214800  1
  C  58  1  0.87745500  0.50025300  0.48970100  1
  C  59  1  0.81083200  0.50943000  0.49288400  1
  C  60  1  0.78742800  0.50842700  0.50897800  1
  C  61  1  0.82883200  0.49742200  0.52170400  1
  C  62  1  0.89668800  0.49205500  0.51801600  1
  C  65  1  0.99323000  0.49309200  0.49879000  1
  C  66  1  0.01863700  0.48504800  0.48313800  1
  C  67  1  0.08553400  0.49027800  0.47867300  1
  C  68  1  0.12706900  0.50748200  0.49007200  1
  C  69  1  0.10729300  0.51055200  0.50639600  1
  C  70  1  0.04097900  0.50212900  0.51056500  1
  C  77  1  0.80423300  0.49193800  0.53756900  1
  C  78  1  0.76568000  0.51843600  0.48076200  1
  C  79  1  0.10964800  0.47824000  0.46346600  1
  C  80  1  0.15622100  0.51974300  0.51762300  1
  C  85  1  0.40950900  0.44365900  0.89919200  1
  C  86  1  0.04702200  0.05567700  0.89419000  1
  C  87  1  0.49183600  0.50477400  0.94648300  1
  C  88  1  0.08378200  0.08649900  0.90046200  1
  C  89  1  0.11859200  0.11200700  0.89031000  1
  C  90  1  0.11956300  0.10719800  0.87352500  1
  C  91  1  0.08224500  0.07657800  0.86731700  1
  C  92  1  0.04683400  0.05166100  0.87734600  1
  C  93  1  0.40761200  0.43988900  0.88232300  1
  C  94  1  0.37923500  0.40776500  0.87518100  1
  C  95  1  0.35114400  0.37862000  0.88466100  1
  C  96  1  0.34908100  0.38275700  0.90140100  1
  C  97  1  0.37828200  0.41482100  0.90855200  1
  C  98  1  0.47332900  0.47260800  0.95578700  1
  C  99  1  0.48126300  0.47225200  0.97244500  1
  C  100  1  0.50699200  0.50427300  0.98029700  1
  C  101  1  0.00979000  0.03831700  0.97155300  1
  C  102  1  0.00640200  0.03808300  0.95477600  1
  C  114  1  0.48492000  0.50467700  0.92960000  1
  C  116  1  0.44385900  0.47424500  0.90627600  1
  C  118  1  0.01168800  0.02945500  0.90397200  1
  C  124  1  0.92582300  0.04602600  0.23142300  1
  C  125  1  0.52524700  0.42131600  0.22812800  1
  C  126  1  0.47420800  0.47714700  0.28002200  1
  C  127  1  0.55275600  0.38764900  0.23463600  1
  C  128  1  0.57439700  0.35738500  0.22469600  1
  C  129  1  0.56705300  0.35893600  0.20793500  1
  C  130  1  0.54048000  0.39289900  0.20149000  1
  C  131  1  0.52059900  0.42329200  0.21128300  1
  C  132  1  0.92728800  0.04785200  0.21449000  1
  C  133  1  0.89649500  0.07763400  0.20634000  1
  C  134  1  0.86318700  0.10678100  0.21475300  1
  C  135  1  0.86399500  0.10670300  0.23160300  1
  C  136  1  0.89495100  0.07660200  0.23981300  1
  C  137  1  0.93531700  0.00259700  0.28934400  1
  C  138  1  0.93226100  0.99969900  0.30610600  1
  C  139  1  0.46891400  0.47166500  0.31400300  1
  C  140  1  0.50777800  0.44599700  0.30487800  1
  C  141  1  0.51015300  0.44866200  0.28811200  1
  C  153  1  0.47648000  0.47972600  0.26307100  1
  C  155  1  0.95263200  0.01402800  0.23930500  1
  C  157  1  0.50219200  0.45202200  0.23768600  1
  C  163  1  0.05903300  0.98942600  0.56656500  1
  C  164  1  0.82251200  0.00121800  0.56339300  1
  C  165  1  0.92770800  0.00023200  0.61529500  1
  C  166  1  0.75736100  0.00369300  0.56979900  1
  C  167  1  0.70221400  0.00692000  0.55974800  1
  C  168  1  0.71009400  0.00927700  0.54294800  1
  C  169  1  0.77527800  0.00631500  0.53662400  1
  C  170  1  0.82976700  0.00217900  0.54653300  1
  C  171  1  0.06245600  0.98834100  0.54963300  1
  C  172  1  0.12322600  0.98782900  0.54140700  1
  C  173  1  0.18304400  0.98813300  0.54971700  1
  C  174  1  0.18095500  0.98765200  0.56657500  1
  C  175  1  0.11961400  0.98842700  0.57486900  1
  C  176  1  0.98501800  0.00735900  0.62429900  1
  C  177  1  0.98161500  0.01048900  0.64104200  1
  C  178  1  0.92095800  0.00607300  0.64926300  1
  C  179  1  0.86340900  0.99901200  0.64046500  1
  C  180  1  0.86679200  0.99631100  0.62368900  1
  C  192  1  0.93135300  0.99753500  0.59834900  1
  C  194  1  0.99697700  0.99225600  0.57450700  1
  C  196  1  0.87909400  0.99807100  0.57301900  1
  C  202  1  0.59517300  0.47453300  0.43924100  1
  C  203  1  0.35763800  0.46093900  0.43712000  1
  C  204  1  0.48929600  0.45306700  0.38849400  1
  C  205  1  0.29805900  0.45607100  0.42863000  1
  C  206  1  0.23587100  0.45944500  0.43634200  1
  C  207  1  0.23198600  0.46814600  0.45276700  1
  C  208  1  0.29053400  0.47179100  0.46145000  1
  C  209  1  0.35231300  0.46806900  0.45378300  1
  C  210  1  0.58922600  0.48484300  0.45555900  1
  C  211  1  0.64460600  0.49466900  0.46446100  1
  C  212  1  0.70922200  0.49360700  0.45768700  1
  C  213  1  0.71581800  0.48158300  0.44162500  1
  C  214  1  0.65979000  0.47320600  0.43244400  1
  C  215  1  0.55066600  0.44957900  0.38025400  1
  C  216  1  0.55423400  0.44959900  0.36343900  1
  C  217  1  0.49664800  0.45377800  0.35443500  1
  C  218  1  0.43505400  0.45653200  0.36249100  1
  C  219  1  0.43151200  0.45607100  0.37927500  1
  C  231  1  0.48577900  0.45541600  0.40545600  1
  C  233  1  0.53797200  0.46662000  0.43035000  1
  C  235  1  0.42027000  0.46004000  0.42937200  1
  C  241  1  0.92781000  0.06108600  0.10579100  1
  C  242  1  0.56872800  0.44967000  0.10284800  1
  C  243  1  0.01762400  0.02072200  0.05479800  1
  C  244  1  0.60703700  0.42245800  0.09418000  1
  C  245  1  0.63200100  0.38954800  0.10164000  1
  C  246  1  0.61886300  0.38304500  0.11800100  1
  C  247  1  0.58300200  0.41040200  0.12687300  1
  C  248  1  0.55851100  0.44320300  0.11944400  1
  C  249  1  0.91204900  0.05264400  0.12194900  1
  C  250  1  0.86773500  0.07528700  0.13081200  1
  C  251  1  0.83864500  0.10829800  0.12415500  1
  C  252  1  0.85648000  0.11784100  0.10826700  1
  C  253  1  0.89881800  0.09414300  0.09911000  1
  C  254  1  0.99324700  0.05398300  0.04732200  1
  C  255  1  0.99106000  0.05689500  0.03058400  1
  C  256  1  0.01199600  0.02629100  0.02090500  1
  C  257  1  0.54728500  0.49336800  0.02845200  1
  C  258  1  0.54787800  0.49109600  0.04522200  1
  C  270  1  0.01531400  0.01681500  0.07170400  1
  C  272  1  0.96985000  0.03662600  0.09684000  1
  C  274  1  0.53985800  0.48157700  0.09533400  1
  C  280  1  0.39233100  0.44186200  0.77516800  1
  C  281  1  0.98950100  0.06780100  0.77037900  1
  C  282  1  0.39686100  0.50682400  0.72399500  1
  C  283  1  0.01184100  0.09932000  0.76108900  1
  C  284  1  0.05009700  0.12860100  0.76781500  1
  C  285  1  0.06688200  0.12711000  0.78407200  1
  C  286  1  0.04261100  0.09692800  0.79359000  1
  C  287  1  0.00478800  0.06771700  0.78686000  1
  C  288  1  0.41288600  0.43980300  0.79123100  1
  C  289  1  0.40081200  0.40734900  0.80061100  1
  C  290  1  0.36650200  0.37541700  0.79452700  1
  C  291  1  0.34480000  0.37756300  0.77859600  1
  C  292  1  0.35826500  0.40987200  0.76902200  1
  C  293  1  0.35777900  0.47833400  0.71678900  1
  C  294  1  0.35039400  0.47696400  0.70009800  1
  C  295  1  0.38281400  0.50366900  0.69016200  1
  C  296  1  0.92039900  0.03293300  0.69722600  1
  C  297  1  0.92714300  0.03454200  0.71389700  1
  C  309  1  0.40811600  0.50683900  0.74072900  1
  C  311  1  0.40655800  0.47462400  0.76584800  1
  C  313  1  0.95487000  0.03696500  0.76354500  1
  C  319  1  0.75577100  0.75971100  0.83594700  1
  C  320  1  0.78996400  0.78325900  0.82458900  1
  C  321  1  0.83710200  0.81067600  0.82916700  1
  C  322  1  0.84881400  0.81540200  0.84570700  1
  C  323  1  0.80564200  0.79926100  0.85735900  1
  C  324  1  0.76234000  0.77030600  0.85230000  1
  C  327  1  0.71969300  0.72638000  0.83131400  1
  C  328  1  0.69963000  0.72039500  0.81524800  1
  C  329  1  0.67360400  0.68545200  0.80981500  1
  C  330  1  0.67373900  0.65438200  0.82060200  1
  C  331  1  0.68247500  0.66015400  0.83720900  1
  C  332  1  0.70450800  0.69630400  0.84229800  1
  C  339  1  0.80411800  0.81230400  0.87339000  1
  C  340  1  0.86971400  0.83554700  0.81832300  1
  C  341  1  0.64695800  0.68218900  0.79432000  1
  C  342  1  0.66433500  0.63030800  0.84777100  1
  C  347  1  0.22958200  0.71847300  0.16763700  1
  C  348  1  0.24315100  0.69108200  0.15540500  1
  C  349  1  0.26016100  0.65307500  0.15893000  1
  C  350  1  0.27112700  0.64303900  0.17511300  1
  C  351  1  0.26942100  0.67081400  0.18745800  1
  C  352  1  0.24532600  0.70744500  0.18353800  1
  C  355  1  0.19711000  0.75373500  0.16408200  1
  C  356  1  0.19725100  0.76908200  0.14828800  1
  C  357  1  0.15655100  0.79974800  0.14373500  1
  C  358  1  0.10957500  0.81298800  0.15519100  1
  C  359  1  0.11444400  0.80314200  0.17159400  1
  C  360  1  0.15957500  0.77430100  0.17582800  1
  C  367  1  0.29135500  0.66271700  0.20314000  1
  C  368  1  0.26950100  0.62500300  0.14698600  1
  C  369  1  0.16364000  0.81672400  0.12840500  1
  C  370  1  0.07673400  0.82445700  0.18281700  1
  C  375  1  0.42353500  0.99403000  0.50215000  1
  C  376  1  0.37746000  0.00026100  0.48970400  1
  C  377  1  0.31084300  0.00944600  0.49288800  1
  C  378  1  0.28743500  0.00843500  0.50898100  1
  C  379  1  0.32883500  0.99742200  0.52170600  1
  C  380  1  0.39669000  0.99205100  0.51801800  1
  C  383  1  0.49322900  0.99309100  0.49879300  1
  C  384  1  0.51863000  0.98504400  0.48314000  1
  C  385  1  0.58552500  0.99028000  0.47867300  1
  C  386  1  0.62706100  0.00748800  0.49007100  1
  C  387  1  0.60729000  0.01055700  0.50639500  1
  C  388  1  0.54098100  0.00213000  0.51056700  1
  C  395  1  0.30423300  0.99193200  0.53757100  1
  C  396  1  0.26570200  0.01846600  0.48076400  1
  C  397  1  0.60963400  0.97823900  0.46346600  1
  C  398  1  0.65621900  0.01975100  0.51762100  1
  C  403  1  0.90990900  0.94298600  0.89890100  1
  C  404  1  0.54615000  0.55641400  0.89395100  1
  C  405  1  0.98071000  0.00625900  0.94657500  1
  C  406  1  0.58384000  0.58692300  0.90016900  1
  C  407  1  0.61856000  0.61232700  0.88996900  1
  C  408  1  0.61873200  0.60757700  0.87319000  1
  C  409  1  0.58023100  0.57740700  0.86702200  1
  C  410  1  0.54458400  0.55270900  0.87710800  1
  C  411  1  0.90953200  0.93884600  0.88204400  1
  C  412  1  0.88098400  0.90679600  0.87489400  1
  C  413  1  0.85170200  0.87802400  0.88436800  1
  C  414  1  0.84857100  0.88241700  0.90108400  1
  C  415  1  0.87757800  0.91449800  0.90823900  1
  C  416  1  0.95792000  0.97483300  0.95580100  1
  C  417  1  0.96175300  0.97489300  0.97255600  1
  C  418  1  0.98788700  0.00655300  0.98057100  1
  C  419  1  0.52582700  0.53648500  0.97118400  1
  C  420  1  0.51861200  0.53661300  0.95448900  1
  C  432  1  0.97900700  0.00543400  0.92960100  1
  C  434  1  0.94337500  0.97378600  0.90604200  1
  C  436  1  0.51186800  0.52997300  0.90383100  1
  C  442  1  0.42566000  0.54605200  0.23139000  1
  C  443  1  0.02529600  0.92128100  0.22813500  1
  C  444  1  0.97424000  0.97707200  0.28004400  1
  C  445  1  0.05275300  0.88757700  0.23462500  1
  C  446  1  0.07437100  0.85733800  0.22466700  1
  C  447  1  0.06706700  0.85895000  0.20790500  1
  C  448  1  0.04051800  0.89294100  0.20148200  1
  C  449  1  0.02065500  0.92330800  0.21129200  1
  C  450  1  0.42704500  0.54784000  0.21445500  1
  C  451  1  0.39627700  0.57762700  0.20630100  1
  C  452  1  0.36306600  0.60681700  0.21471000  1
  C  453  1  0.36394100  0.60676900  0.23156000  1
  C  454  1  0.39486900  0.57666400  0.23977400  1
  C  455  1  0.43529200  0.50266700  0.28932600  1
  C  456  1  0.43225000  0.49975700  0.30608800  1
  C  457  1  0.96891800  0.97161000  0.31402500  1
  C  458  1  0.00778300  0.94593300  0.30490400  1
  C  459  1  0.01017300  0.94858700  0.28813800  1
  C  471  1  0.97654500  0.97965100  0.26309300  1
  C  473  1  0.45248800  0.51406500  0.23927500  1
  C  475  1  0.00227600  0.95197200  0.23770500  1
  C  481  1  0.55903500  0.48943000  0.56656700  1
  C  482  1  0.32251400  0.50122100  0.56339700  1
  C  483  1  0.42771100  0.50023800  0.61529900  1
  C  484  1  0.25735900  0.50369200  0.56980300  1
  C  485  1  0.20221300  0.50691800  0.55975000  1
  C  486  1  0.21009300  0.50927300  0.54295000  1
  C  487  1  0.27527900  0.50631500  0.53662700  1
  C  488  1  0.32976800  0.50218000  0.54653600  1
  C  489  1  0.56245500  0.48834800  0.54963700  1
  C  490  1  0.62322300  0.48783500  0.54140900  1
  C  491  1  0.68304600  0.48814000  0.54971800  1
  C  492  1  0.68095900  0.48765600  0.56657600  1
  C  493  1  0.61961700  0.48843100  0.57487000  1
  C  494  1  0.48502100  0.50736500  0.62430200  1
  C  495  1  0.48161700  0.51049200  0.64104400  1
  C  496  1  0.42095600  0.50607500  0.64926600  1
  C  497  1  0.36340800  0.49901700  0.64046600  1
  C  498  1  0.36679600  0.49631800  0.62369100  1
  C  510  1  0.43136000  0.49753900  0.59835200  1
  C  512  1  0.49697900  0.49226000  0.57451100  1
  C  514  1  0.37909600  0.49807200  0.57302300  1
  C  520  1  0.09517900  0.97453200  0.43925600  1
  C  521  1  0.85764000  0.96093300  0.43713300  1
  C  522  1  0.98930500  0.95305100  0.38851200  1
  C  523  1  0.79806800  0.95606400  0.42863900  1
  C  524  1  0.73587600  0.95943800  0.43634800  1
  C  525  1  0.73197700  0.96814200  0.45277200  1
  C  526  1  0.79051800  0.97179000  0.46145800  1
  C  527  1  0.85230000  0.96806500  0.45379500  1
  C  528  1  0.08923700  0.98484800  0.45557300  1
  C  529  1  0.14462200  0.99468200  0.46447100  1
  C  530  1  0.20923300  0.99361700  0.45769500  1
  C  531  1  0.21582300  0.98158500  0.44163400  1
  C  532  1  0.15979100  0.97320200  0.43245500  1
  C  533  1  0.05067700  0.94956600  0.38027300  1
  C  534  1  0.05424800  0.94958300  0.36346000  1
  C  535  1  0.99666100  0.95375800  0.35445600  1
  C  536  1  0.93506300  0.95650500  0.36251000  1
  C  537  1  0.93151900  0.95605000  0.37929300  1
  C  549  1  0.98578500  0.95540300  0.40547300  1
  C  551  1  0.03797300  0.96661300  0.43036700  1
  C  553  1  0.92027400  0.96003300  0.42938700  1
  C  559  1  0.42772000  0.56109500  0.10558600  1
  C  560  1  0.06861700  0.94955800  0.10273000  1
  C  561  1  0.52330400  0.52132300  0.05485000  1
  C  562  1  0.10631300  0.92217800  0.09400300  1
  C  563  1  0.13165700  0.88936500  0.10146700  1
  C  564  1  0.11942000  0.88311200  0.11788500  1
  C  565  1  0.08431000  0.91067700  0.12681200  1
  C  566  1  0.05956400  0.94340500  0.11938600  1
  C  567  1  0.41105400  0.55227400  0.12166600  1
  C  568  1  0.36668700  0.57485600  0.13054200  1
  C  569  1  0.33830100  0.60818400  0.12398700  1
  C  570  1  0.35669200  0.61796800  0.10815500  1
  C  571  1  0.39919000  0.59436900  0.09898200  1
  C  572  1  0.50008900  0.55442400  0.04705200  1
  C  573  1  0.50018600  0.55692600  0.03026600  1
  C  574  1  0.52250700  0.52615500  0.02083500  1
  C  575  1  0.03787300  0.99331300  0.02814400  1
  C  576  1  0.04081400  0.99065900  0.04488800  1
  C  588  1  0.51860100  0.51755000  0.07175600  1
  C  590  1  0.47040100  0.53687500  0.09667700  1
  C  592  1  0.03910300  0.98129700  0.09523400  1
  C  598  1  0.89232600  0.94195800  0.77514600  1
  C  599  1  0.48926300  0.56774600  0.77033400  1
  C  600  1  0.89695000  0.00695300  0.72399900  1
  C  601  1  0.51140400  0.59925200  0.76100900  1
  C  602  1  0.54967000  0.62857400  0.76768900  1
  C  603  1  0.56666100  0.62711600  0.78393000  1
  C  604  1  0.54256500  0.59696500  0.79349000  1
  C  605  1  0.50471500  0.56771200  0.78680500  1
  C  606  1  0.91287600  0.93982300  0.79120700  1
  C  607  1  0.90081200  0.90732300  0.80055900  1
  C  608  1  0.86650500  0.87542400  0.79444300  1
  C  609  1  0.84477800  0.87764800  0.77851800  1
  C  610  1  0.85824400  0.91000200  0.76897300  1
  C  611  1  0.85785600  0.97844700  0.71680400  1
  C  612  1  0.85044900  0.97704300  0.70011300  1
  C  613  1  0.88286100  0.00372700  0.69016600  1
  C  614  1  0.42034600  0.53286000  0.69723300  1
  C  615  1  0.42706600  0.53443500  0.71390400  1
  C  627  1  0.90824500  0.00699600  0.74073300  1
  C  629  1  0.90660400  0.97474500  0.76584500  1
  C  631  1  0.45468000  0.53686700  0.76353000  1
  H  7  1  0.28677500  0.27814400  0.81284100  1
  H  16  1  0.21616400  0.19887300  0.85435700  1
  H  17  1  0.43696300  0.32028100  0.85255300  1
  H  18  1  0.20745000  0.10893900  0.81196800  1
  H  19  1  0.23264600  0.25843700  0.86106800  1
  H  20  1  0.20099400  0.24255500  0.80755500  1
  H  25  1  0.15257100  0.10523400  0.84293500  1
  H  26  1  0.27677000  0.29910200  0.88223100  1
  H  27  1  0.40525800  0.35278300  0.82299700  1
  H  28  1  0.15121400  0.20399100  0.78651500  1
  H  35  1  0.73105900  0.19652900  0.14389600  1
  H  44  1  0.65822400  0.26539900  0.18753700  1
  H  45  1  0.82833200  0.10024900  0.17500600  1
  H  46  1  0.52409700  0.32023200  0.14688200  1
  H  47  1  0.74281600  0.22717300  0.19257500  1
  H  48  1  0.73018400  0.25892400  0.13999300  1
  H  53  1  0.54122800  0.34157300  0.17830500  1
  H  54  1  0.78434500  0.18159600  0.21237400  1
  H  55  1  0.77013600  0.09731900  0.15075000  1
  H  56  1  0.69476800  0.30562600  0.11997700  1
  H  63  1  0.89344200  0.50360700  0.47813100  1
  H  72  1  0.02660100  0.50774700  0.52208900  1
  H  73  1  0.69697700  0.49547200  0.50834500  1
  H  74  1  0.18274000  0.54583300  0.48139600  1
  H  75  1  0.92663600  0.48447800  0.52719500  1
  H  76  1  0.98833500  0.47337100  0.47480800  1
  H  81  1  0.19995300  0.52927900  0.51301200  1
  H  82  1  0.83559800  0.48681000  0.54677600  1
  H  83  1  0.72329900  0.53187000  0.48428200  1
  H  84  1  0.07847100  0.46847100  0.45489600  1
  H  103  1  0.07765400  0.07244500  0.85531800  1
  H  104  1  0.02062400  0.03041200  0.87199800  1
  H  105  1  0.14419700  0.13399500  0.89530400  1
  H  106  1  0.37815900  0.41614800  0.92078300  1
  H  107  1  0.42915900  0.45975800  0.87495700  1
  H  108  1  0.38045400  0.40557600  0.86297200  1
  H  109  1  0.32934100  0.36168400  0.90844800  1
  H  110  1  0.45450600  0.44870400  0.95055700  1
  H  111  1  0.02952100  0.06153500  0.97710100  1
  H  112  1  0.02333300  0.06143900  0.94864600  1
  H  113  1  0.46738500  0.44855600  0.97881300  1
  H  120  1  0.08528800  0.09093000  0.91255200  1
  H  142  1  0.53771000  0.39715600  0.18944900  1
  H  143  1  0.50217600  0.44694500  0.20577200  1
  H  144  1  0.59415800  0.33362900  0.22984000  1
  H  145  1  0.89234200  0.07657000  0.25204800  1
  H  146  1  0.94926400  0.02694600  0.20773800  1
  H  147  1  0.89783000  0.07724800  0.19412700  1
  H  148  1  0.83941100  0.12738800  0.23792200  1
  H  149  1  0.90786100  0.02337100  0.28404000  1
  H  150  1  0.53427500  0.42507400  0.31035800  1
  H  151  1  0.53905100  0.42962400  0.28192600  1
  H  152  1  0.90347300  0.01847500  0.31248900  1
  H  159  1  0.55785600  0.38486700  0.24674100  1
  H  181  1  0.78464100  0.00521500  0.52460400  1
  H  182  1  0.87517600  0.99996300  0.54107500  1
  H  183  1  0.65599500  0.00834600  0.56482500  1
  H  184  1  0.11986100  0.98922400  0.58710100  1
  H  185  1  0.02071200  0.98879700  0.54293000  1
  H  186  1  0.12282900  0.98769800  0.52921900  1
  H  187  1  0.22381900  0.98826200  0.57284000  1
  H  188  1  0.03007300  0.01085600  0.61879000  1
  H  189  1  0.81872100  0.99594100  0.64618900  1
  H  190  1  0.82412100  0.99103500  0.61771800  1
  H  191  1  0.02393300  0.01575200  0.64718800  1
  H  198  1  0.74920800  0.00272100  0.58191000  1
  H  220  1  0.28883500  0.47785600  0.47343200  1
  H  221  1  0.39338800  0.47174800  0.46055700  1
  H  222  1  0.19377900  0.45707600  0.42984600  1
  H  223  1  0.66698300  0.46543000  0.42074300  1
  H  224  1  0.54415100  0.48597300  0.46124400  1
  H  225  1  0.63659600  0.50052600  0.47629600  1
  H  226  1  0.76164300  0.47988300  0.43634700  1
  H  227  1  0.59373000  0.44727800  0.38638300  1
  H  228  1  0.39243900  0.45923400  0.35620700  1
  H  229  1  0.38601700  0.45896300  0.38462400  1
  H  230  1  0.59938900  0.44752600  0.35782900  1
  H  237  1  0.29910200  0.45092300  0.41657800  1
  H  259  1  0.57338600  0.40645300  0.13882000  1
  H  260  1  0.53159400  0.46181700  0.12634800  1
  H  261  1  0.65753200  0.36979900  0.09500700  1
  H  262  1  0.90922800  0.10185300  0.08753000  1
  H  263  1  0.93173900  0.02939200  0.12749900  1
  H  264  1  0.86029000  0.06814800  0.14254000  1
  H  265  1  0.83732200  0.14174300  0.10310000  1
  H  266  1  0.97610700  0.07649900  0.05395800  1
  H  267  1  0.56406100  0.47070000  0.02184900  1
  H  268  1  0.56457200  0.46642600  0.05025700  1
  H  269  1  0.97228100  0.08106700  0.02554300  1
  H  276  1  0.61582800  0.42571800  0.08216400  1
  H  298  1  0.05270200  0.09562500  0.80551600  1
  H  299  1  0.98946600  0.04602400  0.79420800  1
  H  300  1  0.06741900  0.15024700  0.76070800  1
  H  301  1  0.34183800  0.40991200  0.75751600  1
  H  302  1  0.43734000  0.46196700  0.79641900  1
  H  303  1  0.41550100  0.40851700  0.81219700  1
  H  304  1  0.31913200  0.35535400  0.77379300  1
  H  305  1  0.33490600  0.45781600  0.72357800  1
  H  306  1  0.94412200  0.05279600  0.69025600  1
  H  307  1  0.95627400  0.05555300  0.71846400  1
  H  308  1  0.32315300  0.45548100  0.69521600  1
  H  315  1  0.00229900  0.10081000  0.74912200  1
  H  325  1  0.78663600  0.77810500  0.81261600  1
  H  334  1  0.71614700  0.69863500  0.85408300  1
  H  335  1  0.93723000  0.81917800  0.85243000  1
  H  336  1  0.70818100  0.60891300  0.81163600  1
  H  337  1  0.73224100  0.75823000  0.86081400  1
  H  338  1  0.70080400  0.74253600  0.80732200  1
  H  343  1  0.65189900  0.60512600  0.84261400  1
  H  344  1  0.77621600  0.79885900  0.88198900  1
  H  345  1  0.90535000  0.85257100  0.82288300  1
  H  346  1  0.65104800  0.70402300  0.78626900  1
  H  353  1  0.23102300  0.69655400  0.14382200  1
  H  362  1  0.15818700  0.76544300  0.18746400  1
  H  363  1  0.32842500  0.60032600  0.17491900  1
  H  364  1  0.02444500  0.82071600  0.14683000  1
  H  365  1  0.24280900  0.72722600  0.19249800  1
  H  366  1  0.23014800  0.75891700  0.13992100  1
  H  371  1  0.04145700  0.84175200  0.17824300  1
  H  372  1  0.28434800  0.68168500  0.21229700  1
  H  373  1  0.27002000  0.59736400  0.15067600  1
  H  374  1  0.19465500  0.80544500  0.11987100  1
  H  381  1  0.39345200  0.00362200  0.47813400  1
  H  390  1  0.52660300  0.00775000  0.52209100  1
  H  391  1  0.19697900  0.99548800  0.50834400  1
  H  392  1  0.68271900  0.04584300  0.48139300  1
  H  393  1  0.42663800  0.98447200  0.52719600  1
  H  394  1  0.48832700  0.97336400  0.47481000  1
  H  399  1  0.69995100  0.02928900  0.51301000  1
  H  400  1  0.33559600  0.98680400  0.54677800  1
  H  401  1  0.22332000  0.03190200  0.48428500  1
  H  402  1  0.57845600  0.96847000  0.45489700  1
  H  421  1  0.57510100  0.57345500  0.85502500  1
  H  422  1  0.51774700  0.53163300  0.87182400  1
  H  423  1  0.64505000  0.63400900  0.89492400  1
  H  424  1  0.87643300  0.91609000  0.92046500  1
  H  425  1  0.93179000  0.95853200  0.87471100  1
  H  426  1  0.88288600  0.90441900  0.86269700  1
  H  427  1  0.82792100  0.86160000  0.90811700  1
  H  428  1  0.93954800  0.95096400  0.95045400  1
  H  429  1  0.54507900  0.55999300  0.97662500  1
  H  430  1  0.53260400  0.56049900  0.94829400  1
  H  431  1  0.94602800  0.95143700  0.97883400  1
  H  438  1  0.58627700  0.59114800  0.91225900  1
  H  460  1  0.03776700  0.89724600  0.18944300  1
  H  461  1  0.00226100  0.94698100  0.20579100  1
  H  462  1  0.09411300  0.83356300  0.22979900  1
  H  463  1  0.39232700  0.57666400  0.25201100  1
  H  464  1  0.44895300  0.52691000  0.20770500  1
  H  465  1  0.39756300  0.57721100  0.19409000  1
  H  466  1  0.33943700  0.62748900  0.23787800  1
  H  467  1  0.40783000  0.52344200  0.28402600  1
  H  468  1  0.03427700  0.92501400  0.31038700  1
  H  469  1  0.03907700  0.92954700  0.28195500  1
  H  470  1  0.40346200  0.51853000  0.31247400  1
  H  477  1  0.05784100  0.88475500  0.24672900  1
  H  499  1  0.28464400  0.50521300  0.52460800  1
  H  500  1  0.37517900  0.49996500  0.54107900  1
  H  501  1  0.15599600  0.50834500  0.56482700  1
  H  502  1  0.61986700  0.48922500  0.58710400  1
  H  503  1  0.52071300  0.48880100  0.54293300  1
  H  504  1  0.62282200  0.48770700  0.52922100  1
  H  505  1  0.72382400  0.48826500  0.57284100  1
  H  506  1  0.53007700  0.51085900  0.61879400  1
  H  507  1  0.31872000  0.49594500  0.64619100  1
  H  508  1  0.32412500  0.49103900  0.61771900  1
  H  509  1  0.52393300  0.51575100  0.64719100  1
  H  516  1  0.24920600  0.50272100  0.58191300  1
  H  538  1  0.78880600  0.97785500  0.47344100  1
  H  539  1  0.89336900  0.97174400  0.46057100  1
  H  540  1  0.69378600  0.95706900  0.42985000  1
  H  541  1  0.16697900  0.96542300  0.42075400  1
  H  542  1  0.04416500  0.98597800  0.46125800  1
  H  543  1  0.13661900  0.00054200  0.47630600  1
  H  544  1  0.26164600  0.97988500  0.43635500  1
  H  545  1  0.09374400  0.94727100  0.38640300  1
  H  546  1  0.89245000  0.95920500  0.35622500  1
  H  547  1  0.88602400  0.95894000  0.38464400  1
  H  548  1  0.09940300  0.94751300  0.35784800  1
  H  555  1  0.79912100  0.95091300  0.41658800  1
  H  577  1  0.07534400  0.90690200  0.13879700  1
  H  578  1  0.03311100  0.96213700  0.12633900  1
  H  579  1  0.15660200  0.86944500  0.09479500  1
  H  580  1  0.41021000  0.60235000  0.08746800  1
  H  581  1  0.43032500  0.52885200  0.12717700  1
  H  582  1  0.35880800  0.56743900  0.14222300  1
  H  583  1  0.33807600  0.64210200  0.10306100  1
  H  584  1  0.48187800  0.57700000  0.05348400  1
  H  585  1  0.05406900  0.97093600  0.02128300  1
  H  586  1  0.05837900  0.96595600  0.04971400  1
  H  587  1  0.48178700  0.58091000  0.02498700  1
  H  594  1  0.11429400  0.92522200  0.08194700  1
  H  616  1  0.55283400  0.59571000  0.80540800  1
  H  617  1  0.48954000  0.54602100  0.79417100  1
  H  618  1  0.56689400  0.65020200  0.76055900  1
  H  619  1  0.84182100  0.91009300  0.75746600  1
  H  620  1  0.93734100  0.96196300  0.79641100  1
  H  621  1  0.91551100  0.90841600  0.81214600  1
  H  622  1  0.81912100  0.85545900  0.77369500  1
  H  623  1  0.83498500  0.95794300  0.72359900  1
  H  624  1  0.44407800  0.55273800  0.69027100  1
  H  625  1  0.45619700  0.55544000  0.71848100  1
  H  626  1  0.82320100  0.95554800  0.69524100  1
  H  633  1  0.50173000  0.60070100  0.74904900  1
  N  115  1  0.44983500  0.47679600  0.92237100  1
  N  117  1  0.97712000  0.00031700  0.89734500  1
  N  119  1  0.01177100  0.03124200  0.92024100  1
  N  121  1  0.51195100  0.50232300  0.99597500  1
  N  122  1  0.33025000  0.34696900  0.87720500  1
  N  123  1  0.15277400  0.13296300  0.86412100  1
  N  154  1  0.95237100  0.01078900  0.25548000  1
  N  156  1  0.47747300  0.48405100  0.23087500  1
  N  158  1  0.50108000  0.45075200  0.25392400  1
  N  160  1  0.46412900  0.47039300  0.32973300  1
  N  161  1  0.82902400  0.13165900  0.20583100  1
  N  162  1  0.58904300  0.32930700  0.19864700  1
  N  193  1  0.99079600  0.99407300  0.59066900  1
  N  195  1  0.94015300  0.99456000  0.56618100  1
  N  197  1  0.87627100  0.99943100  0.58926700  1
  N  199  1  0.92155300  0.00904000  0.66496600  1
  N  200  1  0.23872200  0.99065100  0.54070400  1
  N  201  1  0.65569500  0.01180400  0.53352900  1
  N  232  1  0.54068300  0.46123800  0.41425800  1
  N  234  1  0.47699600  0.46605900  0.43744700  1
  N  236  1  0.42652900  0.45515100  0.41332000  1
  N  238  1  0.50293500  0.45486000  0.33871900  1
  N  239  1  0.76444400  0.50073700  0.46633900  1
  N  240  1  0.17518700  0.47508200  0.46081700  1
  N  271  1  0.97819900  0.04097400  0.08081400  1
  N  273  1  0.50058500  0.50649400  0.10355000  1
  N  275  1  0.54721500  0.48777000  0.07937400  1
  N  277  1  0.00695100  0.03005900  0.00532200  1
  N  278  1  0.79916433  0.13253200  0.13275500  1
  N  279  1  0.63618200  0.35109200  0.12577900  1
  N  310  1  0.39241600  0.47626700  0.75003100  1
  N  312  1  0.93786400  0.00547500  0.77216500  1
  N  314  1  0.93977700  0.03655400  0.74779400  1
  N  316  1  0.37799700  0.49969200  0.67452800  1
  N  317  1  0.34951400  0.34427500  0.80348500  1
  N  318  1  0.10712000  0.15281400  0.79085700  1
  N  433  1  0.94575400  0.97720200  0.92215000  1
  N  435  1  0.47591900  0.50116400  0.89740100  1
  N  437  1  0.51553200  0.53090400  0.92005500  1
  N  439  1  0.99271600  0.00409400  0.99624000  1
  N  440  1  0.83057600  0.84639500  0.87696100  1
  N  441  1  0.65258600  0.63300100  0.86377300  1
  N  472  1  0.45226300  0.51084800  0.25545300  1
  N  474  1  0.97760500  0.98401900  0.23090100  1
  N  476  1  0.00113600  0.95067700  0.25394400  1
  N  478  1  0.96412700  0.97034900  0.32975400  1
  N  479  1  0.32895300  0.63171200  0.20578300  1
  N  480  1  0.08908300  0.82936000  0.19859900  1
  N  511  1  0.49080000  0.49407700  0.59067200  1
  N  513  1  0.44015700  0.49456400  0.56618400  1
  N  515  1  0.37627000  0.49943300  0.58927000  1
  N  517  1  0.42154700  0.50902800  0.66496800  1
  N  518  1  0.73872300  0.49065400  0.54070600  1
  N  519  1  0.15569600  0.51179900  0.53353200  1
  N  550  1  0.04069000  0.96122900  0.41427500  1
  N  552  1  0.97700000  0.96605500  0.43746300  1
  N  554  1  0.92653700  0.95514100  0.41333600  1
  N  556  1  0.00294700  0.95483100  0.33874000  1
  N  557  1  0.26445800  0.00075500  0.46634500  1
  N  558  1  0.67516900  0.97507800  0.46081800  1
  N  589  1  0.48043800  0.54159100  0.08069400  1
  N  591  1  0.00068900  0.00637000  0.10362000  1
  N  593  1  0.04478400  0.98712600  0.07920000  1
  N  595  1  0.51792000  0.52922500  0.00517000  1
  N  596  1  0.29915133  0.63249500  0.13265900  1
  N  597  1  0.13668600  0.85116500  0.12567000  1
  N  628  1  0.89248200  0.97642500  0.75003000  1
  N  630  1  0.43776100  0.50538400  0.77216000  1
  N  632  1  0.43957300  0.53642200  0.74778300  1
  N  634  1  0.87801400  0.99972200  0.67453100  1
  N  635  1  0.84956500  0.84421400  0.80336500  1
  N  636  1  0.60703900  0.65283600  0.79063800  1
  O  8  1  0.40028700  0.33792600  0.85060900  1
  O  15  1  0.16373300  0.11850700  0.81529800  1
  O  36  1  0.78336600  0.10576800  0.17893900  1
  O  43  1  0.56006800  0.33667000  0.15056100  1
  O  64  1  0.72291000  0.51732000  0.51210400  1
  O  71  1  0.18845700  0.51974000  0.48542500  1
  O  326  1  0.90093200  0.83705300  0.85044600  1
  O  333  1  0.66436500  0.61834900  0.81495500  1
  O  354  1  0.28347300  0.60583500  0.17886500  1
  O  361  1  0.06057900  0.83704500  0.15050300  1
  O  382  1  0.22291700  0.01733000  0.51210500  1
  O  389  1  0.68844400  0.01975100  0.48542300  1
