# generated using pymatgen
data_SiH20(C8N)4
_symmetry_space_group_name_H-M   'P 1'
_cell_length_a   23.85995000
_cell_length_b   23.85995000
_cell_length_c   38.96110000
_cell_angle_alpha   90.00000000
_cell_angle_beta   90.00000000
_cell_angle_gamma   120.00000000
_symmetry_Int_Tables_number   1
_chemical_formula_structural   SiH20(C8N)4
_chemical_formula_sum   'Si8 H160 C256 N32'
_cell_volume   19208.82943001
_cell_formula_units_Z   8
loop_
 _symmetry_equiv_pos_site_id
 _symmetry_equiv_pos_as_xyz
  1  'x, y, z'
loop_
 _atom_site_type_symbol
 _atom_site_label
 _atom_site_symmetry_multiplicity
 _atom_site_fract_x
 _atom_site_fract_y
 _atom_site_fract_z
 _atom_site_occupancy
  C  1  1  0.55845500  0.12695800  0.97048500  1
  C  2  1  0.57601100  0.14508600  0.93585300  1
  C  3  1  0.61169350  0.21046150  0.92609400  1
  C  4  1  0.63069700  0.26082200  0.95047100  1
  C  5  1  0.61554650  0.24264950  0.98534400  1
  C  6  1  0.57967100  0.17719800  0.99507600  1
  C  8  1  0.74623950  0.36149550  0.95991600  1
  C  9  1  0.77284400  0.41105500  0.98498100  1
  C  10  1  0.83427000  0.43153000  0.99920300  1
  C  11  1  0.87130300  0.40281400  0.98932450  1
  C  12  1  0.84228650  0.34962350  0.96649500  1
  C  13  1  0.78088050  0.32906750  0.95230700  1
  C  14  1  0.68493350  0.34935650  0.89764900  1
  C  15  1  0.64312700  0.38348800  0.95148400  1
  C  16  1  0.67630800  0.45075700  0.94418600  1
  C  17  1  0.64976650  0.48984750  0.95294600  1
  C  18  1  0.58880800  0.46304100  0.96921300  1
  C  19  1  0.55467000  0.39570200  0.97558600  1
  C  20  1  0.58076500  0.35650600  0.96632900  1
  C  21  1  0.62951400  0.33058600  0.87687700  1
  C  22  1  0.63436500  0.33572000  0.84092700  1
  C  23  1  0.69483500  0.35960800  0.82447800  1
  C  24  1  0.75067100  0.38179800  0.84508300  1
  C  25  1  0.74590850  0.37782950  0.88105300  1
  C  42  1  0.44941250  0.87567850  0.47048700  1
  C  43  1  0.43185350  0.85755250  0.43585500  1
  C  44  1  0.39620250  0.79217850  0.42609100  1
  C  45  1  0.37714600  0.74180500  0.45046900  1
  C  46  1  0.39230600  0.75998600  0.48534000  1
  C  47  1  0.42818850  0.82543650  0.49507500  1
  C  49  1  0.26162000  0.64109300  0.45991200  1
  C  50  1  0.23501800  0.59149700  0.48495800  1
  C  51  1  0.17357950  0.57097750  0.49917200  1
  C  52  1  0.13652750  0.59968150  0.48930800  1
  C  53  1  0.16553650  0.65290150  0.46649800  1
  C  54  1  0.22695700  0.67350500  0.45231700  1
  C  55  1  0.32293150  0.65329450  0.39764000  1
  C  56  1  0.36477050  0.61916150  0.45145800  1
  C  57  1  0.33161950  0.55189850  0.44414500  1
  C  58  1  0.35818500  0.51282000  0.45288500  1
  C  59  1  0.41912450  0.53962750  0.46917300  1
  C  60  1  0.45324150  0.60696250  0.47555600  1
  C  61  1  0.42711900  0.64614400  0.46632100  1
  C  62  1  0.37835000  0.67208100  0.37686300  1
  C  63  1  0.37349550  0.66697950  0.34091100  1
  C  64  1  0.31302300  0.64306100  0.32446700  1
  C  65  1  0.25718950  0.62087050  0.34507200  1
  C  66  1  0.26195550  0.62483450  0.38104100  1
  C  83  1  0.42776450  0.86905750  0.01959100  1
  C  84  1  0.46018650  0.85342150  0.04495900  1
  C  85  1  0.43202500  0.79093000  0.05908100  1
  C  86  1  0.36938150  0.74177350  0.04912000  1
  C  87  1  0.33714350  0.75720650  0.02354100  1
  C  88  1  0.36555700  0.81965000  0.00929600  1
  C  90  1  0.39017500  0.64467700  0.04863000  1
  C  91  1  0.39299150  0.63852250  0.01255300  1
  C  92  1  0.43241900  0.61670200  0.99780900  1
  C  93  1  0.47115600  0.60100100  0.01859700  1
  C  94  1  0.47127450  0.61062550  0.05440700  1
  C  95  1  0.43247350  0.63325650  0.06909900  1
  C  96  1  0.33634400  0.66548600  0.10764000  1
  C  97  1  0.26316350  0.61706950  0.05379600  1
  C  98  1  0.24261200  0.55582300  0.03868100  1
  C  99  1  0.17761800  0.51487600  0.02940300  1
  C  100  1  0.13026900  0.53280700  0.03554500  1
  C  101  1  0.14985100  0.59190400  0.05281600  1
  C  102  1  0.21491900  0.63300500  0.06197100  1
  C  103  1  0.34134150  0.71787750  0.12718800  1
  C  104  1  0.33330217  0.71327717  0.16300800  1
  C  105  1  0.32011100  0.65612500  0.18055100  1
  C  106  1  0.31416850  0.60336950  0.16124000  1
  C  107  1  0.32026500  0.60738600  0.12531100  1
  C  124  1  0.58009450  0.13357650  0.51959500  1
  C  125  1  0.54766900  0.14921200  0.54496400  1
  C  126  1  0.57583300  0.21169800  0.55909300  1
  C  127  1  0.63849000  0.26084500  0.54914500  1
  C  128  1  0.67071600  0.24542900  0.52355000  1
  C  129  1  0.64230550  0.18298950  0.50930200  1
  C  131  1  0.61768300  0.35794500  0.54863100  1
  C  132  1  0.61487450  0.36406750  0.51254900  1
  C  133  1  0.57551900  0.38596800  0.49779900  1
  C  134  1  0.53674350  0.40164450  0.51857100  1
  C  135  1  0.53655950  0.39196950  0.55438100  1
  C  136  1  0.57533800  0.36932300  0.56908300  1
  C  137  1  0.67143600  0.33711000  0.60766000  1
  C  138  1  0.74469100  0.38554500  0.55383700  1
  C  139  1  0.76526000  0.44679000  0.53871600  1
  C  140  1  0.83025700  0.48772000  0.52943800  1
  C  141  1  0.87758350  0.46975650  0.53557200  1
  C  142  1  0.85799100  0.41067400  0.55286400  1
  C  143  1  0.79292400  0.36960900  0.56203700  1
  C  144  1  0.66647200  0.28474100  0.62721200  1
  C  145  1  0.67458400  0.28940700  0.66303000  1
  C  146  1  0.68774000  0.34653400  0.68056600  1
  C  147  1  0.69364050  0.39926650  0.66124600  1
  C  148  1  0.68752550  0.39522750  0.62531800  1
  C  165  1  0.69428350  0.35093450  0.71670200  1
  C  166  1  0.73197050  0.33054150  0.73502300  1
  C  167  1  0.73466400  0.33510900  0.77099000  1
  C  168  1  0.69848450  0.35863850  0.78821900  1
  C  173  1  0.31359100  0.65174900  0.21669000  1
  C  174  1  0.27591900  0.67215700  0.23501100  1
  C  175  1  0.27321950  0.66758350  0.27097700  1
  C  176  1  0.30936050  0.64401050  0.28820700  1
  C  181  1  0.52282100  0.06067400  0.98068200  1
  C  182  1  0.47858650  0.01002950  0.95917800  1
  C  183  1  0.44605600  0.94602500  0.97136800  1
  C  184  1  0.45765300  0.93245800  0.00511200  1
  C  189  1  0.56246400  0.50205000  0.97973500  1
  C  190  1  0.56640700  0.55375000  0.96014900  1
  C  191  1  0.53683350  0.58816050  0.97240900  1
  C  192  1  0.50504750  0.57158850  0.00452400  1
  C  197  1  0.93647300  0.42909800  0.00083200  1
  C  198  1  0.98528350  0.42764450  0.98090200  1
  C  199  1  0.04968000  0.46006200  0.99240400  1
  C  200  1  0.06542850  0.49418650  0.02382300  1
  C  205  1  0.48504300  0.94196100  0.48068700  1
  C  206  1  0.52927700  0.99260800  0.45918300  1
  C  207  1  0.56180950  0.05661250  0.47137200  1
  C  208  1  0.55020600  0.07017900  0.50511400  1
  C  213  1  0.44547300  0.50062600  0.47969600  1
  C  214  1  0.44157150  0.44895450  0.46010000  1
  C  215  1  0.47114100  0.41454000  0.47236300  1
  C  216  1  0.50287850  0.43107750  0.50449000  1
  C  221  1  0.07134950  0.57334850  0.50080900  1
  C  222  1  0.02254150  0.57483250  0.48088900  1
  C  223  1  0.95815350  0.54243650  0.49240600  1
  C  224  1  0.94241700  0.50833400  0.52382700  1
  C  913  1  0.55845500  0.62989240  0.66248500  1
  C  914  1  0.57601100  0.64802040  0.62785300  1
  C  915  1  0.61169350  0.71339590  0.61809400  1
  C  916  1  0.63069700  0.76375640  0.64247100  1
  C  917  1  0.61554650  0.74558390  0.67734400  1
  C  918  1  0.57967100  0.68013240  0.68707600  1
  C  920  1  0.74623950  0.86442990  0.65191600  1
  C  921  1  0.77284400  0.91398940  0.67698100  1
  C  922  1  0.83427000  0.93446440  0.69120300  1
  C  923  1  0.87130300  0.90574840  0.68132450  1
  C  924  1  0.84228650  0.85255792  0.65849500  1
  C  925  1  0.78088050  0.83200190  0.64430700  1
  C  926  1  0.68493350  0.85229090  0.58964900  1
  C  927  1  0.64312700  0.88642200  0.64348400  1
  C  928  1  0.67630800  0.95369100  0.63618600  1
  C  929  1  0.64976650  0.99278150  0.64494600  1
  C  930  1  0.58880800  0.96597500  0.66121300  1
  C  931  1  0.55467000  0.89863600  0.66758600  1
  C  932  1  0.58076500  0.85944000  0.65832900  1
  C  933  1  0.62951400  0.83352000  0.56887700  1
  C  934  1  0.63436500  0.83865400  0.53292700  1
  C  935  1  0.69483500  0.86254240  0.51647800  1
  C  936  1  0.75067100  0.88473240  0.53708300  1
  C  937  1  0.74590850  0.88076390  0.57305300  1
  C  954  1  0.44941250  0.37861250  0.16248700  1
  C  955  1  0.43185350  0.36048650  0.12785500  1
  C  956  1  0.39620250  0.29511250  0.11809100  1
  C  957  1  0.37714600  0.24473900  0.14246900  1
  C  958  1  0.39230600  0.26292000  0.17734000  1
  C  959  1  0.42818850  0.32837050  0.18707500  1
  C  961  1  0.26162000  0.14402700  0.15191200  1
  C  962  1  0.23501800  0.09443100  0.17695800  1
  C  963  1  0.17357950  0.07391150  0.19117200  1
  C  964  1  0.13652750  0.10261550  0.18130800  1
  C  965  1  0.16553650  0.15583550  0.15849800  1
  C  966  1  0.22695700  0.17643900  0.14431700  1
  C  967  1  0.32293150  0.15622850  0.08964000  1
  C  968  1  0.36477050  0.12209550  0.14345800  1
  C  969  1  0.33161950  0.05483250  0.13614500  1
  C  970  1  0.35818500  0.01575400  0.14488500  1
  C  971  1  0.41912450  0.04256150  0.16117300  1
  C  972  1  0.45324150  0.10989650  0.16755600  1
  C  973  1  0.42711900  0.14907800  0.15832100  1
  C  974  1  0.37835000  0.17501500  0.06886300  1
  C  975  1  0.37349550  0.16991350  0.03291100  1
  C  976  1  0.31302300  0.14599500  0.01646700  1
  C  977  1  0.25718950  0.12380450  0.03707200  1
  C  978  1  0.26195550  0.12776850  0.07304100  1
  C  995  1  0.42776450  0.37199150  0.71159100  1
  C  996  1  0.46018650  0.35635550  0.73695900  1
  C  997  1  0.43202500  0.29386400  0.75108100  1
  C  998  1  0.36938150  0.24470750  0.74112000  1
  C  999  1  0.33714350  0.26014050  0.71554100  1
  C  1000  1  0.36555700  0.32258400  0.70129600  1
  C  1002  1  0.39017500  0.14761100  0.74063000  1
  C  1003  1  0.39299150  0.14145650  0.70455300  1
  C  1004  1  0.43241900  0.11963600  0.68980900  1
  C  1005  1  0.47115600  0.10393500  0.71059700  1
  C  1006  1  0.47127450  0.11355950  0.74640700  1
  C  1007  1  0.43247350  0.13619050  0.76109900  1
  C  1008  1  0.33634400  0.16842000  0.79964000  1
  C  1009  1  0.26316350  0.12000350  0.74579600  1
  C  1010  1  0.24261200  0.05875700  0.73068100  1
  C  1011  1  0.17761800  0.01781000  0.72140300  1
  C  1012  1  0.13026900  0.03574100  0.72754500  1
  C  1013  1  0.14985100  0.09483800  0.74481600  1
  C  1014  1  0.21491900  0.13593900  0.75397100  1
  C  1015  1  0.34134150  0.22081150  0.81918800  1
  C  1016  1  0.33330217  0.21621117  0.85500800  1
  C  1017  1  0.32011100  0.15905900  0.87255100  1
  C  1018  1  0.31416850  0.10630350  0.85324000  1
  C  1019  1  0.32026500  0.11032000  0.81731100  1
  C  1036  1  0.58009450  0.63651090  0.21159500  1
  C  1037  1  0.54766900  0.65214640  0.23696400  1
  C  1038  1  0.57583300  0.71463240  0.25109300  1
  C  1039  1  0.63849000  0.76377940  0.24114500  1
  C  1040  1  0.67071600  0.74836340  0.21555000  1
  C  1041  1  0.64230550  0.68592390  0.20130200  1
  C  1043  1  0.61768300  0.86087900  0.24063100  1
  C  1044  1  0.61487450  0.86700150  0.20454900  1
  C  1045  1  0.57551900  0.88890200  0.18979900  1
  C  1046  1  0.53674350  0.90457850  0.21057100  1
  C  1047  1  0.53655950  0.89490350  0.24638100  1
  C  1048  1  0.57533800  0.87225700  0.26108300  1
  C  1049  1  0.67143600  0.84004440  0.29966000  1
  C  1050  1  0.74469100  0.88847940  0.24583700  1
  C  1051  1  0.76526000  0.94972440  0.23071600  1
  C  1052  1  0.83025700  0.99065440  0.22143800  1
  C  1053  1  0.87758350  0.97269090  0.22757200  1
  C  1054  1  0.85799100  0.91360840  0.24486400  1
  C  1055  1  0.79292400  0.87254340  0.25403700  1
  C  1056  1  0.66647200  0.78767540  0.31921200  1
  C  1057  1  0.67458400  0.79234140  0.35503000  1
  C  1058  1  0.68774000  0.84946840  0.37256600  1
  C  1059  1  0.69364050  0.90220050  0.35324600  1
  C  1060  1  0.68752550  0.89816150  0.31731800  1
  C  1077  1  0.69428350  0.85386890  0.40870200  1
  C  1078  1  0.73197050  0.83347590  0.42702300  1
  C  1079  1  0.73466400  0.83804340  0.46299000  1
  C  1080  1  0.69848450  0.86157290  0.48021900  1
  C  1085  1  0.31359100  0.15468300  0.90869050  1
  C  1086  1  0.27591900  0.17509100  0.92701150  1
  C  1087  1  0.27321950  0.17051750  0.96297750  1
  C  1088  1  0.30936050  0.14694450  0.98020750  1
  C  1093  1  0.52282100  0.56360840  0.67268200  1
  C  1094  1  0.47858650  0.51296390  0.65117800  1
  C  1095  1  0.44605600  0.44895942  0.66336800  1
  C  1096  1  0.45765300  0.43539200  0.69711200  1
  C  1101  1  0.56246400  0.00498400  0.67173500  1
  C  1102  1  0.56640700  0.05668400  0.65214900  1
  C  1103  1  0.53683350  0.09109450  0.66440900  1
  C  1104  1  0.50504750  0.07452250  0.69652400  1
  C  1109  1  0.93647300  0.93203200  0.69283200  1
  C  1110  1  0.98528350  0.93057850  0.67290200  1
  C  1111  1  0.04968000  0.96299600  0.68440400  1
  C  1112  1  0.06542850  0.99712050  0.71582300  1
  C  1117  1  0.48504300  0.44489500  0.17268700  1
  C  1118  1  0.52927700  0.49554200  0.15118300  1
  C  1119  1  0.56180950  0.55954650  0.16337200  1
  C  1120  1  0.55020600  0.57311340  0.19711400  1
  C  1125  1  0.44547300  0.00356000  0.17169600  1
  C  1126  1  0.44157150  0.95188850  0.15210000  1
  C  1127  1  0.47114100  0.91747400  0.16436300  1
  C  1128  1  0.50287850  0.93401150  0.19649000  1
  C  1133  1  0.07134950  0.07628292  0.19280900  1
  C  1134  1  0.02254150  0.07776690  0.17288900  1
  C  1135  1  0.95815350  0.04537090  0.18440600  1
  C  1136  1  0.94241700  0.01126840  0.21582700  1
  H  26  1  0.67639900  0.53848600  0.94820900  1
  H  27  1  0.72103350  0.47269750  0.93282700  1
  H  28  1  0.50959150  0.37413250  0.98649300  1
  H  29  1  0.55278900  0.30796200  0.97060800  1
  H  30  1  0.58426100  0.31058600  0.88752100  1
  H  31  1  0.59277150  0.31870150  0.82683100  1
  H  32  1  0.79550150  0.40116850  0.83405000  1
  H  33  1  0.78802300  0.39540800  0.89457500  1
  H  34  1  0.76325850  0.29164350  0.93506100  1
  H  35  1  0.86589800  0.32557500  0.95943300  1
  H  36  1  0.85277000  0.46985700  0.01584300  1
  H  37  1  0.74901500  0.43434400  0.99287200  1
  H  38  1  0.62994850  0.27693950  0.00427300  1
  H  39  1  0.62466750  0.21996550  0.90086700  1
  H  40  1  0.56504000  0.11083900  0.91728500  1
  H  41  1  0.56886600  0.16673300  0.02052500  1
  H  67  1  0.33155350  0.46417850  0.44815400  1
  H  68  1  0.28689900  0.52995100  0.43278000  1
  H  69  1  0.49828750  0.62852650  0.48650300  1
  H  70  1  0.45506800  0.69468400  0.47062300  1
  H  71  1  0.42360200  0.69207100  0.38750700  1
  H  72  1  0.41508950  0.68395950  0.32682000  1
  H  73  1  0.21235500  0.60149100  0.33404000  1
  H  74  1  0.21984000  0.60724400  0.39456500  1
  H  75  1  0.24457400  0.71095300  0.43508500  1
  H  76  1  0.14191000  0.67694200  0.45944500  1
  H  77  1  0.15508150  0.53262850  0.51579600  1
  H  78  1  0.25885950  0.56821350  0.49283500  1
  H  79  1  0.37790350  0.72569650  0.50426900  1
  H  80  1  0.38317650  0.78268050  0.40087100  1
  H  81  1  0.44282100  0.89180200  0.41729000  1
  H  82  1  0.43900100  0.83589500  0.52052400  1
  H  108  1  0.16521700  0.47135700  0.01825800  1
  H  109  1  0.27423600  0.53956500  0.03414400  1
  H  110  1  0.11733100  0.60696000  0.05781800  1
  H  111  1  0.22668500  0.67582700  0.07384700  1
  H  112  1  0.34939250  0.75984750  0.11578900  1
  H  113  1  0.33804850  0.75249050  0.17622400  1
  H  114  1  0.30323500  0.56075700  0.17305900  1
  H  115  1  0.31348650  0.56712750  0.11231600  1
  H  116  1  0.43535400  0.64019900  0.09504800  1
  H  117  1  0.49959300  0.60092200  0.07027200  1
  H  118  1  0.42990100  0.60930400  0.97184800  1
  H  119  1  0.36425000  0.64723800  0.99643600  1
  H  120  1  0.29309500  0.72318200  0.01417500  1
  H  121  1  0.45833950  0.78200850  0.07681700  1
  H  122  1  0.50578950  0.88699450  0.05281900  1
  H  123  1  0.33962850  0.82851750  0.99138400  1
  H  149  1  0.84266500  0.53122200  0.51827300  1
  H  150  1  0.73364350  0.46305050  0.53416600  1
  H  151  1  0.89048300  0.39557000  0.55783300  1
  H  152  1  0.78113100  0.32674400  0.57387200  1
  H  153  1  0.65850900  0.24279900  0.61581600  1
  H  154  1  0.66988200  0.25019400  0.67624900  1
  H  155  1  0.70457550  0.44188550  0.67305800  1
  H  156  1  0.69429400  0.43547500  0.61231800  1
  H  157  1  0.57242750  0.36236450  0.59502900  1
  H  158  1  0.50820950  0.40164650  0.57023300  1
  H  159  1  0.57809400  0.39341900  0.47183900  1
  H  160  1  0.64372100  0.35547800  0.49644900  1
  H  161  1  0.71476200  0.27946200  0.51418400  1
  H  162  1  0.54951550  0.22061650  0.57682600  1
  H  163  1  0.50206200  0.11563800  0.55281800  1
  H  164  1  0.66822200  0.17413100  0.49138200  1
  H  170  1  0.76080700  0.31895400  0.78429800  1
  H  171  1  0.75765750  0.31291750  0.72253300  1
  H  178  1  0.24708400  0.68374900  0.28428600  1
  H  179  1  0.25024400  0.68979500  0.22252400  1
  H  186  1  0.41538850  0.90994950  0.95517100  1
  H  187  1  0.46878700  0.01897400  0.93490200  1
  H  194  1  0.53918750  0.62516950  0.95805100  1
  H  195  1  0.58851000  0.56516900  0.93666000  1
  H  202  1  0.08481350  0.46138650  0.97681700  1
  H  203  1  0.97556050  0.40657350  0.95717200  1
  H  210  1  0.59247450  0.09268750  0.45517400  1
  H  211  1  0.53908200  0.98366400  0.43490800  1
  H  218  1  0.46881000  0.37754900  0.45799700  1
  H  219  1  0.41949600  0.43755500  0.43660200  1
  H  226  1  0.92301500  0.54112400  0.47682600  1
  H  227  1  0.03225800  0.59590300  0.45716100  1
  H  938  1  0.67639900  0.04142000  0.64020900  1
  H  939  1  0.72103350  0.97563150  0.62482700  1
  H  940  1  0.50959150  0.87706650  0.67849300  1
  H  941  1  0.55278900  0.81089600  0.66260800  1
  H  942  1  0.58426100  0.81352000  0.57952100  1
  H  943  1  0.59277150  0.82163550  0.51883100  1
  H  944  1  0.79550150  0.90410290  0.52605000  1
  H  945  1  0.78802300  0.89834240  0.58657500  1
  H  946  1  0.76325850  0.79457790  0.62706100  1
  H  947  1  0.86589800  0.82850900  0.65143300  1
  H  948  1  0.85277000  0.97279140  0.70784300  1
  H  949  1  0.74901500  0.93727840  0.68487200  1
  H  950  1  0.62994850  0.77987390  0.69627300  1
  H  951  1  0.62466750  0.72289990  0.59286700  1
  H  952  1  0.56504000  0.61377340  0.60928500  1
  H  953  1  0.56886600  0.66966740  0.71252500  1
  H  979  1  0.33155350  0.96711250  0.14015400  1
  H  980  1  0.28689900  0.03288500  0.12478000  1
  H  981  1  0.49828750  0.13146050  0.17850300  1
  H  982  1  0.45506800  0.19761800  0.16262300  1
  H  983  1  0.42360200  0.19500500  0.07950700  1
  H  984  1  0.41508950  0.18689350  0.01882000  1
  H  985  1  0.21235500  0.10442500  0.02604000  1
  H  986  1  0.21984000  0.11017800  0.08656500  1
  H  987  1  0.24457400  0.21388700  0.12708500  1
  H  988  1  0.14191000  0.17987640  0.15144500  1
  H  989  1  0.15508150  0.03556250  0.20779600  1
  H  990  1  0.25885950  0.07114750  0.18483500  1
  H  991  1  0.37790350  0.22863050  0.19626900  1
  H  992  1  0.38317650  0.28561450  0.09287100  1
  H  993  1  0.44282100  0.39473600  0.10929000  1
  H  994  1  0.43900100  0.33882900  0.21252400  1
  H  1020  1  0.16521700  0.97429100  0.71025800  1
  H  1021  1  0.27423600  0.04249900  0.72614400  1
  H  1022  1  0.11733100  0.10989400  0.74981800  1
  H  1023  1  0.22668500  0.17876100  0.76584700  1
  H  1024  1  0.34939250  0.26278150  0.80778900  1
  H  1025  1  0.33804850  0.25542450  0.86822400  1
  H  1026  1  0.30323500  0.06369100  0.86505900  1
  H  1027  1  0.31348650  0.07006150  0.80431600  1
  H  1028  1  0.43535400  0.14313300  0.78704800  1
  H  1029  1  0.49959300  0.10385600  0.76227200  1
  H  1030  1  0.42990100  0.11223800  0.66384800  1
  H  1031  1  0.36425000  0.15017200  0.68843600  1
  H  1032  1  0.29309500  0.22611600  0.70617500  1
  H  1033  1  0.45833950  0.28494250  0.76881700  1
  H  1034  1  0.50578950  0.38992850  0.74481900  1
  H  1035  1  0.33962850  0.33145150  0.68338400  1
  H  1061  1  0.84266500  0.03415640  0.21027300  1
  H  1062  1  0.73364350  0.96598450  0.22616600  1
  H  1063  1  0.89048300  0.89850442  0.24983300  1
  H  1064  1  0.78113100  0.82967840  0.26587200  1
  H  1065  1  0.65850900  0.74573340  0.30781600  1
  H  1066  1  0.66988200  0.75312840  0.36824900  1
  H  1067  1  0.70457550  0.94481950  0.36505800  1
  H  1068  1  0.69429400  0.93840900  0.30431800  1
  H  1069  1  0.57242750  0.86529850  0.28702900  1
  H  1070  1  0.50820950  0.90458050  0.26223300  1
  H  1071  1  0.57809400  0.89635300  0.16383900  1
  H  1072  1  0.64372100  0.85841200  0.18844900  1
  H  1073  1  0.71476200  0.78239640  0.20618400  1
  H  1074  1  0.54951550  0.72355090  0.26882600  1
  H  1075  1  0.50206200  0.61857240  0.24481800  1
  H  1076  1  0.66822200  0.67706542  0.18338200  1
  H  1082  1  0.76080700  0.82188840  0.47629800  1
  H  1083  1  0.75765750  0.81585190  0.41453300  1
  H  1090  1  0.24708400  0.18668300  0.97628650  1
  H  1091  1  0.25024400  0.19272900  0.91452450  1
  H  1098  1  0.41538850  0.41288350  0.64717100  1
  H  1099  1  0.46878700  0.52190840  0.62690200  1
  H  1106  1  0.53918750  0.12810350  0.65005100  1
  H  1107  1  0.58851000  0.06810300  0.62866000  1
  H  1114  1  0.08481350  0.96432050  0.66881700  1
  H  1115  1  0.97556050  0.90950750  0.64917200  1
  H  1122  1  0.59247450  0.59562192  0.14717400  1
  H  1123  1  0.53908200  0.48659800  0.12690800  1
  H  1130  1  0.46881000  0.88048300  0.14999700  1
  H  1131  1  0.41949600  0.94048900  0.12860200  1
  H  1138  1  0.92301500  0.04405840  0.16882600  1
  H  1139  1  0.03225800  0.09883740  0.14916100  1
  N  169  1  0.66308900  0.37687900  0.76867500  1
  N  172  1  0.66150050  0.37372750  0.73514600  1
  N  177  1  0.34476200  0.62578000  0.26866200  1
  N  180  1  0.34636150  0.62894350  0.23513100  1
  N  185  1  0.50081250  0.98393650  0.02411000  1
  N  188  1  0.53098850  0.04347250  0.01279400  1
  N  193  1  0.50413550  0.52168650  0.02185700  1
  N  196  1  0.53080600  0.48917200  0.01027100  1
  N  201  1  0.01583450  0.49341250  0.04146100  1
  N  204  1  0.95587050  0.46309650  0.03073500  1
  N  209  1  0.50704900  0.01869800  0.52411200  1
  N  212  1  0.47687250  0.95916150  0.51279600  1
  N  217  1  0.50375600  0.48095500  0.52183300  1
  N  220  1  0.47709100  0.51347400  0.51024400  1
  N  225  1  0.99201450  0.50910350  0.54146000  1
  N  228  1  0.05197250  0.53939050  0.53072400  1
  N  1081  1  0.66308900  0.87981300  0.46067500  1
  N  1084  1  0.66150050  0.87666150  0.42714600  1
  N  1089  1  0.34476200  0.12871400  0.96066250  1
  N  1092  1  0.34636150  0.13187750  0.92713150  1
  N  1097  1  0.50081250  0.48687050  0.71611000  1
  N  1100  1  0.53098850  0.54640692  0.70479400  1
  N  1105  1  0.50413550  0.02462050  0.71385700  1
  N  1108  1  0.53080600  0.99210600  0.70227100  1
  N  1113  1  0.01583450  0.99634650  0.73346100  1
  N  1116  1  0.95587050  0.96603092  0.72273500  1
  N  1121  1  0.50704900  0.52163242  0.21611200  1
  N  1124  1  0.47687250  0.46209550  0.20479600  1
  N  1129  1  0.50375600  0.98388900  0.21383300  1
  N  1132  1  0.47709100  0.01640800  0.20224400  1
  N  1137  1  0.99201450  0.01203790  0.23346000  1
  N  1140  1  0.05197250  0.04232450  0.22272400  1
  Si  7  1  0.67611300  0.33889500  0.94008200  1
  Si  48  1  0.33175350  0.66373450  0.44007200  1
  Si  89  1  0.33988500  0.66731800  0.06490500  1
  Si  130  1  0.66795500  0.33530000  0.56492500  1
  Si  919  1  0.67611300  0.84182940  0.63208200  1
  Si  960  1  0.33175350  0.16666850  0.13207200  1
  Si  1001  1  0.33988500  0.17025200  0.75690500  1
  Si  1042  1  0.66795500  0.83823440  0.25692500  1
