# generated using pymatgen
data_ZnH4C7N3O4
_symmetry_space_group_name_H-M   'P 1'
_cell_length_a   9.61305000
_cell_length_b   9.83968000
_cell_length_c   13.81171000
_cell_angle_alpha   90.00000000
_cell_angle_beta   101.86487000
_cell_angle_gamma   90.00000000
_symmetry_Int_Tables_number   1
_chemical_formula_structural   ZnH4C7N3O4
_chemical_formula_sum   'Zn4 H16 C28 N12 O16'
_cell_volume   1278.52867783
_cell_formula_units_Z   4
loop_
 _symmetry_equiv_pos_site_id
 _symmetry_equiv_pos_as_xyz
  1  'x, y, z'
loop_
 _atom_site_type_symbol
 _atom_site_label
 _atom_site_symmetry_multiplicity
 _atom_site_fract_x
 _atom_site_fract_y
 _atom_site_fract_z
 _atom_site_occupancy
  Zn  Zn0  1  0.09240000  0.93554000  0.40062000  1
  Zn  Zn1  1  0.40760000  0.43554000  0.59938000  1
  Zn  Zn2  1  0.90760000  0.06446000  0.59938000  1
  Zn  Zn3  1  0.59240000  0.56446000  0.40062000  1
  H  H4  1  0.87977000  0.11774000  0.11838000  1
  H  H5  1  0.61324000  0.23430000  0.83030000  1
  H  H6  1  0.35323000  0.79916000  0.32436000  1
  H  H7  1  0.19453000  0.69214000  0.57668000  1
  H  H8  1  0.62023000  0.61774000  0.88162000  1
  H  H9  1  0.88676000  0.73431000  0.16970000  1
  H  H10  1  0.14677000  0.29916000  0.67564000  1
  H  H11  1  0.30547000  0.19214000  0.42332000  1
  H  H12  1  0.12023000  0.88226000  0.88162000  1
  H  H13  1  0.38676000  0.76570000  0.16970000  1
  H  H14  1  0.64677000  0.20084000  0.67564000  1
  H  H15  1  0.80547000  0.30786000  0.42332000  1
  H  H16  1  0.37977000  0.38226000  0.11838000  1
  H  H17  1  0.11324000  0.26569000  0.83030000  1
  H  H18  1  0.85323000  0.70084000  0.32436000  1
  H  H19  1  0.69453000  0.80786000  0.57668000  1
  C  C20  1  0.93468000  0.06625000  0.06745000  1
  C  C21  1  0.06200000  0.93120000  0.20844000  1
  C  C22  1  0.89288000  0.09614000  0.96669000  1
  C  C23  1  0.03994000  0.97002000  0.10159000  1
  C  C24  1  0.33724000  0.74886000  0.39102000  1
  C  C25  1  0.25481000  0.69401000  0.51840000  1
  C  C26  1  0.77078000  0.19158000  0.93822000  1
  C  C27  1  0.56532000  0.56625000  0.93255000  1
  C  C28  1  0.43800000  0.43120000  0.79156000  1
  C  C29  1  0.60712000  0.59614000  0.03331000  1
  C  C30  1  0.46005000  0.47001000  0.89841000  1
  C  C31  1  0.16276000  0.24886000  0.60898000  1
  C  C32  1  0.24518000  0.19401000  0.48160000  1
  C  C33  1  0.72922000  0.69159000  0.06178000  1
  C  C34  1  0.06532000  0.93375000  0.93255000  1
  C  C35  1  0.93800000  0.06880000  0.79156000  1
  C  C36  1  0.10712000  0.90387000  0.03331000  1
  C  C37  1  0.96005000  0.02998000  0.89841000  1
  C  C38  1  0.66276000  0.25114000  0.60898000  1
  C  C39  1  0.74519000  0.30599000  0.48160000  1
  C  C40  1  0.22922000  0.80840000  0.06178000  1
  C  C41  1  0.43468000  0.43375000  0.06745000  1
  C  C42  1  0.56200000  0.56880000  0.20844000  1
  C  C43  1  0.39287000  0.40386000  0.96669000  1
  C  C44  1  0.53995000  0.52999000  0.10159000  1
  C  C45  1  0.83724000  0.75114000  0.39102000  1
  C  C46  1  0.75481000  0.80599000  0.51840000  1
  C  C47  1  0.27078000  0.30842000  0.93821000  1
  N  N48  1  0.23988000  0.78683000  0.44430000  1
  N  N49  1  0.40901000  0.63897000  0.43001000  1
  N  N50  1  0.35572000  0.60351000  0.51182000  1
  N  N51  1  0.26011000  0.28683000  0.55570000  1
  N  N52  1  0.09099000  0.13896000  0.56999000  1
  N  N53  1  0.14428000  0.10351000  0.48818000  1
  N  N54  1  0.76011000  0.21317000  0.55570000  1
  N  N55  1  0.59099000  0.36103000  0.56999000  1
  N  N56  1  0.64428000  0.39649000  0.48818000  1
  N  N57  1  0.73989000  0.71317000  0.44430000  1
  N  N58  1  0.90901000  0.86104000  0.43001000  1
  N  N59  1  0.85572000  0.89649000  0.51182000  1
  O  O60  1  0.11164000  0.02139000  0.27469000  1
  O  O61  1  0.02289000  0.81549000  0.23299000  1
  O  O62  1  0.69989000  0.17318000  0.84378000  1
  O  O63  1  0.73587000  0.27366000  0.99531000  1
  O  O64  1  0.38835000  0.52139000  0.72531000  1
  O  O65  1  0.47711000  0.31548000  0.76701000  1
  O  O66  1  0.80011000  0.67318000  0.15622000  1
  O  O67  1  0.76412000  0.77365000  0.00470000  1
  O  O68  1  0.88836000  0.97861000  0.72531000  1
  O  O69  1  0.97711000  0.18451000  0.76701000  1
  O  O70  1  0.30011000  0.82682000  0.15622000  1
  O  O71  1  0.26412000  0.72635000  0.00470000  1
  O  O72  1  0.61164000  0.47861000  0.27469000  1
  O  O73  1  0.52289000  0.68452000  0.23299000  1
  O  O74  1  0.19989000  0.32682000  0.84378000  1
  O  O75  1  0.23586000  0.22633000  0.99531000  1
