# generated using pymatgen
data_H10C18NO3
_symmetry_space_group_name_H-M   'P 1'
_cell_length_a   25.40680000
_cell_length_b   26.41990000
_cell_length_c   26.41990000
_cell_angle_alpha   120.00000000
_cell_angle_beta   90.00000000
_cell_angle_gamma   90.00000000
_symmetry_Int_Tables_number   1
_chemical_formula_structural   H10C18NO3
_chemical_formula_sum   'H60 C108 N6 O18'
_cell_volume   15358.29267659
_cell_formula_units_Z   6
loop_
 _symmetry_equiv_pos_site_id
 _symmetry_equiv_pos_as_xyz
  1  'x, y, z'
loop_
 _atom_site_type_symbol
 _atom_site_label
 _atom_site_symmetry_multiplicity
 _atom_site_fract_x
 _atom_site_fract_y
 _atom_site_fract_z
 _atom_site_occupancy
  C  1  1  0.99261700  0.45231300  0.45423500  1
  C  2  1  0.03227900  0.49333500  0.46187900  1
  C  3  1  0.03298800  0.52191100  0.42861600  1
  C  4  1  0.99235700  0.50838650  0.38721250  1
  C  5  1  0.95233000  0.46762200  0.37807700  1
  C  6  1  0.95197400  0.44051050  0.41278750  1
  C  9  1  0.99411300  0.42360900  0.48797400  1
  C  10  1  0.03515300  0.38392050  0.48087550  1
  C  11  1  0.03583700  0.35514550  0.51425150  1
  C  12  1  0.99541000  0.36843050  0.55586750  1
  C  13  1  0.95491500  0.40855200  0.56475500  1
  C  14  1  0.95414300  0.43506050  0.52976650  1
  C  21  1  0.32595600  0.90860150  0.46009750  1
  C  22  1  0.36558400  0.87519750  0.41904050  1
  C  23  1  0.36626400  0.81335650  0.39046450  1
  C  24  1  0.32561800  0.78550150  0.40400250  1
  C  25  1  0.28562900  0.81716050  0.44480850  1
  C  26  1  0.28530600  0.87897850  0.47192850  1
  C  29  1  0.32746400  0.97104200  0.48878400  1
  C  30  1  0.36849200  0.00363500  0.52848800  1
  C  31  1  0.36916500  0.06578650  0.55727450  1
  C  32  1  0.32874300  0.09411350  0.54397150  1
  C  33  1  0.28825800  0.06287350  0.50384150  1
  C  34  1  0.28750600  0.00137450  0.47731250  1
  C  41  1  0.65929400  0.45818500  0.00379800  1
  C  42  1  0.69895200  0.45053350  0.03717350  1
  C  43  1  0.69966600  0.48380150  0.09901550  1
  C  44  1  0.65904400  0.52522050  0.12689450  1
  C  45  1  0.61902100  0.53436150  0.09526750  1
  C  46  1  0.61865900  0.49964850  0.03344850  1
  C  49  1  0.66077700  0.42444450  0.94135650  1
  C  50  1  0.70180200  0.43154650  0.90875150  1
  C  51  1  0.70246100  0.39817750  0.84659750  1
  C  52  1  0.66202000  0.35657250  0.81828350  1
  C  53  1  0.62155000  0.34767400  0.84953300  1
  C  54  1  0.62080000  0.38265700  0.91103300  1
  C  61  1  0.91317900  0.45718300  0.33533900  1
  C  62  1  0.92739400  0.43366450  0.27605650  1
  C  63  1  0.89140500  0.43295450  0.23525050  1
  C  64  1  0.84044900  0.45689550  0.25278050  1
  C  65  1  0.82522900  0.47964300  0.31207100  1
  C  66  1  0.86166000  0.47916200  0.35252000  1
  C  68  1  0.80779600  0.46259900  0.21203800  1
  C  69  1  0.78810100  0.41329400  0.16128600  1
  C  70  1  0.75396600  0.42003850  0.12292250  1
  C  71  1  0.73890500  0.47622200  0.13372200  1
  C  72  1  0.76108600  0.52530400  0.18311800  1
  C  73  1  0.79473500  0.51870050  0.22167150  1
  C  83  1  0.24647400  0.78489100  0.45527900  1
  C  84  1  0.26068700  0.74914750  0.47882750  1
  C  85  1  0.22470400  0.70905000  0.47953300  1
  C  86  1  0.17376500  0.70259050  0.45553850  1
  C  87  1  0.15853700  0.73914850  0.43281050  1
  C  88  1  0.19494400  0.78011850  0.43333950  1
  C  90  1  0.14110800  0.65614450  0.44982650  1
  C  91  1  0.12141300  0.65469750  0.49913150  1
  C  92  1  0.08728000  0.60958800  0.49238600  1
  C  93  1  0.07223300  0.56419000  0.43620200  1
  C  94  1  0.09441200  0.56451300  0.38711900  1
  C  95  1  0.12805300  0.60967300  0.39372300  1
  C  105  1  0.57989200  0.57712250  0.12757150  1
  C  106  1  0.59407000  0.63640900  0.16338100  1
  C  107  1  0.55803600  0.67719100  0.20342100  1
  C  108  1  0.50710100  0.65960900  0.20982900  1
  C  109  1  0.49191600  0.60031050  0.17325650  1
  C  110  1  0.52839000  0.55989250  0.13236250  1
  C  112  1  0.47438900  0.70031500  0.25622900  1
  C  113  1  0.45468200  0.75105700  0.25766700  1
  C  114  1  0.42053300  0.78941250  0.30275750  1
  C  115  1  0.40547400  0.77862450  0.34814850  1
  C  116  1  0.42763400  0.72921500  0.34782500  1
  C  117  1  0.46129000  0.69066450  0.30267950  1
  C  127  1  0.91567100  0.41949000  0.60744900  1
  C  128  1  0.92992400  0.44289200  0.66670500  1
  C  129  1  0.89361500  0.44465300  0.70772100  1
  C  130  1  0.84236100  0.42171250  0.69032650  1
  C  131  1  0.82713200  0.39885600  0.63105600  1
  C  132  1  0.86380600  0.39864900  0.59043400  1
  C  134  1  0.80939900  0.41699200  0.73132700  1
  C  135  1  0.78691500  0.46679650  0.77930450  1
  C  136  1  0.75295200  0.46096050  0.81832350  1
  C  137  1  0.74127100  0.40535650  0.81125150  1
  C  138  1  0.76565600  0.35593700  0.76424800  1
  C  139  1  0.79894300  0.36154500  0.72480100  1
  C  149  1  0.24900100  0.09460750  0.49290150  1
  C  150  1  0.26324900  0.13045700  0.46948700  1
  C  151  1  0.22697100  0.16977650  0.46779650  1
  C  152  1  0.17570100  0.17531550  0.49069650  1
  C  153  1  0.16048500  0.13894100  0.51360300  1
  C  154  1  0.19714800  0.09852050  0.51380650  1
  C  156  1  0.14278100  0.22107100  0.49543300  1
  C  157  1  0.12030300  0.21925200  0.44563100  1
  C  158  1  0.08633600  0.26410550  0.45147550  1
  C  159  1  0.07466900  0.31264900  0.50708300  1
  C  160  1  0.09908400  0.31507100  0.55649300  1
  C  161  1  0.13234700  0.27000050  0.55088250  1
  C  171  1  0.58229300  0.30499100  0.81779900  1
  C  172  1  0.59656100  0.24573000  0.78198600  1
  C  173  1  0.56027500  0.20470750  0.74269750  1
  C  174  1  0.50901400  0.22207100  0.73712100  1
  C  175  1  0.49377800  0.28134650  0.77351250  1
  C  176  1  0.53041700  0.32197700  0.81397200  1
  C  178  1  0.47608900  0.18105500  0.69137100  1
  C  179  1  0.45362300  0.13306000  0.69317900  1
  C  180  1  0.41966000  0.09404750  0.64832350  1
  C  181  1  0.40798600  0.10112100  0.59978900  1
  C  182  1  0.43240400  0.14810200  0.59735700  1
  C  183  1  0.46565500  0.18757250  0.64243950  1
  H  7  1  0.06151900  0.50211250  0.49184950  1
  H  8  1  0.99101000  0.52987650  0.36392050  1
  H  15  1  0.99448900  0.34718350  0.57941450  1
  H  16  1  0.92484700  0.46427700  0.53599800  1
  H  19  1  0.88455300  0.42022050  0.42748850  1
  H  20  1  0.10490200  0.39421750  0.46225850  1
  H  27  1  0.39484000  0.89637450  0.41026150  1
  H  28  1  0.32425600  0.74072650  0.38252650  1
  H  35  1  0.32780200  0.13891100  0.56524700  1
  H  36  1  0.25819500  0.97838700  0.44811800  1
  H  39  1  0.21789900  0.91399300  0.49225900  1
  H  40  1  0.43823300  0.97471050  0.51819950  1
  H  47  1  0.72818700  0.42055600  0.01598000  1
  H  48  1  0.65770200  0.54851450  0.17167450  1
  H  55  1  0.66107600  0.33303500  0.77348700  1
  H  56  1  0.59151500  0.37642600  0.93402800  1
  H  59  1  0.55124200  0.48495550  0.99844550  1
  H  60  1  0.77155600  0.45015200  0.93764100  1
  H  67  1  0.85119900  0.49812700  0.39563200  1
  H  74  1  0.79669900  0.37206250  0.15321450  1
  H  75  1  0.73817600  0.38334800  0.08846500  1
  H  76  1  0.75221700  0.56680400  0.19220200  1
  H  77  1  0.96493200  0.41900950  0.26257350  1
  H  78  1  0.80922600  0.55538350  0.25729750  1
  H  79  1  0.90385400  0.41782250  0.19322650  1
  H  89  1  0.18449800  0.80420200  0.41429800  1
  H  96  1  0.13000500  0.68785700  0.54036300  1
  H  97  1  0.07148900  0.61182200  0.52907400  1
  H  98  1  0.08552100  0.53211350  0.34561550  1
  H  99  1  0.29824300  0.75027250  0.49341850  1
  H  100  1  0.14252500  0.60862800  0.35704000  1
  H  101  1  0.23716100  0.68210850  0.49460650  1
  H  111  1  0.51792100  0.51678050  0.10815850  1
  H  118  1  0.46340800  0.75921900  0.22459300  1
  H  119  1  0.40486400  0.82396650  0.30061250  1
  H  120  1  0.41873900  0.72011500  0.38022800  1
  H  121  1  0.63158700  0.64992550  0.16219550  1
  H  122  1  0.47576700  0.65503050  0.30373250  1
  H  123  1  0.57045400  0.71922200  0.23035600  1
  H  133  1  0.85330700  0.37982600  0.54733700  1
  H  140  1  0.79354600  0.50749350  0.78488150  1
  H  141  1  0.73508000  0.49765200  0.85061400  1
  H  142  1  0.75860800  0.31490100  0.75760000  1
  H  143  1  0.96762200  0.45691000  0.68008000  1
  H  144  1  0.81518200  0.32466100  0.69092700  1
  H  145  1  0.90596600  0.45977650  0.74978150  1
  H  155  1  0.18664700  0.07427550  0.53266050  1
  H  162  1  0.12685200  0.18409150  0.40494150  1
  H  163  1  0.06840300  0.25967650  0.41480050  1
  H  164  1  0.09203500  0.34945500  0.59752900  1
  H  165  1  0.30095500  0.12984100  0.45550100  1
  H  166  1  0.14860200  0.27301200  0.58776200  1
  H  167  1  0.23933800  0.19667500  0.45263200  1
  H  177  1  0.51992400  0.36508450  0.83815450  1
  H  184  1  0.46018000  0.12752700  0.72833600  1
  H  185  1  0.40173500  0.06179300  0.65274700  1
  H  186  1  0.42533100  0.15477600  0.56299200  1
  H  187  1  0.63427400  0.23237900  0.78259000  1
  H  188  1  0.48188700  0.22145400  0.63943900  1
  H  189  1  0.57264600  0.16265550  0.71576350  1
  N  80  1  0.77404600  0.50312600  0.33005000  1
  N  102  1  0.10736500  0.73361400  0.40928600  1
  N  124  1  0.44073700  0.58228850  0.17870050  1
  N  146  1  0.77581500  0.37573100  0.61335900  1
  N  168  1  0.10918000  0.14441200  0.53676500  1
  N  190  1  0.44247600  0.29902900  0.76802100  1
  O  17  1  0.91482600  0.39922500  0.40262500  1
  O  18  1  0.07348500  0.37257300  0.44040000  1
  O  37  1  0.24819000  0.91013650  0.51324050  1
  O  38  1  0.40681700  0.97451100  0.53984900  1
  O  57  1  0.58151800  0.50982400  0.00232600  1
  O  58  1  0.74014100  0.47201450  0.93786450  1
  O  81  1  0.77557300  0.55618150  0.36882350  1
  O  82  1  0.74860300  0.47564250  0.34942050  1
  O  103  1  0.10892000  0.71934850  0.35623650  1
  O  104  1  0.08188800  0.78044500  0.43676500  1
  O  125  1  0.44226000  0.54350250  0.19296850  1
  O  126  1  0.41532600  0.56291350  0.13182550  1
  O  147  1  0.77707500  0.32249900  0.57507300  1
  O  148  1  0.75067000  0.40293700  0.59347200  1
  O  169  1  0.11046300  0.15939000  0.59000500  1
  O  170  1  0.08401000  0.09733350  0.50960050  1
  O  191  1  0.44376300  0.33730500  0.75306300  1
  O  192  1  0.41728600  0.31892100  0.81508500  1
