# generated using pymatgen
data_FeH16(C12N5)2
_symmetry_space_group_name_H-M   'P 1'
_cell_length_a   15.91024000
_cell_length_b   18.67328905
_cell_length_c   18.73135000
_cell_angle_alpha   112.27169757
_cell_angle_beta   106.52853000
_cell_angle_gamma   106.33598671
_symmetry_Int_Tables_number   1
_chemical_formula_structural   FeH16(C12N5)2
_chemical_formula_sum   'Fe6 H96 C144 N60'
_cell_volume   4436.88261796
_cell_formula_units_Z   6
loop_
 _symmetry_equiv_pos_site_id
 _symmetry_equiv_pos_as_xyz
  1  'x, y, z'
loop_
 _atom_site_type_symbol
 _atom_site_label
 _atom_site_symmetry_multiplicity
 _atom_site_fract_x
 _atom_site_fract_y
 _atom_site_fract_z
 _atom_site_occupancy
  Fe  Fe0  1  0.49996000  0.49999000  1.00000000  1
  Fe  Fe1  1  0.00006000  0.50003000  0.50000000  1
  Fe  Fe2  1  0.50005000  0.00003000  0.50003000  1
  Fe  Fe3  1  0.49999000  0.50001000  0.50004000  1
  Fe  Fe4  1  0.00002000  0.50000000  0.99999000  1
  Fe  Fe5  1  0.99988000  0.99992000  0.49998000  1
  H  H6  1  0.28840000  0.19801000  0.93393000  1
  H  H7  1  0.24422000  0.24033000  0.05815000  1
  H  H8  1  0.30594000  0.39803000  0.16090000  1
  H  H9  1  0.40893000  0.50626000  0.13540000  1
  H  H10  1  0.67449000  0.91361000  0.30281000  1
  H  H11  1  0.65223000  0.00995000  0.42407000  1
  H  H12  1  0.42573000  0.80401000  0.38959000  1
  H  H13  1  0.43990000  0.69953000  0.26772000  1
  H  H14  1  0.08959000  0.73560000  0.80122000  1
  H  H15  1  0.00307000  0.81809000  0.75903000  1
  H  H16  1  0.90739000  0.76353000  0.60171000  1
  H  H17  1  0.90232000  0.62957000  0.49366000  1
  H  H18  1  0.76169000  0.38941000  0.08713000  1
  H  H19  1  0.64261000  0.41418000  0.99062000  1
  H  H20  1  0.62114000  0.58576000  0.19600000  1
  H  H21  1  0.74020000  0.56838000  0.30051000  1
  H  H22  1  0.35504000  0.06644000  0.26442000  1
  H  H23  1  0.18662000  0.94212000  0.18214000  1
  H  H24  1  0.14525000  0.83928000  0.23696000  1
  H  H25  1  0.27351000  0.86469000  0.37077000  1
  H  H26  1  0.37163000  0.69728000  0.61124000  1
  H  H27  1  0.22803000  0.57631000  0.58645000  1
  H  H28  1  0.03612000  0.61072000  0.41446000  1
  H  H29  1  0.17231000  0.73224000  0.43154000  1
  H  H30  1  0.71160000  0.80199000  0.06606000  1
  H  H31  1  0.75577000  0.75967000  0.94185000  1
  H  H32  1  0.69405000  0.60197000  0.83909000  1
  H  H33  1  0.59107000  0.49374000  0.86460000  1
  H  H34  1  0.32551000  0.08639000  0.69719000  1
  H  H35  1  0.34777000  0.99004000  0.57592000  1
  H  H36  1  0.57428000  0.19600000  0.61042000  1
  H  H37  1  0.56009000  0.30047000  0.73228000  1
  H  H38  1  0.91041000  0.26440000  0.19878000  1
  H  H39  1  0.99691000  0.18190000  0.24097000  1
  H  H40  1  0.09261000  0.23647000  0.39828000  1
  H  H41  1  0.09770000  0.37044000  0.50634000  1
  H  H42  1  0.23831000  0.61059000  0.91288000  1
  H  H43  1  0.35738000  0.58581000  0.00937000  1
  H  H44  1  0.37885000  0.41423000  0.80400000  1
  H  H45  1  0.25979000  0.43161000  0.69948000  1
  H  H46  1  0.64496000  0.93356000  0.73558000  1
  H  H47  1  0.81339000  0.05788000  0.81787000  1
  H  H48  1  0.85477000  0.16072000  0.76305000  1
  H  H49  1  0.72651000  0.13532000  0.62925000  1
  H  H50  1  0.62837000  0.30272000  0.38875000  1
  H  H51  1  0.77197000  0.42369000  0.41354000  1
  H  H52  1  0.96389000  0.38928000  0.58553000  1
  H  H53  1  0.82770000  0.26777000  0.56846000  1
  H  H54  1  0.40938000  0.19798000  0.26442000  1
  H  H55  1  0.49551000  0.24002000  0.18214000  1
  H  H56  1  0.59171000  0.39768000  0.23696000  1
  H  H57  1  0.59725000  0.50608000  0.37076000  1
  H  H58  1  0.73961000  0.91396000  0.61124000  1
  H  H59  1  0.85841000  0.01013000  0.58644000  1
  H  H60  1  0.87833000  0.80373000  0.41445000  1
  H  H61  1  0.75923000  0.69930000  0.43154000  1
  H  H62  1  0.14553000  0.73593000  0.93393000  1
  H  H63  1  0.31393000  0.81783000  0.05815000  1
  H  H64  1  0.35497000  0.76289000  0.16091000  1
  H  H65  1  0.22648000  0.62915000  0.13540000  1
  H  H66  1  0.12831000  0.38920000  0.30281000  1
  H  H67  1  0.27184000  0.41412000  0.42408000  1
  H  H68  1  0.46385000  0.58558000  0.38959000  1
  H  H69  1  0.32782000  0.56819000  0.26772000  1
  H  H70  1  0.21163000  0.06562000  0.80122000  1
  H  H71  1  0.25595000  0.94093000  0.75903000  1
  H  H72  1  0.19432000  0.83818000  0.60171000  1
  H  H73  1  0.09134000  0.86409000  0.49365000  1
  H  H74  1  0.82543000  0.69771000  0.08712000  1
  H  H75  1  0.84801000  0.57644000  0.99062000  1
  H  H76  1  0.07486000  0.61024000  0.19600000  1
  H  H77  1  0.06030000  0.73213000  0.30052000  1
  H  H78  1  0.59061000  0.80202000  0.73558000  1
  H  H79  1  0.50448000  0.75999000  0.81787000  1
  H  H80  1  0.40829000  0.60233000  0.76305000  1
  H  H81  1  0.40274000  0.49393000  0.62925000  1
  H  H82  1  0.26039000  0.08604000  0.38876000  1
  H  H83  1  0.14158000  0.98986000  0.41355000  1
  H  H84  1  0.12165000  0.19625000  0.58553000  1
  H  H85  1  0.24076000  0.30069000  0.56846000  1
  H  H86  1  0.85447000  0.26408000  0.06606000  1
  H  H87  1  0.68608000  0.18219000  0.94185000  1
  H  H88  1  0.64504000  0.23713000  0.83909000  1
  H  H89  1  0.77354000  0.37087000  0.86460000  1
  H  H90  1  0.87168000  0.61080000  0.69718000  1
  H  H91  1  0.72814000  0.58588000  0.57592000  1
  H  H92  1  0.53615000  0.41442000  0.61043000  1
  H  H93  1  0.67219000  0.43181000  0.73228000  1
  H  H94  1  0.78837000  0.93438000  0.19878000  1
  H  H95  1  0.74405000  0.05906000  0.24096000  1
  H  H96  1  0.80568000  0.16181000  0.39828000  1
  H  H97  1  0.90866000  0.13590000  0.50634000  1
  H  H98  1  0.17456000  0.30228000  0.91287000  1
  H  H99  1  0.15199000  0.42355000  0.00936000  1
  H  H100  1  0.92515000  0.38977000  0.80400000  1
  H  H101  1  0.93969000  0.26786000  0.69947000  1
  C  C102  1  0.59403000  0.68832000  0.09481000  1
  C  C103  1  0.43756000  0.26034000  0.80062000  1
  C  C104  1  0.62639000  0.67070000  0.02759000  1
  C  C105  1  0.31452000  0.26499000  0.98138000  1
  C  C106  1  0.28984000  0.28904000  0.04963000  1
  C  C107  1  0.32373000  0.37664000  0.10686000  1
  C  C108  1  0.38107000  0.43718000  0.09337000  1
  C  C109  1  0.44270000  0.20158000  0.72606000  1
  C  C110  1  0.38125000  0.11277000  0.67964000  1
  C  C111  1  0.39345000  0.05921000  0.61212000  1
  C  C112  1  0.48025000  0.82583000  0.36880000  1
  C  C113  1  0.48805000  0.76797000  0.30103000  1
  C  C114  1  0.90633000  0.40688000  0.31219000  1
  C  C115  1  0.17683000  0.53982000  0.73926000  1
  C  C116  1  0.95632000  0.35701000  0.32977000  1
  C  C117  1  0.04880000  0.71633000  0.73443000  1
  C  C118  1  0.00009000  0.76081000  0.71044000  1
  C  C119  1  0.94652000  0.73063000  0.62302000  1
  C  C120  1  0.94342000  0.65651000  0.56259000  1
  C  C121  1  0.24088000  0.52415000  0.79810000  1
  C  C122  1  0.26800000  0.56666000  0.88673000  1
  C  C123  1  0.33397000  0.55279000  0.94031000  1
  C  C124  1  0.65411000  0.54316000  0.17430000  1
  C  C125  1  0.71997000  0.53334000  0.23219000  1
  C  C126  1  0.49912000  0.90487000  0.59310000  1
  C  C127  1  0.63702000  0.19960000  0.45994000  1
  C  C128  1  0.59864000  0.97214000  0.64283000  1
  C  C129  1  0.33352000  0.01892000  0.28384000  1
  C  C130  1  0.24059000  0.95062000  0.23944000  1
  C  C131  1  0.21711000  0.89335000  0.26974000  1
  C  C132  1  0.28777000  0.90679000  0.34381000  1
  C  C133  1  0.71667000  0.27398000  0.47551000  1
  C  C134  1  0.70164000  0.32022000  0.43281000  1
  C  C135  1  0.78142000  0.38757000  0.44667000  1
  C  C136  1  0.11141000  0.63143000  0.45712000  1
  C  C137  1  0.18704000  0.69901000  0.46686000  1
  C  C138  1  0.40596000  0.31167000  0.90518000  1
  C  C139  1  0.56243000  0.73966000  0.19938000  1
  C  C140  1  0.37360000  0.32929000  0.97240000  1
  C  C141  1  0.68548000  0.73501000  0.01862000  1
  C  C142  1  0.71016000  0.71096000  0.95037000  1
  C  C143  1  0.67627000  0.62336000  0.89314000  1
  C  C144  1  0.61892000  0.56281000  0.90662000  1
  C  C145  1  0.55729000  0.79841000  0.27392000  1
  C  C146  1  0.61875000  0.88723000  0.32036000  1
  C  C147  1  0.60655000  0.94078000  0.38787000  1
  C  C148  1  0.51975000  0.17417000  0.63120000  1
  C  C149  1  0.51194000  0.23203000  0.69897000  1
  C  C150  1  0.09367000  0.59312000  0.68780000  1
  C  C151  1  0.82317000  0.46018000  0.26074000  1
  C  C152  1  0.04368000  0.64299000  0.67023000  1
  C  C153  1  0.95119000  0.28367000  0.26557000  1
  C  C154  1  0.99990000  0.23918000  0.28955000  1
  C  C155  1  0.05347000  0.26937000  0.37698000  1
  C  C156  1  0.05659000  0.34349000  0.43741000  1
  C  C157  1  0.75912000  0.47585000  0.20190000  1
  C  C158  1  0.73199000  0.43333000  0.11327000  1
  C  C159  1  0.66602000  0.44720000  0.05968000  1
  C  C160  1  0.34588000  0.45683000  0.82569000  1
  C  C161  1  0.28003000  0.46666000  0.76781000  1
  C  C162  1  0.50090000  0.09514000  0.40690000  1
  C  C163  1  0.36299000  0.80040000  0.54005000  1
  C  C164  1  0.40137000  0.02786000  0.35717000  1
  C  C165  1  0.66650000  0.98109000  0.71617000  1
  C  C166  1  0.75942000  0.04938000  0.76057000  1
  C  C167  1  0.78290000  0.10665000  0.73027000  1
  C  C168  1  0.71225000  0.09322000  0.65620000  1
  C  C169  1  0.28333000  0.72602000  0.52448000  1
  C  C170  1  0.29837000  0.67979000  0.56719000  1
  C  C171  1  0.21859000  0.61243000  0.55332000  1
  C  C172  1  0.88859000  0.36857000  0.54287000  1
  C  C173  1  0.81298000  0.30100000  0.53314000  1
  C  C174  1  0.59399000  0.68824000  0.59311000  1
  C  C175  1  0.32292000  0.26034000  0.45995000  1
  C  C176  1  0.54420000  0.67070000  0.64284000  1
  C  C177  1  0.45032000  0.26492000  0.28383000  1
  C  C178  1  0.49884000  0.28882000  0.23944000  1
  C  C179  1  0.55263000  0.37639000  0.26973000  1
  C  C180  1  0.55603000  0.43702000  0.34380000  1
  C  C181  1  0.25884000  0.20153000  0.47551000  1
  C  C182  1  0.23117000  0.11259000  0.43281000  1
  C  C183  1  0.16525000  0.05910000  0.44667000  1
  C  C184  1  0.84571000  0.82569000  0.45712000  1
  C  C185  1  0.77982000  0.76785000  0.46686000  1
  C  C186  1  0.00079000  0.40650000  0.09482000  1
  C  C187  1  0.86306000  0.54028000  0.80062000  1
  C  C188  1  0.90120000  0.35689000  0.02758000  1
  C  C189  1  0.16687000  0.71640000  0.98138000  1
  C  C190  1  0.25980000  0.76060000  0.04963000  1
  C  C191  1  0.28314000  0.73023000  0.10686000  1
  C  C192  1  0.21231000  0.65620000  0.09337000  1
  C  C193  1  0.78337000  0.52449000  0.72607000  1
  C  C194  1  0.79839000  0.56687000  0.67964000  1
  C  C195  1  0.71867000  0.55291000  0.61213000  1
  C  C196  1  0.38855000  0.54297000  0.36880000  1
  C  C197  1  0.31298000  0.53306000  0.30103000  1
  C  C198  1  0.90586000  0.90531000  0.31219000  1
  C  C199  1  0.06243000  0.19943000  0.73925000  1
  C  C200  1  0.87345000  0.97276000  0.32977000  1
  C  C201  1  0.18562000  0.01809000  0.73442000  1
  C  C202  1  0.21035000  0.94963000  0.71044000  1
  C  C203  1  0.17649000  0.89239000  0.62302000  1
  C  C204  1  0.11917000  0.90608000  0.56259000  1
  C  C205  1  0.05723000  0.27395000  0.79810000  1
  C  C206  1  0.11872000  0.32006000  0.88672000  1
  C  C207  1  0.10635000  0.38752000  0.94031000  1
  C  C208  1  0.02019000  0.63114000  0.17430000  1
  C  C209  1  0.01222000  0.69885000  0.23219000  1
  C  C210  1  0.40601000  0.31177000  0.40691000  1
  C  C211  1  0.67707000  0.73966000  0.54006000  1
  C  C212  1  0.45580000  0.32931000  0.35717000  1
  C  C213  1  0.54967000  0.73509000  0.71617000  1
  C  C214  1  0.50115000  0.71119000  0.76057000  1
  C  C215  1  0.44737000  0.62362000  0.73027000  1
  C  C216  1  0.44396000  0.56299000  0.65621000  1
  C  C217  1  0.74116000  0.79847000  0.52449000  1
  C  C218  1  0.76883000  0.88741000  0.56720000  1
  C  C219  1  0.83473000  0.94089000  0.55332000  1
  C  C220  1  0.15427000  0.17429000  0.54286000  1
  C  C221  1  0.22016000  0.23213000  0.53313000  1
  C  C222  1  0.99922000  0.59351000  0.90518000  1
  C  C223  1  0.13695000  0.45972000  0.19937000  1
  C  C224  1  0.09881000  0.64312000  0.97241000  1
  C  C225  1  0.83314000  0.28362000  0.01862000  1
  C  C226  1  0.74021000  0.23942000  0.95037000  1
  C  C227  1  0.71688000  0.26979000  0.89314000  1
  C  C228  1  0.78772000  0.34382000  0.90662000  1
  C  C229  1  0.21663000  0.47551000  0.27392000  1
  C  C230  1  0.20161000  0.43313000  0.32036000  1
  C  C231  1  0.28132000  0.44709000  0.38787000  1
  C  C232  1  0.61145000  0.45703000  0.63121000  1
  C  C233  1  0.68703000  0.46694000  0.69897000  1
  C  C234  1  0.09413000  0.09468000  0.68780000  1
  C  C235  1  0.93757000  0.80056000  0.26074000  1
  C  C236  1  0.12654000  0.02723000  0.67022000  1
  C  C237  1  0.81438000  0.98190000  0.26557000  1
  C  C238  1  0.78965000  0.05037000  0.28956000  1
  C  C239  1  0.82350000  0.10760000  0.37697000  1
  C  C240  1  0.88082000  0.09391000  0.43740000  1
  C  C241  1  0.94278000  0.72605000  0.20190000  1
  C  C242  1  0.88128000  0.67993000  0.11326000  1
  C  C243  1  0.89367000  0.61248000  0.05968000  1
  C  C244  1  0.97982000  0.36886000  0.82569000  1
  C  C245  1  0.98778000  0.30115000  0.76781000  1
  N  N246  1  0.46769000  0.37953000  0.90537000  1
  N  N247  1  0.48866000  0.34716000  0.83841000  1
  N  N248  1  0.61472000  0.76458000  0.15968000  1
  N  N249  1  0.59390000  0.58526000  0.97213000  1
  N  N250  1  0.46269000  0.08820000  0.58830000  1
  N  N251  1  0.08766000  0.52530000  0.62019000  1
  N  N252  1  0.14121000  0.49067000  0.65266000  1
  N  N253  1  0.85074000  0.39545000  0.23602000  1
  N  N254  1  0.00914000  0.38681000  0.41501000  1
  N  N255  1  0.37457000  0.50001000  0.91150000  1
  N  N256  1  0.56239000  0.09512000  0.47472000  1
  N  N257  1  0.65034000  0.16201000  0.50917000  1
  N  N258  1  0.45495000  0.84015000  0.60469000  1
  N  N259  1  0.62173000  0.02768000  0.61298000  1
  N  N260  1  0.87447000  0.41136000  0.49958000  1
  N  N261  1  0.53231000  0.62047000  0.09463000  1
  N  N262  1  0.51134000  0.65284000  0.16159000  1
  N  N263  1  0.38526000  0.23541000  0.84031000  1
  N  N264  1  0.40608000  0.41473000  0.02786000  1
  N  N265  1  0.53732000  0.91181000  0.41171000  1
  N  N266  1  0.91236000  0.47471000  0.37981000  1
  N  N267  1  0.85880000  0.50934000  0.34735000  1
  N  N268  1  0.14927000  0.60455000  0.76397000  1
  N  N269  1  0.99087000  0.61320000  0.58499000  1
  N  N270  1  0.62543000  0.49999000  0.08850000  1
  N  N271  1  0.43763000  0.90490000  0.52529000  1
  N  N272  1  0.34967000  0.83800000  0.49083000  1
  N  N273  1  0.54506000  0.15985000  0.39531000  1
  N  N274  1  0.37829000  0.97233000  0.38703000  1
  N  N275  1  0.12555000  0.58865000  0.50041000  1
  N  N276  1  0.41233000  0.37960000  0.47472000  1
  N  N277  1  0.35883000  0.34716000  0.50918000  1
  N  N278  1  0.64974000  0.76454000  0.60469000  1
  N  N279  1  0.49125000  0.58530000  0.61298000  1
  N  N280  1  0.12512000  0.08822000  0.49958000  1
  N  N281  1  0.93769000  0.52585000  0.90537000  1
  N  N282  1  0.84976000  0.49125000  0.83840000  1
  N  N283  1  0.04496000  0.39510000  0.15968000  1
  N  N284  1  0.87823000  0.38687000  0.97212000  1
  N  N285  1  0.62562000  0.50011000  0.58831000  1
  N  N286  1  0.03253000  0.09488000  0.62018000  1
  N  N287  1  0.01144000  0.16198000  0.65265000  1
  N  N288  1  0.88528000  0.84057000  0.23602000  1
  N  N289  1  0.90586000  0.02819000  0.41499000  1
  N  N290  1  0.03694000  0.41149000  0.91149000  1
  N  N291  1  0.58766000  0.62040000  0.52529000  1
  N  N292  1  0.64117000  0.65284000  0.49083000  1
  N  N293  1  0.35025000  0.23546000  0.39531000  1
  N  N294  1  0.50875000  0.41471000  0.38703000  1
  N  N295  1  0.87486000  0.91176000  0.50041000  1
  N  N296  1  0.06233000  0.47416000  0.09463000  1
  N  N297  1  0.15026000  0.50875000  0.16159000  1
  N  N298  1  0.95504000  0.60490000  0.84031000  1
  N  N299  1  0.12179000  0.61314000  0.02787000  1
  N  N300  1  0.37439000  0.49990000  0.41171000  1
  N  N301  1  0.96745000  0.90510000  0.37981000  1
  N  N302  1  0.98854000  0.83800000  0.34734000  1
  N  N303  1  0.11471000  0.15942000  0.76397000  1
  N  N304  1  0.09411000  0.97179000  0.58499000  1
  N  N305  1  0.96308000  0.58851000  0.08849000  1
