# generated using pymatgen
data_ZnH13(C3O)5
_symmetry_space_group_name_H-M   'P 1'
_cell_length_a   16.85071000
_cell_length_b   16.85679000
_cell_length_c   16.86410000
_cell_angle_alpha   67.11955000
_cell_angle_beta   67.17305000
_cell_angle_gamma   67.10258000
_symmetry_Int_Tables_number   1
_chemical_formula_structural   ZnH13(C3O)5
_chemical_formula_sum   'Zn6 H78 C90 O30'
_cell_volume   3904.29940122
_cell_formula_units_Z   6
loop_
 _symmetry_equiv_pos_site_id
 _symmetry_equiv_pos_as_xyz
  1  'x, y, z'
loop_
 _atom_site_type_symbol
 _atom_site_label
 _atom_site_symmetry_multiplicity
 _atom_site_fract_x
 _atom_site_fract_y
 _atom_site_fract_z
 _atom_site_occupancy
  Zn  Zn1  1  0.20659000  0.61939000  0.16924000  1.0
  Zn  Zn2  1  0.21519000  0.76943000  0.17743000  1.0
  Zn  Zn3  1  0.61864000  0.17463000  0.20244000  1.0
  Zn  Zn4  1  0.76901000  0.18240000  0.21057000  1.0
  Zn  Zn5  1  0.17072000  0.20654000  0.61562000  1.0
  Zn  Zn6  1  0.17857000  0.21487000  0.76551000  1.0
  H  H1  1  0.95391000  0.90116000  0.21938000  1.0
  H  H2  1  0.69312000  0.91042000  0.22667000  1.0
  H  H3  1  0.90785000  0.66487000  0.22471000  1.0
  H  H4  1  0.61214000  0.75490000  0.09235000  1.0
  H  H5  1  0.75116000  0.62984000  0.34157000  1.0
  H  H6  1  0.77830000  0.44309000  0.30167000  1.0
  H  H7  1  0.82295000  0.39123000  0.44328000  1.0
  H  H8  1  0.82126000  0.50225000  0.38191000  1.0
  H  H9  1  0.66717000  0.55517000  0.48806000  1.0
  H  H10  1  0.75170000  0.49287000  0.54462000  1.0
  H  H11  1  0.67378000  0.44230000  0.55144000  1.0
  H  H12  1  0.63261000  0.38642000  0.47340000  1.0
  H  H13  1  0.73615000  0.31197000  0.43076000  1.0
  H  H14  1  0.65611000  0.36950000  0.36793000  1.0
  H  H15  1  0.59350000  0.90981000  0.04533000  1.0
  H  H16  1  0.64724000  0.04275000  0.94093000  1.0
  H  H17  1  0.63886000  0.02679000  0.05345000  1.0
  H  H18  1  0.78046000  0.06292000  0.96346000  1.0
  H  H19  1  0.81372000  0.98374000  0.90482000  1.0
  H  H20  1  0.80881000  0.94728000  0.02032000  1.0
  H  H21  1  0.78635000  0.84903000  0.92958000  1.0
  H  H22  1  0.69135000  0.90393000  0.88695000  1.0
  H  H23  1  0.70188000  0.79534000  0.96437000  1.0
  H  H24  1  0.47434000  0.69465000  0.17104000  1.0
  H  H25  1  0.48563000  0.43919000  0.16251000  1.0
  H  H26  1  0.70651000  0.46874000  0.20607000  1.0
  H  H27  1  0.89805000  0.22378000  0.94903000  1.0
  H  H28  1  0.90509000  0.22743000  0.69053000  1.0
  H  H29  1  0.66107000  0.22653000  0.90667000  1.0
  H  H30  1  0.75027000  0.09291000  0.61124000  1.0
  H  H31  1  0.62650000  0.34392000  0.74769000  1.0
  H  H32  1  0.43905000  0.30377000  0.77521000  1.0
  H  H33  1  0.38850000  0.44620000  0.81886000  1.0
  H  H34  1  0.49892000  0.38273000  0.81854000  1.0
  H  H35  1  0.55488000  0.48742000  0.66504000  1.0
  H  H36  1  0.49209000  0.54518000  0.74836000  1.0
  H  H37  1  0.44285000  0.55248000  0.66910000  1.0
  H  H38  1  0.38208000  0.47663000  0.63024000  1.0
  H  H39  1  0.30847000  0.43278000  0.73359000  1.0
  H  H40  1  0.36539000  0.37130000  0.65274000  1.0
  H  H41  1  0.90392000  0.04961000  0.59345000  1.0
  H  H42  1  0.03875000  0.94442000  0.64501000  1.0
  H  H43  1  0.02106000  0.05680000  0.63850000  1.0
  H  H44  1  0.05991000  0.96347000  0.77895000  1.0
  H  H45  1  0.97949000  0.90625000  0.81225000  1.0
  H  H46  1  0.94462000  0.02148000  0.80793000  1.0
  H  H47  1  0.84712000  0.92622000  0.78287000  1.0
  H  H48  1  0.90381000  0.88723000  0.68595000  1.0
  H  H49  1  0.79404000  0.96259000  0.69746000  1.0
  H  H50  1  0.69121000  0.17523000  0.47106000  1.0
  H  H51  1  0.43567000  0.16770000  0.48053000  1.0
  H  H52  1  0.46541000  0.20717000  0.70332000  1.0
  H  H53  1  0.22171000  0.95343000  0.89581000  1.0
  H  H54  1  0.22654000  0.69343000  0.90497000  1.0
  H  H55  1  0.22405000  0.90853000  0.66040000  1.0
  H  H56  1  0.09130000  0.61473000  0.74787000  1.0
  H  H57  1  0.34346000  0.74921000  0.62689000  1.0
  H  H58  1  0.30472000  0.77582000  0.43851000  1.0
  H  H59  1  0.44602000  0.82055000  0.38802000  1.0
  H  H60  1  0.38321000  0.81991000  0.49858000  1.0
  H  H61  1  0.48940000  0.66662000  0.55354000  1.0
  H  H62  1  0.54577000  0.75110000  0.49122000  1.0
  H  H63  1  0.55403000  0.67209000  0.44126000  1.0
  H  H64  1  0.47765000  0.62947000  0.38422000  1.0
  H  H65  1  0.43496000  0.73226000  0.30920000  1.0
  H  H66  1  0.37259000  0.65206000  0.36678000  1.0
  H  H67  1  0.04825000  0.59424000  0.90213000  1.0
  H  H68  1  0.94446000  0.64375000  0.03801000  1.0
  H  H69  1  0.05705000  0.63661000  0.02020000  1.0
  H  H70  1  0.96533000  0.77556000  0.06140000  1.0
  H  H71  1  0.90589000  0.81110000  0.98232000  1.0
  H  H72  1  0.02119000  0.80696000  0.94589000  1.0
  H  H73  1  0.92543000  0.78478000  0.84804000  1.0
  H  H74  1  0.88650000  0.68751000  0.90258000  1.0
  H  H75  1  0.96130000  0.70152000  0.79259000  1.0
  H  H76  1  0.17191000  0.47471000  0.69007000  1.0
  H  H77  1  0.16568000  0.48454000  0.43421000  1.0
  H  H78  1  0.20869000  0.70553000  0.46352000  1.0
  C  C1  1  0.03866000  0.73295000  0.20790000  1.0
  C  C2  1  0.94019000  0.77734000  0.22311000  1.0
  C  C3  1  0.90844000  0.86751000  0.22351000  1.0
  C  C4  1  0.81899000  0.91468000  0.22582000  1.0
  C  C5  1  0.76165000  0.87174000  0.22737000  1.0
  C  C6  1  0.79214000  0.78146000  0.22784000  1.0
  C  C7  1  0.88177000  0.73427000  0.22702000  1.0
  C  C8  1  0.78354000  0.01213000  0.22120000  1.0
  C  C9  1  0.73381000  0.73715000  0.22343000  1.0
  C  C10  1  0.69045000  0.77507000  0.15452000  1.0
  C  C11  1  0.64269000  0.72780000  0.14694000  1.0
  C  C12  1  0.63736000  0.64258000  0.20618000  1.0
  C  C13  1  0.67550000  0.60763000  0.27838000  1.0
  C  C14  1  0.72325000  0.65532000  0.28536000  1.0
  C  C15  1  0.72929000  0.45197000  0.36581000  1.0
  C  C16  1  0.77737000  0.45833000  0.42329000  1.0
  C  C17  1  0.71408000  0.48885000  0.50647000  1.0
  C  C18  1  0.68571000  0.37552000  0.41214000  1.0
  C  C19  1  0.66544000  0.90530000  0.02245000  1.0
  C  C20  1  0.67738000  0.99884000  0.99610000  1.0
  C  C21  1  0.77568000  0.99774000  0.96966000  1.0
  C  C22  1  0.71385000  0.86029000  0.94684000  1.0
  C  C23  1  0.64825000  0.34773000  0.19117000  1.0
  C  C24  1  0.37864000  0.61046000  0.15361000  1.0
  C  C25  1  0.59521000  0.58887000  0.19151000  1.0
  C  C26  1  0.51154000  0.62499000  0.17390000  1.0
  C  C27  1  0.47178000  0.57134000  0.16350000  1.0
  C  C28  1  0.51686000  0.48112000  0.16884000  1.0
  C  C29  1  0.60206000  0.44476000  0.18365000  1.0
  C  C30  1  0.64054000  0.49831000  0.19473000  1.0
  C  C31  1  0.73032000  0.21248000  0.03503000  1.0
  C  C32  1  0.77399000  0.22676000  0.93681000  1.0
  C  C33  1  0.86413000  0.22715000  0.90419000  1.0
  C  C34  1  0.91067000  0.22868000  0.81492000  1.0
  C  C35  1  0.86705000  0.22896000  0.75888000  1.0
  C  C36  1  0.77674000  0.22934000  0.79032000  1.0
  C  C37  1  0.73025000  0.22947000  0.87963000  1.0
  C  C38  1  0.00798000  0.22475000  0.77891000  1.0
  C  C39  1  0.73214000  0.22429000  0.73269000  1.0
  C  C40  1  0.76965000  0.15432000  0.69089000  1.0
  C  C41  1  0.72329000  0.14751000  0.64175000  1.0
  C  C42  1  0.63877000  0.20775000  0.63503000  1.0
  C  C43  1  0.60368000  0.28017000  0.67282000  1.0
  C  C44  1  0.65119000  0.28720000  0.72071000  1.0
  C  C45  1  0.44841000  0.36786000  0.72619000  1.0
  C  C46  1  0.45565000  0.42492000  0.77407000  1.0
  C  C47  1  0.48814000  0.50706000  0.71071000  1.0
  C  C48  1  0.37178000  0.41485000  0.68281000  1.0
  C  C49  1  0.90064000  0.02347000  0.66514000  1.0
  C  C50  1  0.99428000  0.99857000  0.67634000  1.0
  C  C51  1  0.99423000  0.97085000  0.77441000  1.0
  C  C52  1  0.85853000  0.94568000  0.71021000  1.0
  C  C53  1  0.34423000  0.19494000  0.64385000  1.0
  C  C54  1  0.60717000  0.15909000  0.37389000  1.0
  C  C55  1  0.58540000  0.19392000  0.59194000  1.0
  C  C56  1  0.62161000  0.17752000  0.50785000  1.0
  C  C57  1  0.56804000  0.16783000  0.46742000  1.0
  C  C58  1  0.47774000  0.17318000  0.51221000  1.0
  C  C59  1  0.44138000  0.18692000  0.59779000  1.0
  C  C60  1  0.49492000  0.19702000  0.63694000  1.0
  C  C61  1  0.20896000  0.03868000  0.72853000  1.0
  C  C62  1  0.22381000  0.94031000  0.77263000  1.0
  C  C63  1  0.22499000  0.90813000  0.86254000  1.0
  C  C64  1  0.22714000  0.81876000  0.90982000  1.0
  C  C65  1  0.22768000  0.76197000  0.86688000  1.0
  C  C66  1  0.22773000  0.79279000  0.77674000  1.0
  C  C67  1  0.22695000  0.88233000  0.72958000  1.0
  C  C68  1  0.22361000  0.78301000  0.00708000  1.0
  C  C69  1  0.22340000  0.73449000  0.73229000  1.0
  C  C70  1  0.15354000  0.69255000  0.76909000  1.0
  C  C71  1  0.14651000  0.64427000  0.72198000  1.0
  C  C72  1  0.20713000  0.63750000  0.63773000  1.0
  C  C73  1  0.27993000  0.67462000  0.60371000  1.0
  C  C74  1  0.28653000  0.72248000  0.65150000  1.0
  C  C75  1  0.36875000  0.72692000  0.44854000  1.0
  C  C76  1  0.42543000  0.77559000  0.45523000  1.0
  C  C77  1  0.50825000  0.71295000  0.48705000  1.0
  C  C78  1  0.41621000  0.68226000  0.37293000  1.0
  C  C79  1  0.02278000  0.66575000  0.89972000  1.0
  C  C80  1  0.99854000  0.67524000  0.99387000  1.0
  C  C81  1  0.97114000  0.77275000  0.99557000  1.0
  C  C82  1  0.94474000  0.71235000  0.85786000  1.0
  C  C83  1  0.19532000  0.64728000  0.34264000  1.0
  C  C84  1  0.15513000  0.37838000  0.60599000  1.0
  C  C85  1  0.19314000  0.59490000  0.58404000  1.0
  C  C86  1  0.17534000  0.51140000  0.62027000  1.0
  C  C87  1  0.16537000  0.47130000  0.56667000  1.0
  C  C88  1  0.17171000  0.51583000  0.47622000  1.0
  C  C89  1  0.18703000  0.60074000  0.43972000  1.0
  C  C90  1  0.19758000  0.63952000  0.49327000  1.0
  O  O1  1  0.08428000  0.77902000  0.20651000  1.0
  O  O2  1  0.07172000  0.65498000  0.19429000  1.0
  O  O3  1  0.83528000  0.05273000  0.21934000  1.0
  O  O4  1  0.70219000  0.04899000  0.21815000  1.0
  O  O5  1  0.65583000  0.53243000  0.34477000  1.0
  O  O6  1  0.70229000  0.85624000  0.09877000  1.0
  O  O7  1  0.72779000  0.31384000  0.20152000  1.0
  O  O8  1  0.60311000  0.30411000  0.18773000  1.0
  O  O9  1  0.33874000  0.55891000  0.15389000  1.0
  O  O10  1  0.34393000  0.69418000  0.14741000  1.0
  O  O11  1  0.77754000  0.20953000  0.08031000  1.0
  O  O12  1  0.65149000  0.20073000  0.06845000  1.0
  O  O13  1  0.04871000  0.22286000  0.83054000  1.0
  O  O14  1  0.04460000  0.22225000  0.69753000  1.0
  O  O15  1  0.52861000  0.34656000  0.65287000  1.0
  O  O16  1  0.84895000  0.09646000  0.70632000  1.0
  O  O17  1  0.31037000  0.20632000  0.72281000  1.0
  O  O18  1  0.30053000  0.19116000  0.59893000  1.0
  O  O19  1  0.55588000  0.15887000  0.33388000  1.0
  O  O20  1  0.69050000  0.15455000  0.33877000  1.0
  O  O21  1  0.20849000  0.08405000  0.77432000  1.0
  O  O22  1  0.19470000  0.07202000  0.65083000  1.0
  O  O23  1  0.22252000  0.83432000  0.04760000  1.0
  O  O24  1  0.22093000  0.70155000  0.04358000  1.0
  O  O25  1  0.34728000  0.65412000  0.52942000  1.0
  O  O26  1  0.09602000  0.70664000  0.84883000  1.0
  O  O27  1  0.20623000  0.72647000  0.30946000  1.0
  O  O28  1  0.19208000  0.60284000  0.29825000  1.0
  O  O29  1  0.15466000  0.33855000  0.55477000  1.0
  O  O30  1  0.14976000  0.34372000  0.68948000  1.0
