# generated using pymatgen
data_H13C23(N2O)2
_symmetry_space_group_name_H-M   'P 1'
_cell_length_a   25.78470000
_cell_length_b   66.46600000
_cell_length_c   66.46600000
_cell_angle_alpha   90.00000000
_cell_angle_beta   90.00000000
_cell_angle_gamma   90.00000000
_symmetry_Int_Tables_number   1
_chemical_formula_structural   H13C23(N2O)2
_chemical_formula_sum   'H156 C276 N48 O24'
_cell_volume   113909.82096871
_cell_formula_units_Z   12
loop_
 _symmetry_equiv_pos_site_id
 _symmetry_equiv_pos_as_xyz
  1  'x, y, z'
loop_
 _atom_site_type_symbol
 _atom_site_label
 _atom_site_symmetry_multiplicity
 _atom_site_fract_x
 _atom_site_fract_y
 _atom_site_fract_z
 _atom_site_occupancy
  H  25  1  0.14452700  0.28733800  0.30573500  1
  H  26  1  0.06373900  0.30040600  0.29428200  1
  H  27  1  0.22410100  0.33133100  0.27183100  1
  H  28  1  0.14347200  0.34447600  0.26026000  1
  H  29  1  0.07904000  0.37286500  0.22958100  1
  H  30  1  0.07612800  0.39838100  0.20461800  1
  H  31  1  0.91531100  0.36906700  0.22836200  1
  H  32  1  0.91259600  0.39470600  0.20365600  1
  H  33  1  0.85670300  0.33791300  0.25587700  1
  H  34  1  0.77732200  0.32449100  0.26831600  1
  H  35  1  0.85968900  0.29163500  0.31234600  1
  H  36  1  0.93937200  0.30497300  0.29997000  1
  H  67  1  0.14252700  0.73254200  0.72227200  1
  H  68  1  0.06200000  0.72287200  0.73695900  1
  H  69  1  0.22301000  0.69909200  0.76636200  1
  H  70  1  0.14268500  0.68933500  0.78114600  1
  H  71  1  0.07771200  0.66108400  0.81159700  1
  H  72  1  0.07445500  0.63637200  0.83732600  1
  H  73  1  0.91542700  0.66911400  0.81641700  1
  H  74  1  0.91233600  0.64423100  0.84194200  1
  H  75  1  0.85705900  0.69866300  0.78705600  1
  H  76  1  0.77791500  0.71255400  0.77494300  1
  H  77  1  0.85915400  0.74175600  0.72811100  1
  H  78  1  0.93863900  0.72794000  0.74015200  1
  H  109  1  0.64461500  0.73302800  0.29136300  1
  H  110  1  0.56362200  0.74453300  0.30418900  1
  H  111  1  0.72348000  0.76703600  0.33546800  1
  H  112  1  0.64263400  0.77866300  0.34836900  1
  H  113  1  0.57755200  0.80882000  0.37704100  1
  H  114  1  0.57425200  0.83381300  0.40252000  1
  H  115  1  0.41441700  0.81192500  0.37103200  1
  H  116  1  0.41131000  0.83671300  0.39664100  1
  H  117  1  0.35599000  0.78299200  0.34115200  1
  H  118  1  0.27677200  0.77030100  0.32783600  1
  H  119  1  0.35961400  0.72601700  0.29550000  1
  H  120  1  0.43915600  0.73864900  0.30873400  1
  H  151  1  0.64258700  0.31656700  0.73667900  1
  H  152  1  0.56221800  0.30189900  0.72677500  1
  H  153  1  0.72360000  0.27273800  0.70307700  1
  H  154  1  0.64344400  0.25797600  0.69309200  1
  H  155  1  0.57932100  0.22687700  0.66533800  1
  H  156  1  0.57661000  0.20112100  0.64064100  1
  H  157  1  0.41617000  0.22367700  0.67117500  1
  H  158  1  0.41361400  0.19817700  0.64631600  1
  H  159  1  0.35775000  0.25181300  0.70193500  1
  H  160  1  0.27846700  0.26367800  0.71593800  1
  H  161  1  0.35923200  0.31037100  0.74555000  1
  H  162  1  0.43882700  0.29858100  0.73162600  1
  H  193  1  0.85065600  0.73187200  0.32288000  1
  H  194  1  0.93263500  0.72218000  0.30956500  1
  H  195  1  0.77510800  0.70180100  0.27518800  1
  H  196  1  0.85703200  0.69199000  0.26176000  1
  H  197  1  0.92594900  0.66131600  0.23392100  1
  H  198  1  0.93312400  0.63546400  0.20958600  1
  H  199  1  0.08883500  0.66881900  0.23300200  1
  H  200  1  0.09576500  0.64316100  0.20846800  1
  H  201  1  0.14225000  0.68683300  0.27227300  1
  H  202  1  0.22072100  0.69808500  0.28739700  1
  H  203  1  0.13711900  0.74134500  0.32081400  1
  H  204  1  0.05822500  0.73010500  0.30577200  1
  H  235  1  0.85175000  0.28640200  0.73393400  1
  H  236  1  0.93348100  0.29933100  0.74449700  1
  H  237  1  0.77513500  0.32846900  0.77115300  1
  H  238  1  0.85676900  0.34149400  0.78182400  1
  H  239  1  0.92458400  0.37147000  0.80989900  1
  H  240  1  0.93043200  0.39869400  0.83280700  1
  H  241  1  0.08832900  0.36848000  0.80735600  1
  H  242  1  0.09398500  0.39550500  0.83042500  1
  H  243  1  0.14046100  0.34767000  0.76971000  1
  H  244  1  0.21868100  0.33697400  0.75402200  1
  H  245  1  0.13699000  0.29090100  0.72381900  1
  H  246  1  0.05834300  0.30155600  0.73944200  1
  H  277  1  0.35092800  0.31871100  0.30672500  1
  H  278  1  0.43297000  0.30543900  0.31639800  1
  H  279  1  0.27556900  0.27114500  0.33706600  1
  H  280  1  0.35756500  0.25775900  0.34685700  1
  H  281  1  0.42650500  0.23017600  0.37765700  1
  H  282  1  0.43363000  0.20606600  0.40371900  1
  H  283  1  0.58945100  0.22937500  0.37036700  1
  H  284  1  0.59633900  0.20505500  0.39623600  1
  H  285  1  0.64296300  0.26815500  0.35152700  1
  H  286  1  0.72126900  0.28334800  0.34020300  1
  H  287  1  0.63712300  0.31691400  0.29722100  1
  H  288  1  0.55839000  0.30180300  0.30853200  1
  H  319  1  0.35156500  0.72977800  0.75231600  1
  H  320  1  0.43322200  0.74036100  0.73933200  1
  H  321  1  0.27471400  0.76702100  0.71033400  1
  H  322  1  0.35627100  0.77771200  0.69725600  1
  H  323  1  0.42404600  0.80614700  0.66751200  1
  H  324  1  0.42992600  0.82929100  0.64048000  1
  H  325  1  0.58779500  0.80366100  0.67056600  1
  H  326  1  0.59347300  0.82695400  0.64374300  1
  H  327  1  0.63979500  0.76562700  0.69074600  1
  H  328  1  0.71819000  0.75003200  0.70138900  1
  H  329  1  0.63701400  0.71986500  0.74762500  1
  H  330  1  0.55820000  0.73539300  0.73702400  1
  H  361  1  0.99866700  0.57732300  0.19704800  1
  H  362  1  0.99990200  0.54572300  0.18036800  1
  H  363  1  0.96447600  0.60648000  0.14232700  1
  H  364  1  0.96525200  0.57484500  0.12533600  1
  H  365  1  0.95685100  0.54906900  0.08523800  1
  H  366  1  0.95283300  0.54831200  0.04937700  1
  H  367  1  0.99741800  0.48730800  0.08561700  1
  H  368  1  0.99309000  0.48690600  0.04968600  1
  H  369  1  0.00050400  0.46383900  0.12883400  1
  H  370  1  0.01253300  0.43399800  0.14811500  1
  H  371  1  0.02543200  0.46866600  0.20096900  1
  H  372  1  0.01408800  0.49861500  0.18191000  1
  H  374  1  0.04734400  0.43246700  0.19957100  1
  H  376  1  0.94558100  0.50757700  0.02040500  1
  H  378  1  0.95443100  0.62234300  0.17744000  1
  H  403  1  0.98596500  0.45934300  0.84391800  1
  H  404  1  0.99163200  0.49059900  0.86113600  1
  H  405  1  0.97476100  0.42869600  0.89925900  1
  H  406  1  0.98015600  0.45997800  0.91681700  1
  H  407  1  0.02886000  0.48438000  0.95597700  1
  H  408  1  0.03535800  0.48432000  0.99182700  1
  H  409  1  0.99711500  0.54688500  0.95715200  1
  H  410  1  0.00356000  0.54646800  0.99307200  1
  H  411  1  0.00833800  0.57138900  0.91366800  1
  H  412  1  0.01554500  0.60147800  0.89437800  1
  H  413  1  0.01259200  0.56749400  0.84085300  1
  H  414  1  0.00592400  0.53734400  0.85987200  1
  H  416  1  0.03888500  0.60301600  0.84192600  1
  H  418  1  0.04800400  0.52464000  0.02175200  1
  H  420  1  0.95485400  0.41316300  0.86438100  1
  H  445  1  0.48495500  0.84046800  0.58004700  1
  H  446  1  0.49090800  0.85760600  0.54876400  1
  H  447  1  0.47476600  0.89589300  0.61059700  1
  H  448  1  0.48046800  0.91338000  0.57927700  1
  H  449  1  0.52911300  0.95247100  0.55471600  1
  H  450  1  0.53546500  0.98832700  0.55464500  1
  H  451  1  0.49729900  0.95339800  0.49221300  1
  H  452  1  0.50359400  0.98932900  0.49249900  1
  H  453  1  0.50808100  0.90972900  0.46785300  1
  H  454  1  0.51540300  0.89026800  0.43786200  1
  H  455  1  0.51605500  0.83697600  0.47222500  1
  H  456  1  0.50920200  0.85616600  0.50227700  1
  H  458  1  0.54126300  0.83810100  0.43640100  1
  H  460  1  0.54800000  0.01811200  0.51422600  1
  H  462  1  0.45429700  0.86096600  0.62617600  1
  H  487  1  0.49933100  0.19358500  0.46213700  1
  H  488  1  0.50027000  0.17682000  0.49370200  1
  H  489  1  0.46469500  0.13898700  0.43283100  1
  H  490  1  0.46516000  0.12192100  0.46442000  1
  H  491  1  0.45688800  0.08171900  0.48998900  1
  H  492  1  0.45301300  0.04585200  0.49060200  1
  H  493  1  0.49702800  0.08188100  0.55179200  1
  H  494  1  0.49284300  0.04594700  0.55205100  1
  H  495  1  0.50102200  0.12485300  0.57540100  1
  H  496  1  0.51299800  0.14393300  0.60536100  1
  H  497  1  0.52214000  0.19719400  0.57113200  1
  H  498  1  0.51090800  0.17833300  0.54106700  1
  H  500  1  0.54524600  0.19576200  0.60701600  1
  H  502  1  0.44551300  0.01674000  0.53123100  1
  H  504  1  0.45505700  0.17401200  0.41701200  1
  C  1  1  0.04668000  0.33143700  0.26883700  1
  C  3  1  0.95404300  0.33081700  0.26909600  1
  C  5  1  0.99896500  0.35313900  0.24694100  1
  C  7  1  0.90650300  0.32287800  0.27661800  1
  C  8  1  0.90572400  0.30927900  0.29305200  1
  C  9  1  0.85880100  0.30138300  0.30042100  1
  C  10  1  0.81120300  0.30687100  0.29149800  1
  C  11  1  0.81134200  0.32033700  0.27509400  1
  C  12  1  0.85832400  0.32825100  0.26783500  1
  C  13  1  0.09497400  0.32386100  0.27605400  1
  C  14  1  0.09699300  0.30725700  0.28944100  1
  C  15  1  0.14460100  0.29945600  0.29622200  1
  C  16  1  0.19177500  0.30815600  0.28989300  1
  C  17  1  0.19041500  0.32475400  0.27666300  1
  C  18  1  0.14271200  0.33245600  0.26986400  1
  C  19  1  0.99748400  0.36828500  0.23175000  1
  C  20  1  0.04351500  0.37722600  0.22430100  1
  C  21  1  0.04183600  0.39247600  0.20962500  1
  C  22  1  0.99405200  0.39934600  0.20174500  1
  C  23  1  0.94809000  0.39011900  0.20879100  1
  C  24  1  0.94976900  0.37500400  0.22357800  1
  C  37  1  0.23877900  0.30039400  0.29633200  1
  C  38  1  0.99175600  0.41518100  0.18730500  1
  C  39  1  0.76502800  0.29906400  0.29866100  1
  C  43  1  0.04569300  0.69986200  0.76989900  1
  C  45  1  0.95363200  0.70333600  0.77202200  1
  C  47  1  0.99834100  0.68175100  0.79495300  1
  C  49  1  0.90631000  0.71180700  0.76487300  1
  C  50  1  0.90528600  0.72453300  0.74775400  1
  C  51  1  0.85848700  0.73272100  0.74058700  1
  C  52  1  0.81126100  0.72838900  0.75039600  1
  C  53  1  0.81167600  0.71588400  0.76754000  1
  C  54  1  0.85852500  0.70770200  0.77461500  1
  C  55  1  0.09374700  0.70508000  0.76064100  1
  C  56  1  0.09539600  0.71755800  0.74333800  1
  C  57  1  0.14282200  0.72326100  0.73456700  1
  C  58  1  0.19014200  0.71663000  0.74290700  1
  C  59  1  0.18917300  0.70397100  0.75994100  1
  C  60  1  0.14164000  0.69826900  0.76862400  1
  C  61  1  0.99686700  0.66766800  0.81113300  1
  C  62  1  0.04246700  0.65789900  0.81790300  1
  C  63  1  0.04055400  0.64312800  0.83303900  1
  C  64  1  0.99298500  0.63759600  0.84207200  1
  C  65  1  0.94766000  0.64787900  0.83594800  1
  C  66  1  0.94954100  0.66252700  0.82069100  1
  C  79  1  0.23694700  0.72310900  0.73503500  1
  C  80  1  0.99032800  0.62170800  0.85642300  1
  C  81  1  0.76510600  0.73626600  0.74330500  1
  C  85  1  0.54606800  0.77010000  0.33506800  1
  C  87  1  0.45344800  0.76980900  0.33426600  1
  C  89  1  0.49802100  0.79225700  0.35638500  1
  C  91  1  0.40602000  0.76215300  0.32636400  1
  C  92  1  0.40543500  0.74557000  0.31294400  1
  C  93  1  0.35860000  0.73805000  0.30511300  1
  C  94  1  0.31091500  0.74696900  0.31049100  1
  C  95  1  0.31086600  0.76352500  0.32376700  1
  C  96  1  0.35775100  0.77093500  0.33161500  1
  C  97  1  0.59448100  0.76282100  0.32767000  1
  C  98  1  0.59676500  0.74938100  0.31111600  1
  C  99  1  0.64449500  0.74256800  0.30346100  1
  C  100  1  0.69153100  0.74891100  0.31226500  1
  C  101  1  0.68990200  0.76218600  0.32882400  1
  C  102  1  0.64207500  0.76902100  0.33637800  1
  C  103  1  0.49631400  0.80759400  0.37137200  1
  C  104  1  0.54208900  0.81455500  0.38087600  1
  C  105  1  0.54016600  0.82924400  0.39609800  1
  C  106  1  0.49240900  0.83764700  0.40233400  1
  C  107  1  0.44676500  0.83118800  0.39247800  1
  C  108  1  0.44866200  0.81634000  0.37742000  1
  C  121  1  0.73865200  0.74247600  0.30460300  1
  C  122  1  0.48998500  0.85192600  0.41828900  1
  C  123  1  0.26480700  0.73966600  0.30276400  1
  C  127  1  0.54629300  0.26912600  0.70348500  1
  C  129  1  0.45419200  0.26693400  0.70677200  1
  C  131  1  0.49923400  0.24423900  0.68503200  1
  C  133  1  0.40676900  0.27395200  0.71527300  1
  C  134  1  0.40555900  0.29095600  0.72815200  1
  C  135  1  0.35868500  0.29797700  0.73640400  1
  C  136  1  0.31155600  0.28813200  0.73199100  1
  C  137  1  0.31214900  0.27110600  0.71932500  1
  C  138  1  0.35907600  0.26417900  0.71107800  1
  C  139  1  0.59425200  0.27835600  0.70887900  1
  C  140  1  0.59569900  0.29557200  0.72147800  1
  C  141  1  0.64302900  0.30432900  0.72732300  1
  C  142  1  0.69045300  0.29606400  0.72071200  1
  C  143  1  0.68968500  0.27911000  0.70794300  1
  C  144  1  0.64225000  0.27044400  0.70209800  1
  C  145  1  0.49800900  0.22815600  0.67083200  1
  C  146  1  0.54397000  0.22095800  0.66163700  1
  C  147  1  0.54239200  0.20579400  0.64687700  1
  C  148  1  0.49479000  0.19718700  0.64073700  1
  C  149  1  0.44900700  0.20382000  0.65039800  1
  C  150  1  0.45057000  0.21907000  0.66505200  1
  C  163  1  0.73717000  0.30393800  0.72728100  1
  C  164  1  0.49249400  0.18264700  0.62498800  1
  C  165  1  0.26534800  0.29507700  0.73996200  1
  C  169  1  0.95274000  0.70026100  0.27623000  1
  C  171  1  0.04523800  0.70091500  0.27795600  1
  C  173  1  0.00298600  0.68173300  0.25237300  1
  C  175  1  0.09195300  0.70733500  0.28739700  1
  C  176  1  0.09194800  0.72300800  0.30185700  1
  C  177  1  0.13837100  0.72967700  0.31076700  1
  C  178  1  0.18610900  0.72068900  0.30555500  1
  C  179  1  0.18656300  0.70480100  0.29148200  1
  C  180  1  0.14015400  0.69829600  0.28250900  1
  C  181  1  0.90361000  0.70606500  0.28420700  1
  C  182  1  0.90001100  0.71768000  0.30205500  1
  C  183  1  0.85168400  0.72338500  0.31002600  1
  C  184  1  0.80532700  0.71767300  0.30030400  1
  C  185  1  0.80818900  0.70604700  0.28257800  1
  C  186  1  0.85664800  0.70032400  0.27469300  1
  C  187  1  0.00658800  0.66783400  0.23610600  1
  C  188  1  0.96199800  0.65811400  0.22834800  1
  C  189  1  0.96617500  0.64289000  0.21372900  1
  C  190  1  0.01511500  0.63684300  0.20622300  1
  C  191  1  0.05953400  0.64705300  0.21340100  1
  C  192  1  0.05533100  0.66230500  0.22795400  1
  C  205  1  0.75782600  0.72385500  0.30779800  1
  C  206  1  0.02042800  0.61967400  0.19356400  1
  C  207  1  0.23216600  0.72791400  0.31343700  1
  C  211  1  0.95272500  0.32981700  0.77030400  1
  C  213  1  0.04461900  0.33170800  0.76619200  1
  C  215  1  0.00251500  0.35192500  0.79102300  1
  C  217  1  0.09109100  0.32569800  0.75627700  1
  C  218  1  0.09155900  0.30937200  0.74255300  1
  C  219  1  0.13784400  0.30304800  0.73328700  1
  C  220  1  0.18498900  0.31301400  0.73740900  1
  C  221  1  0.18493000  0.32956100  0.75069900  1
  C  222  1  0.13866100  0.33574500  0.76000900  1
  C  223  1  0.90383100  0.32180700  0.76428200  1
  C  224  1  0.90066300  0.30571100  0.75033000  1
  C  225  1  0.85250600  0.29799900  0.74407400  1
  C  226  1  0.80592800  0.30627300  0.75153800  1
  C  227  1  0.80839500  0.32219400  0.76554200  1
  C  228  1  0.85667900  0.32980300  0.77181900  1
  C  229  1  0.00579200  0.36706200  0.80615000  1
  C  230  1  0.96068700  0.37597400  0.81442000  1
  C  231  1  0.96411100  0.39201700  0.82817300  1
  C  232  1  0.01281100  0.39971400  0.83425300  1
  C  233  1  0.05791400  0.39044200  0.82647400  1
  C  234  1  0.05447700  0.37438700  0.81278800  1
  C  247  1  0.75854000  0.29889300  0.74511800  1
  C  248  1  0.01679300  0.41739000  0.84625000  1
  C  249  1  0.23109700  0.30611600  0.72928500  1
  C  253  1  0.45321900  0.27221200  0.33845600  1
  C  255  1  0.54572300  0.27392800  0.33770200  1
  C  257  1  0.50356700  0.24852700  0.35716300  1
  C  259  1  0.59239100  0.28334700  0.33117900  1
  C  260  1  0.59220100  0.29785900  0.31555100  1
  C  261  1  0.63853400  0.30680500  0.30883300  1
  C  262  1  0.68638100  0.30158600  0.31772700  1
  C  263  1  0.68703200  0.28744000  0.33355000  1
  C  264  1  0.64071400  0.27842700  0.34010000  1
  C  265  1  0.40405000  0.28014900  0.33264700  1
  C  266  1  0.40037700  0.29794500  0.32095400  1
  C  267  1  0.35201100  0.30588700  0.31525800  1
  C  268  1  0.30569100  0.29619100  0.32105800  1
  C  269  1  0.30862400  0.27851300  0.33275500  1
  C  270  1  0.35712200  0.27065700  0.33847000  1
  C  271  1  0.50717700  0.23238800  0.37121400  1
  C  272  1  0.46256500  0.22467000  0.38095100  1
  C  273  1  0.46672300  0.21019800  0.39631600  1
  C  274  1  0.51565500  0.20277600  0.40247400  1
  C  275  1  0.56010400  0.20991300  0.39225500  1
  C  276  1  0.55593100  0.22433900  0.37687700  1
  C  289  1  0.25815800  0.30368200  0.31490600  1
  C  290  1  0.52088300  0.19021800  0.41972500  1
  C  291  1  0.73233800  0.30958600  0.31053000  1
  C  295  1  0.45228400  0.76622700  0.70887600  1
  C  297  1  0.54415700  0.76212100  0.70688500  1
  C  299  1  0.50198400  0.78712900  0.68691700  1
  C  301  1  0.59067600  0.75219400  0.71280400  1
  C  302  1  0.59132000  0.73848300  0.72913900  1
  C  303  1  0.63770800  0.72927900  0.73543400  1
  C  304  1  0.68475900  0.73343900  0.72541700  1
  C  305  1  0.68450700  0.74668500  0.70883500  1
  C  306  1  0.63813900  0.75594000  0.70268600  1
  C  307  1  0.40344100  0.76015900  0.71689300  1
  C  308  1  0.40037000  0.74618700  0.73297400  1
  C  309  1  0.35225500  0.73992000  0.74071900  1
  C  310  1  0.30562800  0.74738700  0.73249100  1
  C  311  1  0.30800600  0.76140500  0.71657600  1
  C  312  1  0.35624500  0.76769800  0.70893900  1
  C  313  1  0.50525000  0.80240000  0.67192700  1
  C  314  1  0.46014900  0.81072000  0.66306100  1
  C  315  1  0.46358500  0.82462700  0.64715100  1
  C  316  1  0.51229600  0.83078200  0.63952700  1
  C  317  1  0.55739700  0.82295700  0.64876400  1
  C  318  1  0.55394100  0.80913000  0.66469400  1
  C  331  1  0.25826900  0.74099900  0.73992600  1
  C  332  1  0.51634200  0.84288300  0.62192900  1
  C  333  1  0.73097700  0.72544500  0.73235100  1
  C  337  1  0.98522900  0.53800800  0.14094900  1
  C  339  1  0.99686300  0.50233700  0.14198000  1
  C  341  1  0.98239700  0.51887500  0.11057600  1
  C  343  1  0.00544700  0.48443100  0.15333000  1
  C  344  1  0.01356100  0.48517900  0.17441300  1
  C  345  1  0.02056500  0.46751900  0.18573600  1
  C  346  1  0.01876400  0.44840600  0.17648100  1
  C  347  1  0.01234400  0.44755800  0.15538200  1
  C  348  1  0.00572000  0.46524300  0.14402400  1
  C  349  1  0.98328900  0.55692400  0.15100200  1
  C  350  1  0.99251200  0.55829600  0.17196900  1
  C  351  1  0.99235700  0.57696900  0.18185900  1
  C  352  1  0.98319600  0.59497700  0.17114000  1
  C  353  1  0.97191100  0.59370200  0.15040700  1
  C  354  1  0.97259700  0.57501000  0.14045600  1
  C  355  1  0.97767000  0.51825300  0.08923600  1
  C  356  1  0.96436700  0.53573600  0.07812800  1
  C  357  1  0.96172600  0.53539900  0.05701000  1
  C  358  1  0.97261300  0.51758400  0.04640300  1
  C  359  1  0.98496500  0.49995100  0.05721100  1
  C  360  1  0.98735000  0.50029700  0.07834600  1
  C  379  1  0.99329100  0.49724100  0.90113700  1
  C  381  1  0.00269000  0.53301600  0.90023100  1
  C  383  1  0.00624200  0.51557500  0.93156700  1
  C  385  1  0.00584200  0.55115000  0.88883700  1
  C  386  1  0.00727300  0.55068500  0.86752200  1
  C  387  1  0.01150700  0.56847000  0.85621100  1
  C  388  1  0.01332700  0.58745600  0.86572700  1
  C  389  1  0.01235700  0.58804700  0.88698000  1
  C  390  1  0.00870500  0.57021500  0.89832500  1
  C  391  1  0.98711300  0.47859800  0.89084400  1
  C  392  1  0.98781100  0.47779700  0.86954400  1
  C  393  1  0.98489100  0.45935200  0.85930500  1
  C  394  1  0.98124200  0.44104500  0.86999600  1
  C  395  1  0.97776700  0.44173400  0.89116800  1
  C  396  1  0.98128000  0.46021000  0.90143600  1
  C  397  1  0.01213500  0.51565000  0.95283700  1
  C  398  1  0.02361100  0.49768200  0.96344800  1
  C  399  1  0.02791100  0.49756000  0.98452800  1
  C  400  1  0.02016900  0.51536200  0.99557100  1
  C  401  1  0.00953700  0.53344000  0.98522200  1
  C  402  1  0.00589900  0.53358600  0.96411000  1
  C  421  1  0.49344800  0.89758600  0.54204900  1
  C  423  1  0.50371800  0.89651800  0.50631600  1
  C  425  1  0.50659900  0.92794000  0.52361200  1
  C  427  1  0.50731700  0.88502300  0.48826400  1
  C  428  1  0.50986900  0.86372600  0.48887600  1
  C  429  1  0.51426700  0.85231800  0.47115900  1
  C  430  1  0.51505000  0.86171800  0.45210800  1
  C  431  1  0.51311100  0.88295600  0.45136900  1
  C  432  1  0.50934900  0.89439900  0.46913000  1
  C  433  1  0.48694400  0.88735500  0.56070800  1
  C  434  1  0.48722700  0.86605400  0.56154800  1
  C  435  1  0.48410500  0.85585600  0.58000700  1
  C  436  1  0.48068500  0.86659400  0.59829100  1
  C  437  1  0.47756700  0.88777300  0.59756900  1
  C  438  1  0.48123900  0.89799800  0.57907400  1
  C  439  1  0.51237800  0.94921100  0.52345900  1
  C  440  1  0.52380300  0.95989300  0.54139000  1
  C  441  1  0.52800400  0.98097600  0.54143500  1
  C  442  1  0.52022000  0.99194800  0.52359400  1
  C  443  1  0.50964800  0.98152800  0.50554900  1
  C  444  1  0.50609500  0.96041400  0.50548100  1
  C  463  1  0.48503600  0.13740600  0.50131200  1
  C  465  1  0.49592200  0.13830600  0.53702400  1
  C  467  1  0.48207300  0.10695300  0.52031300  1
  C  469  1  0.50412500  0.14956600  0.55501500  1
  C  470  1  0.51110600  0.17071100  0.55443400  1
  C  471  1  0.51802100  0.18191900  0.57217100  1
  C  472  1  0.51726800  0.17248800  0.59121400  1
  C  473  1  0.51188200  0.15133800  0.59188300  1
  C  474  1  0.50530000  0.14009800  0.57412100  1
  C  475  1  0.48338800  0.14751300  0.48241700  1
  C  476  1  0.49285900  0.16846700  0.48110000  1
  C  477  1  0.49289000  0.17840300  0.46244900  1
  C  478  1  0.48368300  0.16774500  0.44440600  1
  C  479  1  0.47217600  0.14702500  0.44563100  1
  C  480  1  0.47269500  0.13702800  0.46429800  1
  C  481  1  0.47748900  0.08560700  0.52084000  1
  C  482  1  0.46435700  0.07456000  0.50329800  1
  C  483  1  0.46178200  0.05343900  0.50355400  1
  C  484  1  0.47259100  0.04277000  0.52133800  1
  C  485  1  0.48479200  0.05351600  0.53902500  1
  C  486  1  0.48712300  0.07465300  0.53876200  1
  N  2  1  0.00077900  0.32420400  0.27586000  1
  N  4  1  0.95457100  0.34525000  0.25462800  1
  N  6  1  0.04444200  0.34590300  0.25437400  1
  N  44  1  0.00005500  0.70782400  0.76343000  1
  N  46  1  0.95418700  0.69023300  0.78771000  1
  N  48  1  0.04348300  0.68686300  0.78568800  1
  N  86  1  0.50027800  0.76297400  0.32783000  1
  N  88  1  0.45374600  0.78446200  0.34851400  1
  N  90  1  0.54361000  0.78473700  0.34934900  1
  N  128  1  0.50054100  0.27549700  0.71142900  1
  N  130  1  0.45496000  0.25138000  0.69351300  1
  N  132  1  0.54429200  0.25346400  0.69032800  1
  N  170  1  0.99779000  0.70653800  0.28485300  1
  N  172  1  0.04639100  0.68847600  0.26176900  1
  N  174  1  0.95664600  0.68778200  0.26006100  1
  N  212  1  0.99749900  0.32407300  0.76111100  1
  N  214  1  0.04565400  0.34558900  0.78116800  1
  N  216  1  0.95649100  0.34385000  0.78514500  1
  N  254  1  0.49823800  0.28077800  0.33206800  1
  N  256  1  0.54694100  0.25785500  0.35029200  1
  N  258  1  0.45719800  0.25616000  0.35107700  1
  N  296  1  0.49707800  0.75698200  0.71451800  1
  N  298  1  0.54513800  0.77721700  0.69314000  1
  N  300  1  0.45598800  0.78118600  0.69496800  1
  N  338  1  0.99379200  0.52059000  0.15113000  1
  N  340  1  0.99105800  0.50198500  0.12164200  1
  N  342  1  0.97982600  0.53662200  0.12068000  1
  N  373  1  0.02408600  0.43143000  0.18804500  1
  N  375  1  0.97187600  0.51817800  0.02520700  1
  N  377  1  0.98261100  0.61316500  0.18079300  1
  N  380  1  0.99564600  0.51497200  0.89100700  1
  N  382  1  0.00781200  0.53284700  0.92059800  1
  N  384  1  0.99900600  0.49804400  0.92142400  1
  N  415  1  0.01845800  0.60446100  0.85420000  1
  N  417  1  0.02133900  0.51427700  0.01674800  1
  N  419  1  0.98044300  0.42304100  0.86003400  1
  N  422  1  0.49631000  0.88737600  0.52437700  1
  N  424  1  0.50865100  0.91689400  0.50639600  1
  N  426  1  0.49904400  0.91787400  0.54116900  1
  N  457  1  0.51985100  0.85013900  0.43513300  1
  N  459  1  0.52133700  0.01313000  0.52460200  1
  N  461  1  0.47994400  0.85665800  0.61630400  1
  N  464  1  0.49315300  0.14753100  0.51879800  1
  N  466  1  0.49030300  0.11795900  0.53727100  1
  N  468  1  0.47976900  0.11712600  0.50260200  1
  N  499  1  0.52298900  0.18395900  0.60824400  1
  N  501  1  0.47187700  0.02157600  0.52067100  1
  N  503  1  0.48308100  0.17744100  0.42623600  1
  O  40  1  0.75511900  0.28177400  0.29352500  1
  O  41  1  0.95103800  0.41527300  0.17440100  1
  O  42  1  0.26261200  0.29028800  0.28398300  1
  O  82  1  0.75650000  0.75385800  0.74771500  1
  O  83  1  0.95248000  0.62257400  0.87054500  1
  O  84  1  0.25863900  0.71150600  0.72344000  1
  O  124  1  0.25483000  0.74462600  0.28542900  1
  O  125  1  0.45106200  0.86562800  0.41787100  1
  O  126  1  0.76270500  0.75485400  0.29461200  1
  O  166  1  0.25690200  0.29052000  0.75752900  1
  O  167  1  0.45268000  0.16933300  0.62533200  1
  O  168  1  0.75880700  0.31564900  0.71578000  1
  O  208  1  0.24204400  0.72297000  0.33078100  1
  O  209  1  0.06496100  0.60891600  0.19504000  1
  O  210  1  0.73401000  0.71145600  0.31783900  1
  O  250  1  0.23946500  0.31067300  0.71171800  1
  O  251  1  0.05888300  0.42928300  0.84335200  1
  O  252  1  0.73695700  0.28709400  0.75655100  1
  O  292  1  0.74218500  0.32687400  0.31567700  1
  O  293  1  0.56534400  0.19176400  0.43051700  1
  O  294  1  0.23459000  0.31386000  0.32726200  1
  O  334  1  0.73947000  0.70784100  0.72797000  1
  O  335  1  0.55841300  0.84001500  0.61001800  1
  O  336  1  0.23659300  0.75253900  0.75159400  1
