# generated using pymatgen
data_CoH7C9(N2O)2
_symmetry_space_group_name_H-M   'P 1'
_cell_length_a   9.45078000
_cell_length_b   10.06892000
_cell_length_c   15.72356000
_cell_angle_alpha   100.63788000
_cell_angle_beta   90.00000000
_cell_angle_gamma   90.00000000
_symmetry_Int_Tables_number   1
_chemical_formula_structural   CoH7C9(N2O)2
_chemical_formula_sum   'Co4 H28 C36 N16 O8'
_cell_volume   1470.52545838
_cell_formula_units_Z   4
loop_
 _symmetry_equiv_pos_site_id
 _symmetry_equiv_pos_as_xyz
  1  'x, y, z'
loop_
 _atom_site_type_symbol
 _atom_site_label
 _atom_site_symmetry_multiplicity
 _atom_site_fract_x
 _atom_site_fract_y
 _atom_site_fract_z
 _atom_site_occupancy
  Co  Co1  1  0.41515000  0.35789000  0.91786000  1.0
  Co  Co2  1  0.08485000  0.85789000  0.91786000  1.0
  Co  Co3  1  0.91515000  0.14211000  0.08214000  1.0
  Co  Co4  1  0.58485000  0.64211000  0.08214000  1.0
  H  H1  1  0.86706000  0.38174000  0.59013000  1.0
  H  H2  1  0.13295000  0.61827000  0.40987000  1.0
  H  H3  1  0.75875000  0.54759000  0.92366000  1.0
  H  H4  1  0.31022000  0.04966000  0.86604000  1.0
  H  H5  1  0.73129000  0.61650000  0.35025000  1.0
  H  H6  1  0.60724000  0.11782000  0.86652000  1.0
  H  H7  1  0.23129000  0.88351000  0.64976000  1.0
  H  H8  1  0.81023000  0.45034000  0.13396000  1.0
  H  H9  1  0.39276000  0.88218000  0.13348000  1.0
  H  H10  1  0.76872000  0.11650000  0.35025000  1.0
  H  H11  1  0.46950000  0.96174000  0.34730000  1.0
  H  H12  1  0.89276000  0.61783000  0.86652000  1.0
  H  H13  1  0.53051000  0.03826000  0.65270000  1.0
  H  H14  1  0.03050000  0.46174000  0.34730000  1.0
  H  H15  1  0.63295000  0.88174000  0.59013000  1.0
  H  H16  1  0.25875000  0.95241000  0.07634000  1.0
  H  H17  1  0.74125000  0.04759000  0.92366000  1.0
  H  H18  1  0.68978000  0.95035000  0.13396000  1.0
  H  H19  1  0.26871000  0.38350000  0.64976000  1.0
  H  H20  1  0.74498000  0.18214000  0.51122000  1.0
  H  H21  1  0.25502000  0.81787000  0.48878000  1.0
  H  H22  1  0.24498000  0.31786000  0.48878000  1.0
  H  H23  1  0.24125000  0.45241000  0.07634000  1.0
  H  H24  1  0.18978000  0.54966000  0.86604000  1.0
  H  H25  1  0.10724000  0.38218000  0.13348000  1.0
  H  H26  1  0.75502000  0.68214000  0.51122000  1.0
  H  H27  1  0.96950000  0.53826000  0.65270000  1.0
  H  H28  1  0.36706000  0.11827000  0.40987000  1.0
  C  C1  1  0.96189000  0.43967000  0.47641000  1.0
  C  C2  1  0.41701000  0.24466000  0.75502000  1.0
  C  C3  1  0.81579000  0.74076000  0.97406000  1.0
  C  C4  1  0.91702000  0.25534000  0.24498000  1.0
  C  C5  1  0.37860000  0.14282000  0.47986000  1.0
  C  C6  1  0.82096000  0.20619000  0.38571000  1.0
  C  C7  1  0.18421000  0.25925000  0.02594000  1.0
  C  C8  1  0.47014000  0.09722000  0.61409000  1.0
  C  C9  1  0.58299000  0.75535000  0.24498000  1.0
  C  C10  1  0.97014000  0.40278000  0.38591000  1.0
  C  C11  1  0.52986000  0.90278000  0.38591000  1.0
  C  C12  1  0.02986000  0.59722000  0.61409000  1.0
  C  C13  1  0.87860000  0.35718000  0.52014000  1.0
  C  C14  1  0.62141000  0.85718000  0.52014000  1.0
  C  C15  1  0.19100000  0.75706000  0.52452000  1.0
  C  C16  1  0.75393000  0.39753000  0.07783000  1.0
  C  C17  1  0.67904000  0.70619000  0.38571000  1.0
  C  C18  1  0.31579000  0.75925000  0.02594000  1.0
  C  C19  1  0.32096000  0.29381000  0.61429000  1.0
  C  C20  1  0.12140000  0.64282000  0.47986000  1.0
  C  C21  1  0.17904000  0.79381000  0.61429000  1.0
  C  C22  1  0.03811000  0.56033000  0.52359000  1.0
  C  C23  1  0.90164000  0.28774000  0.34079000  1.0
  C  C24  1  0.59836000  0.78774000  0.34079000  1.0
  C  C25  1  0.53811000  0.93967000  0.47641000  1.0
  C  C26  1  0.24607000  0.60247000  0.92218000  1.0
  C  C27  1  0.69100000  0.74295000  0.47548000  1.0
  C  C28  1  0.25393000  0.10247000  0.92218000  1.0
  C  C29  1  0.46189000  0.06033000  0.52359000  1.0
  C  C30  1  0.68421000  0.24076000  0.97406000  1.0
  C  C31  1  0.08299000  0.74466000  0.75502000  1.0
  C  C32  1  0.80901000  0.24295000  0.47548000  1.0
  C  C33  1  0.40164000  0.21226000  0.65921000  1.0
  C  C34  1  0.74607000  0.89754000  0.07783000  1.0
  C  C35  1  0.30901000  0.25706000  0.52452000  1.0
  C  C36  1  0.09836000  0.71227000  0.65921000  1.0
  N  N1  1  0.89647000  0.85104000  0.97046000  1.0
  N  N2  1  0.65053000  0.45179000  0.03868000  1.0
  N  N3  1  0.72006000  0.76668000  0.04041000  1.0
  N  N4  1  0.39647000  0.64897000  0.02954000  1.0
  N  N5  1  0.27995000  0.23333000  0.95959000  1.0
  N  N6  1  0.83168000  0.62041000  0.92081000  1.0
  N  N7  1  0.22005000  0.73333000  0.95959000  1.0
  N  N8  1  0.15053000  0.04821000  0.96132000  1.0
  N  N9  1  0.60354000  0.35104000  0.97046000  1.0
  N  N10  1  0.16832000  0.37959000  0.07919000  1.0
  N  N11  1  0.10354000  0.14896000  0.02954000  1.0
  N  N12  1  0.66832000  0.12041000  0.92081000  1.0
  N  N13  1  0.77995000  0.26668000  0.04041000  1.0
  N  N14  1  0.33168000  0.87960000  0.07919000  1.0
  N  N15  1  0.34947000  0.54822000  0.96132000  1.0
  N  N16  1  0.84947000  0.95179000  0.03868000  1.0
  O  O1  1  0.97223000  0.33964000  0.20402000  1.0
  O  O2  1  0.62763000  0.63911000  0.20435000  1.0
  O  O3  1  0.02777000  0.66036000  0.79598000  1.0
  O  O4  1  0.37237000  0.36089000  0.79566000  1.0
  O  O5  1  0.87237000  0.13911000  0.20435000  1.0
  O  O6  1  0.12763000  0.86089000  0.79566000  1.0
  O  O7  1  0.52777000  0.83965000  0.20402000  1.0
  O  O8  1  0.47223000  0.16036000  0.79598000  1.0
