# generated using pymatgen
data_H6(C3N)5
_symmetry_space_group_name_H-M   'P 1'
_cell_length_a   11.26270000
_cell_length_b   23.78720000
_cell_length_c   29.43890000
_cell_angle_alpha   90.00000000
_cell_angle_beta   89.99980000
_cell_angle_gamma   90.00000000
_symmetry_Int_Tables_number   1
_chemical_formula_structural   H6(C3N)5
_chemical_formula_sum   'H48 C120 N40'
_cell_volume   7886.91968968
_cell_formula_units_Z   8
loop_
 _symmetry_equiv_pos_site_id
 _symmetry_equiv_pos_as_xyz
  1  'x, y, z'
loop_
 _atom_site_type_symbol
 _atom_site_label
 _atom_site_symmetry_multiplicity
 _atom_site_fract_x
 _atom_site_fract_y
 _atom_site_fract_z
 _atom_site_occupancy
  C  1  1  0.94013200  0.97390800  0.97270600  1
  C  2  1  0.87141900  0.92871000  0.99178200  1
  C  3  1  0.78793100  0.89819400  0.96480600  1
  C  4  1  0.77698400  0.91368600  0.91889300  1
  C  5  1  0.83745400  0.96007200  0.90021500  1
  C  6  1  0.92167600  0.98999400  0.92663000  1
  C  7  1  0.88987700  0.91533800  0.03780300  1
  C  8  1  0.99289200  0.03323400  0.90803500  1
  C  10  1  0.02693000  0.00356400  0.99925800  1
  C  11  1  0.04543200  0.98745200  0.04532700  1
  C  12  1  0.12970500  0.01735500  0.07173100  1
  C  13  1  0.19021500  0.06373100  0.05304800  1
  C  14  1  0.17924600  0.07924100  0.00713900  1
  C  15  1  0.09566900  0.04875200  0.98018000  1
  C  16  1  0.97435100  0.94416000  0.06391100  1
  C  18  1  0.07725500  0.06210000  0.93415500  1
  C  27  1  0.02549000  0.50308200  0.97117400  1
  C  28  1  0.09515000  0.54956800  0.98768000  1
  C  29  1  0.17493100  0.57983800  0.95874400  1
  C  30  1  0.18219400  0.56087200  0.91330000  1
  C  31  1  0.12057900  0.51350800  0.89697500  1
  C  32  1  0.03978800  0.48464000  0.92549200  1
  C  33  1  0.07989500  0.56547300  0.03344400  1
  C  34  1  0.96915000  0.43971200  0.90939900  1
  C  36  1  0.94176200  0.47444500  0.99982900  1
  C  37  1  0.92751200  0.49288200  0.04551700  1
  C  38  1  0.84672700  0.46402600  0.07404400  1
  C  39  1  0.78506700  0.41668500  0.05770800  1
  C  40  1  0.79235700  0.39767700  0.01227900  1
  C  41  1  0.87211200  0.42795400  0.98332700  1
  C  42  1  0.99828000  0.53775600  0.06162500  1
  C  44  1  0.88746400  0.41201700  0.93757100  1
  C  53  1  0.44659300  0.50536500  0.49899600  1
  C  54  1  0.37982700  0.55026100  0.47862100  1
  C  55  1  0.29839100  0.58276900  0.50491000  1
  C  56  1  0.29083000  0.57118000  0.55167100  1
  C  57  1  0.35401500  0.52685800  0.57258200  1
  C  58  1  0.43051900  0.49283100  0.54591700  1
  C  59  1  0.39801400  0.56125800  0.43213200  1
  C  60  1  0.49667400  0.44829700  0.56542100  1
  C  62  1  0.52908100  0.47253400  0.47292800  1
  C  63  1  0.54501500  0.48501600  0.42599400  1
  C  64  1  0.62126300  0.45089500  0.39930400  1
  C  65  1  0.68461300  0.40663800  0.42021500  1
  C  66  1  0.67725300  0.39512300  0.46699400  1
  C  67  1  0.59588300  0.42764900  0.49329900  1
  C  68  1  0.47891700  0.52956700  0.40649200  1
  C  70  1  0.57771900  0.41665800  0.53979200  1
  C  79  1  0.52803400  0.97322300  0.49948500  1
  C  80  1  0.59826700  0.92790400  0.48129100  1
  C  81  1  0.67659000  0.89560100  0.50930500  1
  C  82  1  0.67965200  0.91079400  0.55567200  1
  C  83  1  0.61217600  0.95485100  0.57477000  1
  C  84  1  0.53784800  0.98740500  0.54629700  1
  C  85  1  0.58545800  0.91536800  0.43473700  1
  C  86  1  0.46849200  0.03204800  0.56388600  1
  C  88  1  0.44747600  0.00472900  0.47154900  1
  C  89  1  0.43752800  0.99050700  0.42475000  1
  C  90  1  0.36298500  0.02298400  0.39629800  1
  C  91  1  0.29563000  0.06709200  0.41539900  1
  C  92  1  0.29890600  0.08234400  0.46174900  1
  C  93  1  0.37728000  0.05005800  0.48974900  1
  C  94  1  0.50689600  0.94586600  0.40716500  1
  C  96  1  0.39005600  0.06259000  0.53630000  1
  C  105  1  0.57071900  0.27516800  0.00722400  1
  C  107  1  0.45465100  0.23299200  0.94715600  1
  C  108  1  0.39517500  0.19672700  0.97785600  1
  C  110  1  0.51059600  0.23843000  0.03802300  1
  C  112  1  0.52686700  0.23706800  0.08182300  1
  C  114  1  0.65488200  0.31598600  0.02200000  1
  C  116  1  0.30660900  0.15741400  0.96497100  1
  C  118  1  0.07452200  0.20350100  0.46868900  1
  C  120  1  0.95642500  0.24422100  0.52875200  1
  C  121  1  0.89639900  0.28034300  0.49812600  1
  C  123  1  0.01376600  0.24007000  0.43793000  1
  C  125  1  0.03001500  0.24177000  0.39411700  1
  C  127  1  0.16092000  0.16386700  0.45384400  1
  C  129  1  0.80708800  0.31921700  0.51100400  1
  C  131  1  0.39664900  0.70228700  0.96408800  1
  C  133  1  0.51211300  0.74436400  0.02437500  1
  C  134  1  0.57185900  0.78069400  0.99380200  1
  C  136  1  0.45700000  0.73910400  0.93342200  1
  C  138  1  0.44106600  0.74056800  0.88960800  1
  C  140  1  0.31265900  0.66147400  0.94915700  1
  C  142  1  0.66032400  0.81997500  0.00685700  1
  C  144  1  0.90114900  0.77448000  0.50262700  1
  C  146  1  0.01982600  0.73368500  0.44276400  1
  C  147  1  0.07955600  0.69760000  0.47350600  1
  C  149  1  0.96161300  0.73795200  0.53350100  1
  C  151  1  0.94507700  0.73635600  0.57730000  1
  C  153  1  0.81452300  0.81409000  0.51731800  1
  C  155  1  0.16896300  0.65870000  0.46078800  1
  C  157  1  0.28616600  0.02657600  0.27411600  1
  C  159  1  0.23122600  0.94850800  0.22712000  1
  C  160  1  0.20747900  0.98533800  0.19076400  1
  C  162  1  0.26125300  0.06367400  0.23764000  1
  C  164  1  0.27074400  0.11822200  0.23885000  1
  C  166  1  0.31653400  0.04556800  0.31761300  1
  C  168  1  0.16361300  0.96799600  0.14857500  1
  C  170  1  0.70396200  0.44903700  0.27736700  1
  C  172  1  0.75499800  0.52916400  0.23183200  1
  C  173  1  0.77724100  0.49397400  0.19429000  1
  C  175  1  0.72665300  0.41361000  0.23961700  1
  C  177  1  0.71569100  0.35911900  0.23939000  1
  C  179  1  0.67651600  0.42845000  0.32076900  1
  C  181  1  0.81955600  0.51330200  0.15235200  1
  C  183  1  0.68643000  0.95089500  0.69716800  1
  C  185  1  0.73882500  0.02895000  0.74458900  1
  C  186  1  0.76169300  0.99206400  0.78098800  1
  C  188  1  0.71038600  0.91374100  0.73369900  1
  C  190  1  0.70139100  0.85917900  0.73233900  1
  C  192  1  0.65763600  0.93198700  0.65349500  1
  C  194  1  0.80416200  0.00939300  0.82338300  1
  C  196  1  0.26873000  0.52842800  0.69428500  1
  C  198  1  0.21559300  0.44832600  0.73950300  1
  C  199  1  0.19199500  0.48351700  0.77692600  1
  C  201  1  0.24478300  0.56385000  0.73192600  1
  C  203  1  0.25581600  0.61833800  0.73223500  1
  C  205  1  0.29772700  0.54905400  0.65104000  1
  C  207  1  0.14810400  0.46423400  0.81864600  1
  H  9  1  0.71611100  0.89281800  0.89905200  1
  H  17  1  0.25118200  0.08456800  0.07286800  1
  H  19  1  0.97956200  0.93376800  0.09733600  1
  H  20  1  0.84219800  0.88427500  0.05315600  1
  H  21  1  0.12494800  0.09313500  0.91878600  1
  H  22  1  0.98773200  0.04362400  0.87461300  1
  H  35  1  0.24244200  0.57891900  0.89186300  1
  H  43  1  0.72488600  0.39862900  0.07917000  1
  H  45  1  0.99369300  0.55053600  0.09457400  1
  H  46  1  0.12797400  0.59790200  0.04699100  1
  H  47  1  0.83944000  0.37956400  0.92403600  1
  H  48  1  0.97381300  0.42692000  0.87644900  1
  H  61  1  0.23097300  0.59357300  0.57060200  1
  H  69  1  0.74420700  0.38414900  0.40123400  1
  H  71  1  0.48764900  0.53935400  0.37281600  1
  H  72  1  0.35333000  0.59291600  0.41620000  1
  H  73  1  0.62242900  0.38499400  0.55571700  1
  H  74  1  0.48787800  0.43848700  0.59908800  1
  H  87  1  0.74186100  0.89282700  0.57601300  1
  H  95  1  0.23333800  0.08507800  0.39510900  1
  H  97  1  0.50198900  0.93502000  0.37358700  1
  H  98  1  0.63306700  0.88345700  0.42018500  1
  H  99  1  0.34244300  0.09449800  0.55085900  1
  H  100  1  0.47333500  0.04287100  0.59747100  1
  H  111  1  0.43570700  0.23208200  0.91322200  1
  H  115  1  0.66880300  0.31655200  0.05614600  1
  H  117  1  0.28246400  0.15486200  0.93163200  1
  H  124  1  0.93694000  0.24470600  0.56264600  1
  H  128  1  0.17796000  0.16542800  0.41994700  1
  H  130  1  0.78347700  0.32229200  0.54438500  1
  H  137  1  0.53076200  0.74519700  0.05833300  1
  H  141  1  0.29904300  0.66092800  0.91499300  1
  H  143  1  0.68423500  0.82246100  0.04022500  1
  H  150  1  0.03961400  0.73314100  0.40889700  1
  H  154  1  0.79707900  0.81248400  0.55118500  1
  H  156  1  0.19281300  0.65556800  0.42743700  1
  H  163  1  0.22000700  0.90604700  0.22407000  1
  H  167  1  0.31321100  0.08782400  0.32393100  1
  H  169  1  0.14155900  0.92698600  0.14280700  1
  H  176  1  0.76560800  0.57176000  0.22986200  1
  H  180  1  0.68228800  0.38617100  0.32662800  1
  H  182  1  0.84342700  0.55432800  0.14782400  1
  H  189  1  0.74954000  0.07142800  0.74776900  1
  H  193  1  0.66137000  0.88975700  0.64709900  1
  H  195  1  0.82573900  0.05043000  0.82928700  1
  H  202  1  0.20472500  0.40574000  0.74140000  1
  H  206  1  0.29218700  0.59134900  0.64522400  1
  H  208  1  0.12466000  0.42315300  0.82316400  1
  N  23  1  0.80379000  0.97132500  0.85721400  1
  N  24  1  0.71149300  0.85591500  0.97670300  1
  N  25  1  0.25567800  0.12152500  0.99523000  1
  N  26  1  0.16369200  0.00596500  0.11466700  1
  N  49  1  0.14936000  0.50041100  0.85377200  1
  N  50  1  0.24547000  0.62391300  0.97350200  1
  N  51  1  0.72184600  0.35356100  0.99757000  1
  N  52  1  0.81810000  0.47705800  0.11727600  1
  N  75  1  0.33940100  0.51569000  0.61750600  1
  N  76  1  0.22178800  0.62419400  0.49154000  1
  N  77  1  0.75393400  0.35373600  0.48035000  1
  N  78  1  0.63524800  0.46187300  0.35433000  1
  N  101  1  0.62107500  0.96655100  0.61984300  1
  N  102  1  0.74922700  0.85288000  0.49340400  1
  N  103  1  0.22639700  0.12508800  0.47768700  1
  N  104  1  0.35342400  0.01108100  0.35127300  1
  N  106  1  0.53828500  0.27004100  0.96273200  1
  N  109  1  0.42767600  0.20179500  0.02209900  1
  N  113  1  0.54087600  0.23601900  0.12045200  1
  N  119  1  0.04119800  0.20781900  0.51312300  1
  N  122  1  0.92941200  0.27586800  0.45390200  1
  N  126  1  0.04397600  0.24302900  0.35548500  1
  N  132  1  0.42865300  0.70733200  0.00863400  1
  N  135  1  0.53975000  0.77571700  0.94950800  1
  N  139  1  0.42733600  0.74171100  0.85096400  1
  N  145  1  0.93488500  0.77010100  0.45824000  1
  N  148  1  0.04613900  0.70214100  0.51768200  1
  N  152  1  0.93088000  0.73519000  0.61592300  1
  N  158  1  0.27018500  0.97047400  0.26699600  1
  N  161  1  0.22433900  0.04117900  0.19798500  1
  N  165  1  0.27891300  0.16632200  0.24000100  1
  N  171  1  0.71860200  0.50545300  0.27142600  1
  N  174  1  0.76078000  0.43782000  0.20017600  1
  N  178  1  0.70577400  0.31107200  0.23920300  1
  N  184  1  0.70152500  0.00701200  0.70447800  1
  N  187  1  0.74567800  0.93620200  0.77358500  1
  N  191  1  0.69362100  0.81106900  0.73105800  1
  N  197  1  0.25359200  0.47202200  0.70011600  1
  N  200  1  0.20895400  0.53965400  0.77114600  1
  N  204  1  0.26577700  0.66638100  0.73249400  1
