# generated using pymatgen
data_H26C39N10
_symmetry_space_group_name_H-M   'P 1'
_cell_length_a   36.88580000
_cell_length_b   36.88590000
_cell_length_c   43.69040000
_cell_angle_alpha   90.00040000
_cell_angle_beta   89.99960000
_cell_angle_gamma   90.00000000
_symmetry_Int_Tables_number   1
_chemical_formula_structural   H26C39N10
_chemical_formula_sum   'H208 C312 N80'
_cell_volume   59443.66971479
_cell_formula_units_Z   8
loop_
 _symmetry_equiv_pos_site_id
 _symmetry_equiv_pos_as_xyz
  1  'x, y, z'
loop_
 _atom_site_type_symbol
 _atom_site_label
 _atom_site_symmetry_multiplicity
 _atom_site_fract_x
 _atom_site_fract_y
 _atom_site_fract_z
 _atom_site_occupancy
  H  25  1  0.05714500  0.17024700  0.25091500  1
  H  26  1  0.99494900  0.15123100  0.24594400  1
  H  27  1  0.92756800  0.14000000  0.24851200  1
  H  28  1  0.86293900  0.14008100  0.25617500  1
  H  29  1  0.87344300  0.22485600  0.32093500  1
  H  30  1  0.02665700  0.24547700  0.31939300  1
  H  31  1  0.95769000  0.17096100  0.35929200  1
  H  32  1  0.95013000  0.23908800  0.43704800  1
  H  33  1  0.94426400  0.29124500  0.40425300  1
  H  34  1  0.94665400  0.27585000  0.26352700  1
  H  35  1  0.94101100  0.33758000  0.36210400  1
  H  36  1  0.93893200  0.37243300  0.31549200  1
  H  39  1  0.81412500  0.15443300  0.29967700  1
  H  40  1  0.81314700  0.20021300  0.31099700  1
  H  42  1  0.08838600  0.24532700  0.30223800  1
  H  43  1  0.09633700  0.22801500  0.26559600  1
  H  45  1  0.98109900  0.17424800  0.43759000  1
  H  46  1  0.96422800  0.14388900  0.41000300  1
  H  48  1  0.91817100  0.36797200  0.25807500  1
  H  49  1  0.93832000  0.33310000  0.23663500  1
  H  74  1  0.83420700  0.72362400  0.25162700  1
  H  75  1  0.89617100  0.74365300  0.24770600  1
  H  76  1  0.96366300  0.75437000  0.24988500  1
  H  77  1  0.02846500  0.75320100  0.25631700  1
  H  78  1  0.01884900  0.66363400  0.31641500  1
  H  79  1  0.86575500  0.64285300  0.31507400  1
  H  80  1  0.93555400  0.71491400  0.35892500  1
  H  81  1  0.94250200  0.64078000  0.43270300  1
  H  82  1  0.94754400  0.59121400  0.39706900  1
  H  83  1  0.94382600  0.61756400  0.25757100  1
  H  84  1  0.94831700  0.54817200  0.35244800  1
  H  85  1  0.94776500  0.51696800  0.30411000  1
  H  88  1  0.07840900  0.73539300  0.29735100  1
  H  89  1  0.07894200  0.68923700  0.30737400  1
  H  91  1  0.80437900  0.64296700  0.29730100  1
  H  92  1  0.79643900  0.66356300  0.26191500  1
  H  94  1  0.91237100  0.70578100  0.43691300  1
  H  95  1  0.92965400  0.73810500  0.41110800  1
  H  97  1  0.94284200  0.56287900  0.22756500  1
  H  98  1  0.92070100  0.52741300  0.24671800  1
  H  123  1  0.72152300  0.05758800  0.74919200  1
  H  124  1  0.74044300  0.99536100  0.74410400  1
  H  125  1  0.75169700  0.92792300  0.74671700  1
  H  126  1  0.75208400  0.86337800  0.75485900  1
  H  127  1  0.66790300  0.87405200  0.82015400  1
  H  128  1  0.64675900  0.02713700  0.81804600  1
  H  129  1  0.72195000  0.95813100  0.85727200  1
  H  130  1  0.65486400  0.95287400  0.93580000  1
  H  131  1  0.60219900  0.94680700  0.90362100  1
  H  132  1  0.61577700  0.94634200  0.76271400  1
  H  133  1  0.55527100  0.94261200  0.86189800  1
  H  134  1  0.51983200  0.93977900  0.81562500  1
  H  137  1  0.73868600  0.81512400  0.79892800  1
  H  138  1  0.69311600  0.81389900  0.81075700  1
  H  140  1  0.64655600  0.08877500  0.80063800  1
  H  141  1  0.66425900  0.09703100  0.76418800  1
  H  143  1  0.72077300  0.98260700  0.93522100  1
  H  144  1  0.74995800  0.96436900  0.90739100  1
  H  146  1  0.52355000  0.91798400  0.75841800  1
  H  147  1  0.55819700  0.93769100  0.73643100  1
  H  172  1  0.16848000  0.83431000  0.75356100  1
  H  173  1  0.14842000  0.89620100  0.74911600  1
  H  174  1  0.13755300  0.96367100  0.75082100  1
  H  175  1  0.13873400  0.02855600  0.75667800  1
  H  176  1  0.22788900  0.01962300  0.81728400  1
  H  177  1  0.24855900  0.86649300  0.81741000  1
  H  178  1  0.17665100  0.93623900  0.86058700  1
  H  179  1  0.25067500  0.94546200  0.93426200  1
  H  180  1  0.30018100  0.95046700  0.89856300  1
  H  181  1  0.27398000  0.94353300  0.75914300  1
  H  182  1  0.34326000  0.95040400  0.85397200  1
  H  183  1  0.37451100  0.94894800  0.80566600  1
  H  186  1  0.15645400  0.07906100  0.79734200  1
  H  187  1  0.20264300  0.07969400  0.80733200  1
  H  189  1  0.24831200  0.80480800  0.80045500  1
  H  190  1  0.22868400  0.79670500  0.76469600  1
  H  192  1  0.18654600  0.91422000  0.93887600  1
  H  193  1  0.15369900  0.93010700  0.91289300  1
  H  195  1  0.32871400  0.94208500  0.72917800  1
  H  196  1  0.36419000  0.92047800  0.74875700  1
  H  221  1  0.86548000  0.14126900  0.75277600  1
  H  222  1  0.93011500  0.14290700  0.76025300  1
  H  223  1  0.99759300  0.15421600  0.76101100  1
  H  224  1  0.05977900  0.17214100  0.75340800  1
  H  225  1  0.02777600  0.24015900  0.68020900  1
  H  226  1  0.87467100  0.21887800  0.68176700  1
  H  227  1  0.95798800  0.16129200  0.64801600  1
  H  228  1  0.95339100  0.21979900  0.56471900  1
  H  229  1  0.94711400  0.27560400  0.59275000  1
  H  230  1  0.95002500  0.27755700  0.73405800  1
  H  231  1  0.94318300  0.32668300  0.63060000  1
  H  232  1  0.94304400  0.36719000  0.67380400  1
  H  235  1  0.08969000  0.24235600  0.69703100  1
  H  236  1  0.09921800  0.22697100  0.73399800  1
  H  238  1  0.81723400  0.14950500  0.70756700  1
  H  239  1  0.81487600  0.19402100  0.69328700  1
  H  241  1  0.96325600  0.12802000  0.60070800  1
  H  242  1  0.98320200  0.15326800  0.57110900  1
  H  244  1  0.97166200  0.36960600  0.72997700  1
  H  245  1  0.95206600  0.33850700  0.75564600  1
  H  270  1  0.02898800  0.75665400  0.75053500  1
  H  271  1  0.96429600  0.75636100  0.75789600  1
  H  272  1  0.89699100  0.74404500  0.76070900  1
  H  273  1  0.83515400  0.72368200  0.75617500  1
  H  274  1  0.86673600  0.64853900  0.68798800  1
  H  275  1  0.01951500  0.67119300  0.68630400  1
  H  276  1  0.93465900  0.72492600  0.64804400  1
  H  277  1  0.94071900  0.65746800  0.56979300  1
  H  278  1  0.94771600  0.60510100  0.60218700  1
  H  279  1  0.94713200  0.61970400  0.74303200  1
  H  280  1  0.95339300  0.55849600  0.64426700  1
  H  281  1  0.95658600  0.52350700  0.69076500  1
  H  284  1  0.80542800  0.64686900  0.70610400  1
  H  285  1  0.79705300  0.66528800  0.74227700  1
  H  287  1  0.07879600  0.74137700  0.70770700  1
  H  288  1  0.07989200  0.69515300  0.69748000  1
  H  290  1  0.92854400  0.75266200  0.59803500  1
  H  291  1  0.91003800  0.72346600  0.57035800  1
  H  293  1  0.95547700  0.56291100  0.76975700  1
  H  294  1  0.97692700  0.52833900  0.74892400  1
  H  319  1  0.14199100  0.02879000  0.25246000  1
  H  320  1  0.14313800  0.96419000  0.26010500  1
  H  321  1  0.15384900  0.89663900  0.26103900  1
  H  322  1  0.17119600  0.83426200  0.25355900  1
  H  323  1  0.24001700  0.86551500  0.18067000  1
  H  324  1  0.22003800  0.01882800  0.18186600  1
  H  325  1  0.16197300  0.93672100  0.14804400  1
  H  326  1  0.22118000  0.93864800  0.06502800  1
  H  327  1  0.27688300  0.94411100  0.09327300  1
  H  328  1  0.27781500  0.94370000  0.23460100  1
  H  329  1  0.32772400  0.94821000  0.13131400  1
  H  330  1  0.36793100  0.94868800  0.17471300  1
  H  333  1  0.24137800  0.80358300  0.19741300  1
  H  334  1  0.22589500  0.79428500  0.23439700  1
  H  336  1  0.15081800  0.07681000  0.20715900  1
  H  337  1  0.19540700  0.07879300  0.19304300  1
  H  339  1  0.12888800  0.93222000  0.10071000  1
  H  340  1  0.15344600  0.91132800  0.07117700  1
  H  342  1  0.36981200  0.92132300  0.23132500  1
  H  343  1  0.33860500  0.94159100  0.25651800  1
  H  368  1  0.75766300  0.86493500  0.24957000  1
  H  369  1  0.75738900  0.92966800  0.25661200  1
  H  370  1  0.74463800  0.99680400  0.25960100  1
  H  371  1  0.72389100  0.05851800  0.25527600  1
  H  372  1  0.64836600  0.02664900  0.18747600  1
  H  373  1  0.67134300  0.87386000  0.18610200  1
  H  374  1  0.72470500  0.95974300  0.14710200  1
  H  375  1  0.65695300  0.95126000  0.06919400  1
  H  376  1  0.60489500  0.94368800  0.10188000  1
  H  377  1  0.62021100  0.94663600  0.24264600  1
  H  378  1  0.55857300  0.93835000  0.14417600  1
  H  379  1  0.52384200  0.93557700  0.19083100  1
  H  382  1  0.64676400  0.08803300  0.20544200  1
  H  383  1  0.66505000  0.09627800  0.24168900  1
  H  385  1  0.74153700  0.81466900  0.20711100  1
  H  386  1  0.69498300  0.81345400  0.19790000  1
  H  388  1  0.75181900  0.96694900  0.09675600  1
  H  389  1  0.72150100  0.98391400  0.06920300  1
  H  391  1  0.56359100  0.93811300  0.26965200  1
  H  392  1  0.52896000  0.91633200  0.24913000  1
  H  399  1  0.20319900  0.16144100  0.24419500  1
  H  403  1  0.10154000  0.18450700  0.32354900  1
  H  405  1  0.21835500  0.09600400  0.23869500  1
  H  412  1  0.69563300  0.73482000  0.23814100  1
  H  416  1  0.78902400  0.70020100  0.32276600  1
  H  418  1  0.67835800  0.80389600  0.24828800  1
  H  425  1  0.73275700  0.20319800  0.74385900  1
  H  429  1  0.70703100  0.10160600  0.82255100  1
  H  431  1  0.79858500  0.21733900  0.73919400  1
  H  438  1  0.15965100  0.69470900  0.74032200  1
  H  442  1  0.19007600  0.78980600  0.82475700  1
  H  444  1  0.09101100  0.67700000  0.74712200  1
  H  451  1  0.68911700  0.73156100  0.76195600  1
  H  455  1  0.79066600  0.70635000  0.68316300  1
  H  457  1  0.67302400  0.79787300  0.76357900  1
  H  464  1  0.20663800  0.15858100  0.75330000  1
  H  468  1  0.10146800  0.18051400  0.67754900  1
  H  470  1  0.22049300  0.09241000  0.75891000  1
  H  477  1  0.15869300  0.68582600  0.25248100  1
  H  481  1  0.17907300  0.79259000  0.17810200  1
  H  483  1  0.09321000  0.67149500  0.25944100  1
  H  490  1  0.73158500  0.20331100  0.26294800  1
  H  494  1  0.70609600  0.10324800  0.18264300  1
  H  496  1  0.79847200  0.21977400  0.26312400  1
  H  503  1  0.00308400  0.42019600  0.29294100  1
  H  507  1  0.99206700  0.52829100  0.22307500  1
  H  509  1  0.99235200  0.36028900  0.23765400  1
  H  516  1  0.47194100  0.00337000  0.79282400  1
  H  520  1  0.36286500  0.99157300  0.72417200  1
  H  522  1  0.53114100  0.99180600  0.73704700  1
  H  529  1  0.89236400  0.42644800  0.69739300  1
  H  533  1  0.90411000  0.53097100  0.77061500  1
  H  535  1  0.89648900  0.36352500  0.75101100  1
  H  542  1  0.42655500  0.00007300  0.19731900  1
  H  546  1  0.53164100  0.98948700  0.27007300  1
  H  548  1  0.36412400  0.99681500  0.25141900  1
  H  555  1  0.89629900  0.20658800  0.48351600  1
  H  559  1  0.91333200  0.12118000  0.57247800  1
  H  561  1  0.90835000  0.14389700  0.43068500  1
  H  568  1  0.99391900  0.67025800  0.48307600  1
  H  572  1  0.98155900  0.75503100  0.57298400  1
  H  574  1  0.98634200  0.73426600  0.43062500  1
  H  581  1  0.68083300  0.89906800  0.97783900  1
  H  585  1  0.75432700  0.91235600  0.07386000  1
  H  587  1  0.75095000  0.91023500  0.93058100  1
  H  594  1  0.21508100  0.99807900  0.98692100  1
  H  598  1  0.12269100  0.98107600  0.07112700  1
  H  600  1  0.15699100  0.98774400  0.93087900  1
  C  1  1  0.94633900  0.26878700  0.31147600  1
  C  2  1  0.94478000  0.28668500  0.33969500  1
  C  3  1  0.94749000  0.26119800  0.36293100  1
  C  4  1  0.95137600  0.22675500  0.34986400  1
  C  5  1  0.95490800  0.19604800  0.36896400  1
  C  6  1  0.95434600  0.20019200  0.40127300  1
  C  7  1  0.95042600  0.23543500  0.41382500  1
  C  8  1  0.94703200  0.26603200  0.39483700  1
  C  9  1  0.94182500  0.32462600  0.34143900  1
  C  10  1  0.94073500  0.34479100  0.31412600  1
  C  11  1  0.94228900  0.32742100  0.28520200  1
  C  12  1  0.94492100  0.28904000  0.28406000  1
  C  13  1  0.98396800  0.21445700  0.30086900  1
  C  14  1  0.97503800  0.18725000  0.27986900  1
  C  15  1  0.93776900  0.18224500  0.28031500  1
  C  16  1  0.92241600  0.20660700  0.30120600  1
  C  17  1  0.91621600  0.15779900  0.26366400  1
  C  18  1  0.87848900  0.15802500  0.26828100  1
  C  19  1  0.86211400  0.18254600  0.28912500  1
  C  20  1  0.88449100  0.20692900  0.30571700  1
  C  21  1  0.02044900  0.22529300  0.30422900  1
  C  22  1  0.04793400  0.20887100  0.28617700  1
  C  23  1  0.03800700  0.18174400  0.26479000  1
  C  24  1  0.00171500  0.17055900  0.26170000  1
  C  37  1  0.95093700  0.22909300  0.31590700  1
  C  38  1  0.82206100  0.18185700  0.29281500  1
  C  41  1  0.08644100  0.22073900  0.28838100  1
  C  44  1  0.95804100  0.16888900  0.42245900  1
  C  47  1  0.94176300  0.34998700  0.25703800  1
  C  50  1  0.94532500  0.62087500  0.30575600  1
  C  51  1  0.94668300  0.60080000  0.33291000  1
  C  52  1  0.94469000  0.62447300  0.35752000  1
  C  53  1  0.94122300  0.65990600  0.34640500  1
  C  54  1  0.93811600  0.68910200  0.36717400  1
  C  55  1  0.93870100  0.68243300  0.39917400  1
  C  56  1  0.94221400  0.64624000  0.40973500  1
  C  57  1  0.94514800  0.61714800  0.38908300  1
  C  58  1  0.94807900  0.56272300  0.33254200  1
  C  59  1  0.94777000  0.54468600  0.30418100  1
  C  60  1  0.94672700  0.56425400  0.27625500  1
  C  61  1  0.94557200  0.60272900  0.27728700  1
  C  62  1  0.90798800  0.67605300  0.29862800  1
  C  63  1  0.91659300  0.70499900  0.27925800  1
  C  64  1  0.95388900  0.70984600  0.27949100  1
  C  65  1  0.96955600  0.68372300  0.29863500  1
  C  66  1  0.97523400  0.73538400  0.26384700  1
  C  67  1  0.01306800  0.73449300  0.26771100  1
  C  68  1  0.02974100  0.70832300  0.28688700  1
  C  69  1  0.00757300  0.68283900  0.30248300  1
  C  70  1  0.87164900  0.66453600  0.30136400  1
  C  71  1  0.84395800  0.68203100  0.28429800  1
  C  72  1  0.85348000  0.71124200  0.26480900  1
  C  73  1  0.88964800  0.72303300  0.26232700  1
  C  86  1  0.94122000  0.66019300  0.31239600  1
  C  87  1  0.06988500  0.70839100  0.28983000  1
  C  90  1  0.80578400  0.66889000  0.28524300  1
  C  93  1  0.93545600  0.71205400  0.42206500  1
  C  96  1  0.94527700  0.54404500  0.24682100  1
  C  99  1  0.62343600  0.94681100  0.81059600  1
  C  100  1  0.60589200  0.94581400  0.83899400  1
  C  101  1  0.63168500  0.94888600  0.86196200  1
  C  102  1  0.66596900  0.95229100  0.84851800  1
  C  103  1  0.69697800  0.95584000  0.86724900  1
  C  104  1  0.69331300  0.95585400  0.89960000  1
  C  105  1  0.65819600  0.95267600  0.91255000  1
  C  106  1  0.62730100  0.94916500  0.89391700  1
  C  107  1  0.56796400  0.94303200  0.84110900  1
  C  108  1  0.54746100  0.94148400  0.81399100  1
  C  109  1  0.56447600  0.94247100  0.78489700  1
  C  110  1  0.60284300  0.94498900  0.78338200  1
  C  111  1  0.67752700  0.98441900  0.79927300  1
  C  112  1  0.70457000  0.97545400  0.77814100  1
  C  113  1  0.70967500  0.93819500  0.77871300  1
  C  114  1  0.68559000  0.92290800  0.79986900  1
  C  115  1  0.73408000  0.91661800  0.76204600  1
  C  116  1  0.73412600  0.87894000  0.76693900  1
  C  117  1  0.70994900  0.86264100  0.78810900  1
  C  118  1  0.68556000  0.88503700  0.80468000  1
  C  119  1  0.66675000  0.02090200  0.80270900  1
  C  120  1  0.68306900  0.04837400  0.78458800  1
  C  121  1  0.71003600  0.03843400  0.76306200  1
  C  122  1  0.72114000  0.00212300  0.75988300  1
  C  135  1  0.66318000  0.95145800  0.81460000  1
  C  136  1  0.71108700  0.82266300  0.79224700  1
  C  139  1  0.67128600  0.08689200  0.78695500  1
  C  142  1  0.72509200  0.95911500  0.92033200  1
  C  145  1  0.54156700  0.94151600  0.75693700  1
  C  148  1  0.27061500  0.94609000  0.80729600  1
  C  149  1  0.29065200  0.94820200  0.83443500  1
  C  150  1  0.26697100  0.94648700  0.85905500  1
  C  151  1  0.23157600  0.94246300  0.84798000  1
  C  152  1  0.20242400  0.93932400  0.86879400  1
  C  153  1  0.20908800  0.94049800  0.90079000  1
  C  154  1  0.24521900  0.94474600  0.91130000  1
  C  155  1  0.27427700  0.94764400  0.89060900  1
  C  156  1  0.32872600  0.94972600  0.83406600  1
  C  157  1  0.34679300  0.94885000  0.80572600  1
  C  158  1  0.32725200  0.94709000  0.77781100  1
  C  159  1  0.28878500  0.94580300  0.77883900  1
  C  160  1  0.21552000  0.90855000  0.80042700  1
  C  161  1  0.18676300  0.91694600  0.78079100  1
  C  162  1  0.18183800  0.95423100  0.78075900  1
  C  163  1  0.20781800  0.97011600  0.79991200  1
  C  164  1  0.15642000  0.97539700  0.76480400  1
  C  165  1  0.15731600  0.01327800  0.76833500  1
  C  166  1  0.18339400  0.03017000  0.78746300  1
  C  167  1  0.20872700  0.00818000  0.80340500  1
  C  168  1  0.22703300  0.87224600  0.80348300  1
  C  169  1  0.20968900  0.84437600  0.78651100  1
  C  170  1  0.18071700  0.85370500  0.76670800  1
  C  171  1  0.16891300  0.88983500  0.76391300  1
  C  184  1  0.23131000  0.94195300  0.81396800  1
  C  185  1  0.18344300  0.07035600  0.78993300  1
  C  188  1  0.22273700  0.80618600  0.78788000  1
  C  191  1  0.17958400  0.93685200  0.92375200  1
  C  194  1  0.34749600  0.94501100  0.74842300  1
  C  197  1  0.94783800  0.26447900  0.68704100  1
  C  198  1  0.94618700  0.27880600  0.65739600  1
  C  199  1  0.94875700  0.25063600  0.63647800  1
  C  200  1  0.95223500  0.21795100  0.65247900  1
  C  201  1  0.95557500  0.18506800  0.63615800  1
  C  202  1  0.95563300  0.18523600  0.60364700  1
  C  203  1  0.95278100  0.21886700  0.58810400  1
  C  204  1  0.94916400  0.25160800  0.60432000  1
  C  205  1  0.94392000  0.31635700  0.65229900  1
  C  206  1  0.94385500  0.33983200  0.67765600  1
  C  207  1  0.94595900  0.32618200  0.70795400  1
  C  208  1  0.94776100  0.28810600  0.71250200  1
  C  209  1  0.92390100  0.20374700  0.70286800  1
  C  210  1  0.93964400  0.18182100  0.72542000  1
  C  211  1  0.97691900  0.18684200  0.72502600  1
  C  212  1  0.98544300  0.21156000  0.70183300  1
  C  213  1  0.00400800  0.17190800  0.74384300  1
  C  214  1  0.04028100  0.18240300  0.73919600  1
  C  215  1  0.04972900  0.20719100  0.71573100  1
  C  216  1  0.02185900  0.22180400  0.69702500  1
  C  217  1  0.88596800  0.20303600  0.69843700  1
  C  218  1  0.86397900  0.18010600  0.71679300  1
  C  219  1  0.88072700  0.15821900  0.73943400  1
  C  220  1  0.91846300  0.15901700  0.74395900  1
  C  233  1  0.95216400  0.22441900  0.68605400  1
  C  234  1  0.08819300  0.21855200  0.71187000  1
  C  237  1  0.82403100  0.17774100  0.71275600  1
  C  240  1  0.95903000  0.15126300  0.58554200  1
  C  243  1  0.94791000  0.35236100  0.73376300  1
  C  246  1  0.94725500  0.62694000  0.69513200  1
  C  247  1  0.94878400  0.60921200  0.66683500  1
  C  248  1  0.94530300  0.63479100  0.64372200  1
  C  249  1  0.94130400  0.66909700  0.65700200  1
  C  250  1  0.93733500  0.69994600  0.63815400  1
  C  251  1  0.93735500  0.69611200  0.60581900  1
  C  252  1  0.94095800  0.66095500  0.59302000  1
  C  253  1  0.94502100  0.63022500  0.61178200  1
  C  254  1  0.95248200  0.57133800  0.66497900  1
  C  255  1  0.95420600  0.55108700  0.69223600  1
  C  256  1  0.95230200  0.56827800  0.72122400  1
  C  257  1  0.94904100  0.60660200  0.72246900  1
  C  258  1  0.97027100  0.68944600  0.70555500  1
  C  259  1  0.95459900  0.71379700  0.72628700  1
  C  260  1  0.91740800  0.70818300  0.72688500  1
  C  261  1  0.90886600  0.68065700  0.70607000  1
  C  262  1  0.89050900  0.72447600  0.74507900  1
  C  263  1  0.85443500  0.71248500  0.74226100  1
  C  264  1  0.84494700  0.68491400  0.72113500  1
  C  265  1  0.87261900  0.66898900  0.70299200  1
  C  266  1  0.00822400  0.68930800  0.70123600  1
  C  267  1  0.03032100  0.71389500  0.71786200  1
  C  268  1  0.01361400  0.73862500  0.73835400  1
  C  269  1  0.97585600  0.73861200  0.74281700  1
  C  282  1  0.94204100  0.66656500  0.69092000  1
  C  283  1  0.80675600  0.67199800  0.71930600  1
  C  286  1  0.07046700  0.71420900  0.71494200  1
  C  289  1  0.93369500  0.72781500  0.58504100  1
  C  292  1  0.95290400  0.54575500  0.74942700  1
  C  295  1  0.26508700  0.94509800  0.18749300  1
  C  296  1  0.27963700  0.94611500  0.15790700  1
  C  297  1  0.25157600  0.94369100  0.13687900  1
  C  298  1  0.21872100  0.94106900  0.15274700  1
  C  299  1  0.18588200  0.93836100  0.13628200  1
  C  300  1  0.18625400  0.93798400  0.10376700  1
  C  301  1  0.22006900  0.93966700  0.08839000  1
  C  302  1  0.25276800  0.94276300  0.10473600  1
  C  303  1  0.31724500  0.94789600  0.15296700  1
  C  304  1  0.34054100  0.94816200  0.17843800  1
  C  305  1  0.32666300  0.94677400  0.20868900  1
  C  306  1  0.28853700  0.94543200  0.21307100  1
  C  307  1  0.20445900  0.96977700  0.20303100  1
  C  308  1  0.18225500  0.95427300  0.22551100  1
  C  309  1  0.18693000  0.91695500  0.22520200  1
  C  310  1  0.21171100  0.90816000  0.20213400  1
  C  311  1  0.17159200  0.89002900  0.24396000  1
  C  312  1  0.18175900  0.85364600  0.23939300  1
  C  313  1  0.20661500  0.84393200  0.21606100  1
  C  314  1  0.22162800  0.87163700  0.19740600  1
  C  315  1  0.20404200  0.00770800  0.19851300  1
  C  316  1  0.18111800  0.02992400  0.21669100  1
  C  317  1  0.15896600  0.01339800  0.23926800  1
  C  318  1  0.15948800  0.97568000  0.24390000  1
  C  331  1  0.22497800  0.94128100  0.18635400  1
  C  332  1  0.21759400  0.80535100  0.21225100  1
  C  335  1  0.17897800  0.06986800  0.21249900  1
  C  338  1  0.15226700  0.93560900  0.08554400  1
  C  341  1  0.35264600  0.94522600  0.23465800  1
  C  344  1  0.62720600  0.94594700  0.19472200  1
  C  345  1  0.60935400  0.94378300  0.16651100  1
  C  346  1  0.63476500  0.94723200  0.14326600  1
  C  347  1  0.66908200  0.95194400  0.15637100  1
  C  348  1  0.69972800  0.95637900  0.13735600  1
  C  349  1  0.69567500  0.95602100  0.10504600  1
  C  350  1  0.66055900  0.95137100  0.09241800  1
  C  351  1  0.63002100  0.94695700  0.11134500  1
  C  352  1  0.57151100  0.93968700  0.16483000  1
  C  353  1  0.55140800  0.93820700  0.19217500  1
  C  354  1  0.56872900  0.94068800  0.22107600  1
  C  355  1  0.60703000  0.94428800  0.22215200  1
  C  356  1  0.68986200  0.92327400  0.20486500  1
  C  357  1  0.71441300  0.93910200  0.22534200  1
  C  358  1  0.70867400  0.97626500  0.22590500  1
  C  359  1  0.68086400  0.98466400  0.20531500  1
  C  360  1  0.72491600  0.00320600  0.24408600  1
  C  361  1  0.71270200  0.03921000  0.24138700  1
  C  362  1  0.68494100  0.04859200  0.22040500  1
  C  363  1  0.66899200  0.02085800  0.20233100  1
  C  364  1  0.68966700  0.88528400  0.20077800  1
  C  365  1  0.71445400  0.86332500  0.21732200  1
  C  366  1  0.73950900  0.88021500  0.23742500  1
  C  367  1  0.73948800  0.91799100  0.24172300  1
  C  380  1  0.66677200  0.95139100  0.19030500  1
  C  381  1  0.67186300  0.08673800  0.21869100  1
  C  384  1  0.71459500  0.82313600  0.21481500  1
  C  387  1  0.72702900  0.96064800  0.08405000  1
  C  390  1  0.54633500  0.94039000  0.24935700  1
  C  393  1  0.12779100  0.16676500  0.28482900  1
  C  395  1  0.17982100  0.15262500  0.25426900  1
  C  396  1  0.16970700  0.11575600  0.25336900  1
  C  398  1  0.11750300  0.12976300  0.28388100  1
  C  400  1  0.08935000  0.11690600  0.29803300  1
  C  406  1  0.76516400  0.72318200  0.28499100  1
  C  408  1  0.71732200  0.74190200  0.25138200  1
  C  409  1  0.72633600  0.77854700  0.25637200  1
  C  411  1  0.77454900  0.76006600  0.28951900  1
  C  413  1  0.80098200  0.77066400  0.30698500  1
  C  419  1  0.72568900  0.12760900  0.78406000  1
  C  421  1  0.74104800  0.17958800  0.75386100  1
  C  422  1  0.77776400  0.16891200  0.75331400  1
  C  424  1  0.76255200  0.11679700  0.78350100  1
  C  426  1  0.77477300  0.08839500  0.79770100  1
  C  432  1  0.16876400  0.76508300  0.78665500  1
  C  434  1  0.15184300  0.71653800  0.75310300  1
  C  435  1  0.11494300  0.72546100  0.75671000  1
  C  437  1  0.13165200  0.77432000  0.78988000  1
  C  439  1  0.12011500  0.80090500  0.80674200  1
  C  445  1  0.76460700  0.72531100  0.72150800  1
  C  447  1  0.71244900  0.74014900  0.75167000  1
  C  448  1  0.72223300  0.77710900  0.75146900  1
  C  450  1  0.77451900  0.76243100  0.72134800  1
  C  452  1  0.80258900  0.77497000  0.70688000  1
  C  458  1  0.12879900  0.16414100  0.71610900  1
  C  460  1  0.18229500  0.15004600  0.74480800  1
  C  461  1  0.17120500  0.11359600  0.74754100  1
  C  463  1  0.11748200  0.12758700  0.71900900  1
  C  465  1  0.08813800  0.11486800  0.70659900  1
  C  471  1  0.16329700  0.76449800  0.21649000  1
  C  473  1  0.14986700  0.71026100  0.24440400  1
  C  474  1  0.11339500  0.72107800  0.24770600  1
  C  476  1  0.12672200  0.77553200  0.21991200  1
  C  478  1  0.11368600  0.80507700  0.20809500  1
  C  484  1  0.72520600  0.12883900  0.22115900  1
  C  486  1  0.74012700  0.18024700  0.25221300  1
  C  487  1  0.77711700  0.17063700  0.25150400  1
  C  489  1  0.76235600  0.11904700  0.22061000  1
  C  491  1  0.77485900  0.09129100  0.20569400  1
  C  497  1  0.97519000  0.48359100  0.24497800  1
  C  499  1  0.99066500  0.43089100  0.27408800  1
  C  500  1  0.97451800  0.40842400  0.25190000  1
  C  502  1  0.95860400  0.46100000  0.22275700  1
  C  504  1  0.94379100  0.47341400  0.19793100  1
  C  510  1  0.40789800  0.97490300  0.74573100  1
  C  512  1  0.46098900  0.99071400  0.77419200  1
  C  513  1  0.48314900  0.97430100  0.75192200  1
  C  515  1  0.43018100  0.95807800  0.72341700  1
  C  517  1  0.41741700  0.94294500  0.69885600  1
  C  523  1  0.92061200  0.48639100  0.74824200  1
  C  525  1  0.90407300  0.43574200  0.71707700  1
  C  526  1  0.91729700  0.41161400  0.73940200  1
  C  528  1  0.93438200  0.46213700  0.77057600  1
  C  530  1  0.94827000  0.47286800  0.79632300  1
  C  536  1  0.48690300  0.97260300  0.24813000  1
  C  538  1  0.43600600  0.98868400  0.21708600  1
  C  539  1  0.41205600  0.97576400  0.23967500  1
  C  541  1  0.46283100  0.95912600  0.27072700  1
  C  543  1  0.47377000  0.94559000  0.29654800  1
  C  549  1  0.92788500  0.14908400  0.53498900  1
  C  551  1  0.90975400  0.18441000  0.49171600  1
  C  552  1  0.92630000  0.15942000  0.47177200  1
  C  554  1  0.94480800  0.12403900  0.51493200  1
  C  556  1  0.96103400  0.09490400  0.52440500  1
  C  562  1  0.96552000  0.72906400  0.53479200  1
  C  564  1  0.98184100  0.69316400  0.49137500  1
  C  565  1  0.96721800  0.71944000  0.47154300  1
  C  567  1  0.95041700  0.75537200  0.51487000  1
  C  569  1  0.93588300  0.78529700  0.52453600  1
  C  575  1  0.73286100  0.92900700  0.03393300  1
  C  577  1  0.70235900  0.91179700  0.98789100  1
  C  578  1  0.73011500  0.92749100  0.97019700  1
  C  580  1  0.76075200  0.94499700  0.01616200  1
  C  582  1  0.78909100  0.96030100  0.02811400  1
  C  588  1  0.15341700  0.96708400  0.03511800  1
  C  590  1  0.19215200  0.98490100  0.99387400  1
  C  591  1  0.16845800  0.96882900  0.97257000  1
  C  593  1  0.12969500  0.95060000  0.01369600  1
  C  595  1  0.09972000  0.93467800  0.02152300  1
  N  394  1  0.15886000  0.17633700  0.27013900  1
  N  397  1  0.13903800  0.10602100  0.26855800  1
  N  401  1  0.06436000  0.10560200  0.31044800  1
  N  402  1  0.11092500  0.19382200  0.30287400  1
  N  404  1  0.19179200  0.08804200  0.24092200  1
  N  407  1  0.73657300  0.71592400  0.26626700  1
  N  410  1  0.75451500  0.78598900  0.27536000  1
  N  414  1  0.82457100  0.78004700  0.32218000  1
  N  415  1  0.78020700  0.69351800  0.30120600  1
  N  417  1  0.70569400  0.80789200  0.24535100  1
  N  420  1  0.71680800  0.15892400  0.76943400  1
  N  423  1  0.78683500  0.13803900  0.76850000  1
  N  427  1  0.78550900  0.06318700  0.81015900  1
  N  428  1  0.69811200  0.11116600  0.80180700  1
  N  430  1  0.80599100  0.19059200  0.74122000  1
  N  433  1  0.17702800  0.73624000  0.76852100  1
  N  436  1  0.10650100  0.75389400  0.77512900  1
  N  440  1  0.10991000  0.82461800  0.82141600  1
  N  441  1  0.19762600  0.78075300  0.80347100  1
  N  443  1  0.08626600  0.70433000  0.74506000  1
  N  446  1  0.73360900  0.71602900  0.73644100  1
  N  449  1  0.75277300  0.78656500  0.73599400  1
  N  453  1  0.82751800  0.78600900  0.69421200  1
  N  454  1  0.78158700  0.69772600  0.70414700  1
  N  456  1  0.69993200  0.80505200  0.76311500  1
  N  459  1  0.16105600  0.17351100  0.72894200  1
  N  462  1  0.13933900  0.10399600  0.73416800  1
  N  466  1  0.06210800  0.10368100  0.69572700  1
  N  467  1  0.11173600  0.19064100  0.69764500  1
  N  469  1  0.19343300  0.08585900  0.75966500  1
  N  472  1  0.17301500  0.73201200  0.22870300  1
  N  475  1  0.10346300  0.75320700  0.23495500  1
  N  479  1  0.10220800  0.83127200  0.19773100  1
  N  480  1  0.18943900  0.78210100  0.19802900  1
  N  482  1  0.08595600  0.69838900  0.25976400  1
  N  485  1  0.71594500  0.15940200  0.23673600  1
  N  488  1  0.78655700  0.14052400  0.23545400  1
  N  492  1  0.78588000  0.06661600  0.19266200  1
  N  493  1  0.69752600  0.11212200  0.20370600  1
  N  495  1  0.80508200  0.19271900  0.26335500  1
  N  498  1  0.99068400  0.46730600  0.26963100  1
  N  501  1  0.95928500  0.42448200  0.22697600  1
  N  505  1  0.93065400  0.48445500  0.17601400  1
  N  506  1  0.97868800  0.52176300  0.24293400  1
  N  508  1  0.97651300  0.37041500  0.25498500  1
  N  511  1  0.42452000  0.99069000  0.77008900  1
  N  514  1  0.46675300  0.95877500  0.72728300  1
  N  518  1  0.40606300  0.92952700  0.67717400  1
  N  519  1  0.36970500  0.97838100  0.74404400  1
  N  521  1  0.52119400  0.97627500  0.75464600  1
  N  524  1  0.90584300  0.47192100  0.72249700  1
  N  527  1  0.93188000  0.42587200  0.76536700  1
  N  531  1  0.96059700  0.48243600  0.81905400  1
  N  532  1  0.91862500  0.52452400  0.75131300  1
  N  534  1  0.91383000  0.37391900  0.73486100  1
  N  537  1  0.47223100  0.98697900  0.22230800  1
  N  540  1  0.42652500  0.96154400  0.26569900  1
  N  544  1  0.48351600  0.93357500  0.31934200  1
  N  545  1  0.52505800  0.97465500  0.25097700  1
  N  547  1  0.37432600  0.97925000  0.23535400  1
  N  550  1  0.91087100  0.17810900  0.52230400  1
  N  553  1  0.94305700  0.13006100  0.48425700  1
  N  557  1  0.97538100  0.06916700  0.53285400  1
  N  558  1  0.92545300  0.14544400  0.56719300  1
  N  560  1  0.92361600  0.16447900  0.43985800  1
  N  563  1  0.98073000  0.69912600  0.52200200  1
  N  566  1  0.95215300  0.74963600  0.48415200  1
  N  570  1  0.92301900  0.81173800  0.53313700  1
  N  571  1  0.96771900  0.73193800  0.56702100  1
  N  573  1  0.96992400  0.71448400  0.43963600  1
  N  576  1  0.70490200  0.91299200  0.01885400  1
  N  579  1  0.75833400  0.94339200  0.98512700  1
  N  583  1  0.81413000  0.97384000  0.03873300  1
  N  584  1  0.73221300  0.92663800  0.06623100  1
  N  586  1  0.72893300  0.92480900  0.93801600  1
  N  589  1  0.18353700  0.98378400  0.02405500  1
  N  592  1  0.13799100  0.95244400  0.98340800  1
  N  596  1  0.07323300  0.92059200  0.02850600  1
  N  597  1  0.14745000  0.96928500  0.06709800  1
  N  599  1  0.17608900  0.97144500  0.94102100  1
