# generated using pymatgen
data_Zn5P4H9(CO3)8
_symmetry_space_group_name_H-M   'P 1'
_cell_length_a   10.10583000
_cell_length_b   10.97895000
_cell_length_c   12.81714000
_cell_angle_alpha   93.45809000
_cell_angle_beta   96.30910000
_cell_angle_gamma   102.27502000
_symmetry_Int_Tables_number   1
_chemical_formula_structural   Zn5P4H9(CO3)8
_chemical_formula_sum   'Zn10 P8 H18 C16 O48'
_cell_volume   1376.01640407
_cell_formula_units_Z   2
loop_
 _symmetry_equiv_pos_site_id
 _symmetry_equiv_pos_as_xyz
  1  'x, y, z'
loop_
 _atom_site_type_symbol
 _atom_site_label
 _atom_site_symmetry_multiplicity
 _atom_site_fract_x
 _atom_site_fract_y
 _atom_site_fract_z
 _atom_site_occupancy
  Zn  Zn0  1  0.60917000  0.79528000  0.67576000  1
  Zn  Zn1  1  0.95672000  0.71811000  0.98608000  1
  Zn  Zn2  1  0.38839000  0.69362000  0.32052000  1
  Zn  Zn3  1  0.91631000  0.56589000  0.41615000  1
  Zn  Zn4  1  0.08871000  0.93535000  0.57961000  1
  Zn  Zn5  1  0.39083000  0.20472000  0.32424000  1
  Zn  Zn6  1  0.04328000  0.28189000  0.01393000  1
  Zn  Zn7  1  0.61161000  0.30638000  0.67948000  1
  Zn  Zn8  1  0.08370000  0.43411000  0.58386000  1
  Zn  Zn9  1  0.91129000  0.06465000  0.42039000  1
  P  P10  1  0.84039000  0.93475000  0.87868000  1
  P  P11  1  0.15733000  0.56294000  0.11542000  1
  P  P12  1  0.77534000  0.78883000  0.47616000  1
  P  P13  1  0.22550000  0.70914000  0.52094000  1
  P  P14  1  0.15961000  0.06525000  0.12132000  1
  P  P15  1  0.84267000  0.43706000  0.88458000  1
  P  P16  1  0.22467000  0.21118000  0.52384000  1
  P  P17  1  0.77451000  0.29086000  0.47906000  1
  H  H18  1  0.76407000  0.10713000  0.87808000  1
  H  H19  1  0.00302000  0.11090000  0.72984000  1
  H  H20  1  0.99675000  0.38589000  0.25840000  1
  H  H21  1  0.62386000  0.58502000  0.31720000  1
  H  H22  1  0.37806000  0.91371000  0.68143000  1
  H  H23  1  0.07749000  0.01361000  0.86545000  1
  H  H24  1  0.92081000  0.48019000  0.12607000  1
  H  H25  1  0.76067000  0.76534000  0.28494000  1
  H  H26  1  0.23477000  0.73458000  0.71074000  1
  H  H27  1  0.23593000  0.89287000  0.12193000  1
  H  H28  1  0.99698000  0.88910000  0.27016000  1
  H  H29  1  0.00325000  0.61411000  0.74161000  1
  H  H30  1  0.37614000  0.41498000  0.68280000  1
  H  H31  1  0.62194000  0.08629000  0.31857000  1
  H  H32  1  0.92251000  0.98639000  0.13455000  1
  H  H33  1  0.07919000  0.51981000  0.87393000  1
  H  H34  1  0.23933000  0.23466000  0.71507000  1
  H  H35  1  0.76524000  0.26542000  0.28926000  1
  C  C36  1  0.99346000  0.95865000  0.80798000  1
  C  C37  1  0.02695000  0.83362000  0.77781000  1
  C  C38  1  0.99878000  0.53820000  0.18701000  1
  C  C39  1  0.96530000  0.66267000  0.21524000  1
  C  C40  1  0.68514000  0.77176000  0.33937000  1
  C  C41  1  0.62334000  0.88268000  0.31648000  1
  C  C42  1  0.31302000  0.72655000  0.65911000  1
  C  C43  1  0.37110000  0.61389000  0.68310000  1
  C  C44  1  0.00654000  0.04135000  0.19202000  1
  C  C45  1  0.97306000  0.16638000  0.22219000  1
  C  C46  1  0.00122000  0.46180000  0.81299000  1
  C  C47  1  0.03471000  0.33733000  0.78477000  1
  C  C48  1  0.31487000  0.22824000  0.66063000  1
  C  C49  1  0.37667000  0.11732000  0.68353000  1
  C  C50  1  0.68699000  0.27346000  0.34090000  1
  C  C51  1  0.62890000  0.38611000  0.31691000  1
  O  O52  1  0.71259000  0.87904000  0.80366000  1
  O  O53  1  0.83234000  0.07422000  0.92091000  1
  O  O54  1  0.87020000  0.86742000  0.97535000  1
  O  O55  1  0.97375000  0.01973000  0.71417000  1
  O  O56  1  0.03958000  0.75579000  0.84569000  1
  O  O57  1  0.04089000  0.80644000  0.68241000  1
  O  O58  1  0.11453000  0.62980000  0.01967000  1
  O  O59  1  0.27227000  0.64943000  0.19024000  1
  O  O60  1  0.18047000  0.43212000  0.08964000  1
  O  O61  1  0.01721000  0.47723000  0.27920000  1
  O  O62  1  0.96608000  0.69726000  0.31208000  1
  O  O63  1  0.93875000  0.73297000  0.14424000  1
  O  O64  1  0.81283000  0.66499000  0.49833000  1
  O  O65  1  0.90339000  0.89701000  0.47637000  1
  O  O66  1  0.67275000  0.82510000  0.54467000  1
  O  O67  1  0.57989000  0.66073000  0.32730000  1
  O  O68  1  0.70574000  0.98802000  0.31273000  1
  O  O69  1  0.49438000  0.86783000  0.30212000  1
  O  O70  1  0.09534000  0.60353000  0.52288000  1
  O  O71  1  0.19325000  0.83485000  0.49728000  1
  O  O72  1  0.32702000  0.66688000  0.45420000  1
  O  O73  1  0.41974000  0.83584000  0.67259000  1
  O  O74  1  0.28689000  0.50986000  0.68775000  1
  O  O75  1  0.49972000  0.62496000  0.69692000  1
  O  O76  1  0.28742000  0.12096000  0.19634000  1
  O  O77  1  0.16766000  0.92578000  0.07909000  1
  O  O78  1  0.12980000  0.13258000  0.02465000  1
  O  O79  1  0.02625000  0.98027000  0.28583000  1
  O  O80  1  0.96043000  0.24421000  0.15431000  1
  O  O81  1  0.95911000  0.19356000  0.31759000  1
  O  O82  1  0.88547000  0.37020000  0.98033000  1
  O  O83  1  0.72773000  0.35057000  0.80976000  1
  O  O84  1  0.81953000  0.56788000  0.91037000  1
  O  O85  1  0.98280000  0.52277000  0.72080000  1
  O  O86  1  0.03392000  0.30274000  0.68792000  1
  O  O87  1  0.06125000  0.26703000  0.85577000  1
  O  O88  1  0.18718000  0.33501000  0.50167000  1
  O  O89  1  0.09661000  0.10299000  0.52364000  1
  O  O90  1  0.32725000  0.17490000  0.45533000  1
  O  O91  1  0.42012000  0.33927000  0.67270000  1
  O  O92  1  0.29426000  0.01198000  0.68727000  1
  O  O93  1  0.50562000  0.13217000  0.69789000  1
  O  O94  1  0.90466000  0.39647000  0.47712000  1
  O  O95  1  0.80675000  0.16515000  0.50272000  1
  O  O96  1  0.67298000  0.33312000  0.54580000  1
  O  O97  1  0.58026000  0.16416000  0.32741000  1
  O  O98  1  0.71311000  0.49014000  0.31225000  1
  O  O99  1  0.50028000  0.37504000  0.30308000  1
