# generated using pymatgen
data_H7C18N2O3
_symmetry_space_group_name_H-M   'P 1'
_cell_length_a   22.79765000
_cell_length_b   22.79765000
_cell_length_c   27.40460000
_cell_angle_alpha   89.70100000
_cell_angle_beta   89.70100000
_cell_angle_gamma   89.99840000
_symmetry_Int_Tables_number   1
_chemical_formula_structural   H7C18N2O3
_chemical_formula_sum   'H112 C288 N32 O48'
_cell_volume   14242.68285893
_cell_formula_units_Z   16
loop_
 _symmetry_equiv_pos_site_id
 _symmetry_equiv_pos_as_xyz
  1  'x, y, z'
loop_
 _atom_site_type_symbol
 _atom_site_label
 _atom_site_symmetry_multiplicity
 _atom_site_fract_x
 _atom_site_fract_y
 _atom_site_fract_z
 _atom_site_occupancy
  C  1  1  0.70109900  0.08342350  0.02748600  1
  C  2  1  0.67807700  0.12567750  0.05988700  1
  C  3  1  0.68654300  0.12067100  0.11070800  1
  C  4  1  0.71732100  0.07117050  0.12930000  1
  C  5  1  0.74075400  0.02877150  0.09719200  1
  C  6  1  0.73226700  0.03515550  0.04657500  1
  C  9  1  0.70564000  0.09546100  0.97692200  1
  C  10  1  0.73571200  0.14646500  0.96177000  1
  C  11  1  0.74870000  0.15641550  0.91223900  1
  C  12  1  0.73100900  0.11499650  0.87706200  1
  C  13  1  0.70229800  0.06210900  0.89154900  1
  C  14  1  0.69005900  0.05328400  0.94171700  1
  C  21  1  0.51017100  0.12893250  0.52839400  1
  C  22  1  0.53349400  0.08508350  0.55934200  1
  C  23  1  0.52652400  0.08835300  0.61043000  1
  C  24  1  0.49730600  0.13769500  0.63077000  1
  C  25  1  0.47392300  0.18182450  0.60010700  1
  C  26  1  0.48072100  0.17717650  0.54916500  1
  C  29  1  0.50416700  0.11889150  0.47777700  1
  C  30  1  0.47308000  0.06884100  0.46256000  1
  C  31  1  0.45939000  0.06058500  0.41314400  1
  C  32  1  0.47752600  0.10266450  0.37814900  1
  C  33  1  0.50734600  0.15462750  0.39273800  1
  C  34  1  0.52001100  0.16187950  0.44284000  1
  C  41  1  0.08406200  0.51248900  0.77861250  1
  C  42  1  0.12681900  0.53543300  0.81039800  1
  C  43  1  0.12190000  0.52789150  0.86138000  1
  C  44  1  0.07201700  0.49823950  0.88075800  1
  C  45  1  0.02898600  0.47507200  0.84929300  1
  C  46  1  0.03527000  0.48261500  0.79848400  1
  C  49  1  0.09592400  0.50667950  0.72815500  1
  C  50  1  0.14647800  0.47561700  0.71364400  1
  C  51  1  0.15646400  0.46206050  0.66434900  1
  C  52  1  0.11554200  0.48007850  0.62874200  1
  C  53  1  0.06294600  0.50958900  0.64261650  1
  C  54  1  0.05407000  0.52237900  0.69259000  1
  C  61  1  0.12985200  0.70291950  0.27722100  1
  C  62  1  0.08645900  0.67940350  0.30871300  1
  C  63  1  0.08968000  0.68727950  0.35966200  1
  C  64  1  0.13855200  0.71770150  0.37932400  1
  C  65  1  0.18215400  0.74135750  0.34809800  1
  C  66  1  0.17754200  0.73366200  0.29731700  1
  C  69  1  0.11969100  0.70780000  0.22649100  1
  C  70  1  0.06919300  0.73790200  0.21065400  1
  C  71  1  0.06095100  0.75111400  0.16101100  1
  C  72  1  0.10353200  0.73335150  0.12644700  1
  C  73  1  0.15584500  0.70444150  0.14163400  1
  C  74  1  0.16304200  0.69223350  0.19191200  1
  C  81  1  0.78548100  0.99025350  0.11261600  1
  C  82  1  0.77565100  0.92977000  0.11944000  1
  C  84  1  0.87851600  0.91207200  0.12821600  1
  C  85  1  0.89108100  0.97264550  0.12136700  1
  C  86  1  0.84364900  0.01131100  0.11391600  1
  C  88  1  0.92479900  0.87179150  0.13476700  1
  C  89  1  0.95598900  0.77322250  0.14966600  1
  C  90  1  0.01540000  0.79025750  0.14844400  1
  C  91  1  0.02889300  0.84990850  0.14032400  1
  C  94  1  0.98392000  0.89167550  0.13373400  1
  C  95  1  0.99607900  0.95196550  0.12686300  1
  C  96  1  0.94990200  0.99226750  0.12092600  1
  C  101  1  0.43085600  0.22114050  0.61752400  1
  C  102  1  0.43995400  0.28227550  0.61770700  1
  C  104  1  0.33840700  0.29976750  0.63442700  1
  C  105  1  0.32652300  0.23855250  0.63459800  1
  C  106  1  0.37369300  0.19972850  0.62646400  1
  C  108  1  0.29219300  0.34015150  0.64089700  1
  C  109  1  0.26042400  0.43977700  0.64757750  1
  C  110  1  0.20161100  0.42194100  0.65318600  1
  C  111  1  0.18869300  0.36145050  0.65282450  1
  C  114  1  0.23369700  0.31958400  0.64689300  1
  C  115  1  0.22218200  0.25865700  0.64707450  1
  C  116  1  0.26837100  0.21835300  0.64115300  1
  C  121  1  0.98978800  0.43121400  0.86570300  1
  C  122  1  0.92886100  0.44087250  0.86885700  1
  C  124  1  0.91100000  0.33850450  0.88151100  1
  C  125  1  0.97200900  0.32606900  0.87840300  1
  C  126  1  0.01094500  0.37334750  0.87082600  1
  C  128  1  0.87048700  0.29229650  0.88782000  1
  C  129  1  0.77106500  0.26104050  0.89831300  1
  C  130  1  0.78846200  0.20178950  0.90037500  1
  C  131  1  0.84868100  0.18839550  0.89629100  1
  C  134  1  0.89066800  0.23333650  0.89026150  1
  C  135  1  0.95138900  0.22128800  0.88711600  1
  C  136  1  0.99186300  0.26742500  0.88143500  1
  C  141  1  0.22063800  0.78541350  0.36461100  1
  C  142  1  0.28153500  0.77605050  0.36829600  1
  C  144  1  0.29847600  0.87833050  0.38118500  1
  C  145  1  0.23747600  0.89046400  0.37766000  1
  C  146  1  0.19900000  0.84306100  0.36973000  1
  C  148  1  0.33857800  0.92465350  0.38788100  1
  C  149  1  0.43759000  0.95618300  0.39908000  1
  C  150  1  0.41985400  0.01531300  0.40123700  1
  C  151  1  0.35968500  0.02852350  0.39674500  1
  C  154  1  0.31804800  0.98347550  0.39031500  1
  C  155  1  0.25733400  0.99522950  0.38676100  1
  C  156  1  0.21724300  0.94895600  0.38068500  1
  C  161  1  0.66470300  0.16481100  0.14243300  1
  C  162  1  0.60394500  0.17631200  0.14461600  1
  C  164  1  0.61329000  0.21764550  0.22412600  1
  C  165  1  0.67541300  0.21330100  0.22166300  1
  C  166  1  0.70062100  0.18896850  0.17915800  1
  C  168  1  0.58531400  0.22535050  0.26960900  1
  C  169  1  0.49736100  0.20983050  0.31529300  1
  C  170  1  0.52986800  0.19525900  0.35743300  1
  C  171  1  0.59039700  0.20938350  0.35706400  1
  C  174  1  0.61923000  0.22439150  0.31293200  1
  C  175  1  0.68104100  0.22854300  0.30960400  1
  C  176  1  0.70913300  0.22425350  0.26384400  1
  C  181  1  0.54869700  0.04298200  0.64091800  1
  C  182  1  0.60976400  0.03336750  0.64298100  1
  C  184  1  0.60074900  0.99288950  0.72330200  1
  C  185  1  0.53855900  0.99475150  0.72067900  1
  C  186  1  0.51301700  0.01760050  0.67776100  1
  C  188  1  0.62838300  0.98751750  0.76897900  1
  C  189  1  0.71496000  0.00784450  0.81430500  1
  C  190  1  0.68128300  0.02143250  0.85620700  1
  C  191  1  0.62135000  0.00503250  0.85601800  1
  C  194  1  0.59380100  0.98789950  0.81224400  1
  C  195  1  0.53227500  0.98109350  0.80896100  1
  C  196  1  0.50469600  0.98331900  0.76309200  1
  C  201  1  0.16657500  0.54934850  0.89253700  1
  C  202  1  0.17814400  0.61007150  0.89440300  1
  C  204  1  0.21968700  0.60016500  0.97388700  1
  C  205  1  0.21533200  0.53805650  0.97167800  1
  C  206  1  0.19077200  0.51314700  0.92935800  1
  C  208  1  0.22744500  0.62781750  0.01926100  1
  C  209  1  0.21188000  0.71551550  0.06465200  1
  C  210  1  0.19708400  0.68252100  0.10677400  1
  C  211  1  0.21150000  0.62207150  0.10673400  1
  C  214  1  0.22662400  0.59359750  0.06271500  1
  C  215  1  0.23084100  0.53181600  0.05961300  1
  C  216  1  0.22641700  0.50404450  0.01397000  1
  C  221  1  0.04478500  0.66469600  0.39065100  1
  C  222  1  0.03540000  0.60357550  0.39312800  1
  C  224  1  0.99480700  0.61216050  0.47335400  1
  C  225  1  0.99651300  0.67436150  0.47036200  1
  C  226  1  0.01923700  0.70013350  0.42727300  1
  C  228  1  0.98931500  0.58432200  0.51917300  1
  C  229  1  0.00925300  0.49752450  0.56507500  1
  C  230  1  0.02275600  0.53098050  0.60683200  1
  C  231  1  0.00649500  0.59096050  0.60620800  1
  C  234  1  0.98954600  0.61871750  0.56223600  1
  C  235  1  0.98270800  0.68025400  0.55859400  1
  C  236  1  0.98494900  0.70803000  0.51256800  1
  C  961  1  0.21859300  0.08342350  0.02748600  1
  C  962  1  0.19557100  0.12567750  0.05988700  1
  C  963  1  0.20403700  0.12067100  0.11070800  1
  C  964  1  0.23481500  0.07117050  0.12930000  1
  C  965  1  0.25824800  0.02877150  0.09719200  1
  C  966  1  0.24976100  0.03515550  0.04657500  1
  C  969  1  0.22313400  0.09546100  0.97692200  1
  C  970  1  0.25320600  0.14646500  0.96177000  1
  C  971  1  0.26619400  0.15641550  0.91223900  1
  C  972  1  0.24850300  0.11499650  0.87706200  1
  C  973  1  0.21979200  0.06210900  0.89154900  1
  C  974  1  0.20755300  0.05328400  0.94171700  1
  C  981  1  0.02766500  0.12893250  0.52839400  1
  C  982  1  0.05098800  0.08508350  0.55934200  1
  C  983  1  0.04401800  0.08835300  0.61043000  1
  C  984  1  0.01480000  0.13769500  0.63077000  1
  C  985  1  0.99141706  0.18182450  0.60010700  1
  C  986  1  0.99821506  0.17717650  0.54916500  1
  C  989  1  0.02166100  0.11889150  0.47777700  1
  C  990  1  0.99057406  0.06884100  0.46256000  1
  C  991  1  0.97688410  0.06058500  0.41314400  1
  C  992  1  0.99502006  0.10266450  0.37814900  1
  C  993  1  0.02484000  0.15462750  0.39273800  1
  C  994  1  0.03750500  0.16187950  0.44284000  1
  C  1001  1  0.60155600  0.51248900  0.77861250  1
  C  1002  1  0.64431300  0.53543300  0.81039800  1
  C  1003  1  0.63939400  0.52789150  0.86138000  1
  C  1004  1  0.58951100  0.49823950  0.88075800  1
  C  1005  1  0.54648000  0.47507200  0.84929300  1
  C  1006  1  0.55276400  0.48261500  0.79848400  1
  C  1009  1  0.61341800  0.50667950  0.72815500  1
  C  1010  1  0.66397200  0.47561700  0.71364400  1
  C  1011  1  0.67395800  0.46206050  0.66434900  1
  C  1012  1  0.63303600  0.48007850  0.62874200  1
  C  1013  1  0.58044000  0.50958900  0.64261650  1
  C  1014  1  0.57156400  0.52237900  0.69259000  1
  C  1021  1  0.64734600  0.70291950  0.27722100  1
  C  1022  1  0.60395300  0.67940350  0.30871300  1
  C  1023  1  0.60717400  0.68727950  0.35966200  1
  C  1024  1  0.65604600  0.71770150  0.37932400  1
  C  1025  1  0.69964800  0.74135750  0.34809800  1
  C  1026  1  0.69503600  0.73366200  0.29731700  1
  C  1029  1  0.63718500  0.70780000  0.22649100  1
  C  1030  1  0.58668700  0.73790200  0.21065400  1
  C  1031  1  0.57844500  0.75111400  0.16101100  1
  C  1032  1  0.62102600  0.73335150  0.12644700  1
  C  1033  1  0.67333900  0.70444150  0.14163400  1
  C  1034  1  0.68053600  0.69223350  0.19191200  1
  C  1041  1  0.30297500  0.99025350  0.11261600  1
  C  1042  1  0.29314500  0.92977000  0.11944000  1
  C  1044  1  0.39601000  0.91207200  0.12821600  1
  C  1045  1  0.40857500  0.97264550  0.12136700  1
  C  1046  1  0.36114300  0.01131100  0.11391600  1
  C  1048  1  0.44229300  0.87179150  0.13476700  1
  C  1049  1  0.47348300  0.77322250  0.14966600  1
  C  1050  1  0.53289400  0.79025750  0.14844400  1
  C  1051  1  0.54638700  0.84990850  0.14032400  1
  C  1054  1  0.50141400  0.89167550  0.13373400  1
  C  1055  1  0.51357300  0.95196550  0.12686300  1
  C  1056  1  0.46739600  0.99226750  0.12092600  1
  C  1061  1  0.94835010  0.22114050  0.61752400  1
  C  1062  1  0.95744810  0.28227550  0.61770700  1
  C  1064  1  0.85590110  0.29976750  0.63442700  1
  C  1065  1  0.84401710  0.23855250  0.63459800  1
  C  1066  1  0.89118710  0.19972850  0.62646400  1
  C  1068  1  0.80968710  0.34015150  0.64089700  1
  C  1069  1  0.77791800  0.43977700  0.64757750  1
  C  1070  1  0.71910500  0.42194100  0.65318600  1
  C  1071  1  0.70618700  0.36145050  0.65282450  1
  C  1074  1  0.75119100  0.31958400  0.64689300  1
  C  1075  1  0.73967600  0.25865700  0.64707450  1
  C  1076  1  0.78586500  0.21835300  0.64115300  1
  C  1081  1  0.50728200  0.43121400  0.86570300  1
  C  1082  1  0.44635500  0.44087250  0.86885700  1
  C  1084  1  0.42849400  0.33850450  0.88151100  1
  C  1085  1  0.48950300  0.32606900  0.87840300  1
  C  1086  1  0.52843900  0.37334750  0.87082600  1
  C  1088  1  0.38798100  0.29229650  0.88782000  1
  C  1089  1  0.28855900  0.26104050  0.89831300  1
  C  1090  1  0.30595600  0.20178950  0.90037500  1
  C  1091  1  0.36617500  0.18839550  0.89629100  1
  C  1094  1  0.40816200  0.23333650  0.89026150  1
  C  1095  1  0.46888300  0.22128800  0.88711600  1
  C  1096  1  0.50935700  0.26742500  0.88143500  1
  C  1101  1  0.73813200  0.78541350  0.36461100  1
  C  1102  1  0.79902900  0.77605050  0.36829600  1
  C  1104  1  0.81597010  0.87833050  0.38118500  1
  C  1105  1  0.75497000  0.89046400  0.37766000  1
  C  1106  1  0.71649400  0.84306100  0.36973000  1
  C  1108  1  0.85607210  0.92465350  0.38788100  1
  C  1109  1  0.95508410  0.95618300  0.39908000  1
  C  1110  1  0.93734810  0.01531300  0.40123700  1
  C  1111  1  0.87717910  0.02852350  0.39674500  1
  C  1114  1  0.83554210  0.98347550  0.39031500  1
  C  1115  1  0.77482800  0.99522950  0.38676100  1
  C  1116  1  0.73473700  0.94895600  0.38068500  1
  C  1121  1  0.18219700  0.16481100  0.14243300  1
  C  1122  1  0.12143900  0.17631200  0.14461600  1
  C  1124  1  0.13078400  0.21764550  0.22412600  1
  C  1125  1  0.19290700  0.21330100  0.22166300  1
  C  1126  1  0.21811500  0.18896850  0.17915800  1
  C  1128  1  0.10280800  0.22535050  0.26960900  1
  C  1129  1  0.01485500  0.20983050  0.31529300  1
  C  1130  1  0.04736200  0.19525900  0.35743300  1
  C  1131  1  0.10789100  0.20938350  0.35706400  1
  C  1134  1  0.13672400  0.22439150  0.31293200  1
  C  1135  1  0.19853500  0.22854300  0.30960400  1
  C  1136  1  0.22662700  0.22425350  0.26384400  1
  C  1141  1  0.06619100  0.04298200  0.64091800  1
  C  1142  1  0.12725800  0.03336750  0.64298100  1
  C  1144  1  0.11824300  0.99288950  0.72330200  1
  C  1145  1  0.05605300  0.99475150  0.72067900  1
  C  1146  1  0.03051100  0.01760050  0.67776100  1
  C  1148  1  0.14587700  0.98751750  0.76897900  1
  C  1149  1  0.23245400  0.00784450  0.81430500  1
  C  1150  1  0.19877700  0.02143250  0.85620700  1
  C  1151  1  0.13884400  0.00503250  0.85601800  1
  C  1154  1  0.11129500  0.98789950  0.81224400  1
  C  1155  1  0.04976900  0.98109350  0.80896100  1
  C  1156  1  0.02219000  0.98331900  0.76309200  1
  C  1161  1  0.68406900  0.54934850  0.89253700  1
  C  1162  1  0.69563800  0.61007150  0.89440300  1
  C  1164  1  0.73718100  0.60016500  0.97388700  1
  C  1165  1  0.73282600  0.53805650  0.97167800  1
  C  1166  1  0.70826600  0.51314700  0.92935800  1
  C  1168  1  0.74493900  0.62781750  0.01926100  1
  C  1169  1  0.72937400  0.71551550  0.06465200  1
  C  1170  1  0.71457800  0.68252100  0.10677400  1
  C  1171  1  0.72899400  0.62207150  0.10673400  1
  C  1174  1  0.74411800  0.59359750  0.06271500  1
  C  1175  1  0.74833500  0.53181600  0.05961300  1
  C  1176  1  0.74391100  0.50404450  0.01397000  1
  C  1181  1  0.56227900  0.66469600  0.39065100  1
  C  1182  1  0.55289400  0.60357550  0.39312800  1
  C  1184  1  0.51230100  0.61216050  0.47335400  1
  C  1185  1  0.51400700  0.67436150  0.47036200  1
  C  1186  1  0.53673100  0.70013350  0.42727300  1
  C  1188  1  0.50680900  0.58432200  0.51917300  1
  C  1189  1  0.52674700  0.49752450  0.56507500  1
  C  1190  1  0.54025000  0.53098050  0.60683200  1
  C  1191  1  0.52398900  0.59096050  0.60620800  1
  C  1194  1  0.50704000  0.61871750  0.56223600  1
  C  1195  1  0.50020200  0.68025400  0.55859400  1
  C  1196  1  0.50244300  0.70803000  0.51256800  1
  H  7  1  0.65779400  0.16225650  0.04603800  1
  H  16  1  0.67004000  0.01526350  0.95298900  1
  H  17  1  0.69122800  0.04533250  0.19141900  1
  H  18  1  0.70589000  0.14663550  0.81669700  1
  H  19  1  0.75392900  0.00746550  0.02317800  1
  H  20  1  0.75167100  0.17494400  0.98738500  1
  H  27  1  0.55268200  0.04865600  0.54434100  1
  H  36  1  0.54107300  0.19906850  0.45420700  1
  H  37  1  0.52581600  0.16086700  0.69245000  1
  H  38  1  0.50199700  0.07169750  0.31740200  1
  H  39  1  0.45910300  0.20620000  0.52682900  1
  H  40  1  0.45708200  0.03978500  0.48809300  1
  H  47  1  0.16369300  0.55483450  0.79604550  1
  H  56  1  0.01632700  0.54308650  0.70345500  1
  H  57  1  0.04698700  0.52561800  0.94249100  1
  H  58  1  0.14781400  0.50436650  0.56815900  1
  H  59  1  0.00715400  0.46098700  0.77561100  1
  H  60  1  0.17473300  0.45967550  0.73957500  1
  H  67  1  0.05036700  0.65931150  0.29414200  1
  H  76  1  0.20054000  0.67190300  0.20367700  1
  H  77  1  0.16238000  0.69058100  0.44149800  1
  H  78  1  0.07335400  0.70794550  0.06590000  1
  H  79  1  0.20617700  0.75539600  0.27452500  1
  H  80  1  0.03990700  0.75384300  0.23589100  1
  H  87  1  0.85153700  0.05492800  0.10736900  1
  H  92  1  0.73434800  0.91249950  0.11746600  1
  H  97  1  0.07183700  0.86318550  0.14093400  1
  H  98  1  0.94425400  0.73065400  0.15644600  1
  H  107  1  0.36593800  0.15552150  0.62435900  1
  H  112  1  0.48023400  0.29974700  0.60984300  1
  H  117  1  0.14623900  0.34792350  0.65808350  1
  H  118  1  0.27176500  0.48314300  0.64858800  1
  H  127  1  0.05495000  0.36539950  0.86668950  1
  H  132  1  0.91156100  0.48183350  0.86388200  1
  H  137  1  0.86203800  0.14559250  0.89921800  1
  H  138  1  0.72798800  0.27270450  0.90215600  1
  H  147  1  0.15505200  0.85079100  0.36525300  1
  H  152  1  0.29921100  0.73527650  0.36336600  1
  H  157  1  0.34609300  0.07123100  0.39961300  1
  H  158  1  0.48064400  0.94464950  0.40310500  1
  H  167  1  0.74476600  0.18061650  0.17827900  1
  H  172  1  0.57581500  0.15920250  0.11946600  1
  H  177  1  0.61549400  0.19830900  0.38657800  1
  H  178  1  0.45330600  0.20177850  0.31354500  1
  H  187  1  0.46876100  0.02533500  0.67700200  1
  H  192  1  0.63762900  0.05211800  0.61804600  1
  H  197  1  0.59560800  0.01515450  0.88552000  1
  H  198  1  0.75867500  0.01766300  0.81256700  1
  H  207  1  0.18216300  0.46905000  0.92875800  1
  H  212  1  0.16090500  0.63836600  0.86919700  1
  H  217  1  0.20033500  0.59674550  0.13631000  1
  H  218  1  0.20300000  0.75939550  0.06256100  1
  H  227  1  0.02661600  0.74444750  0.42617500  1
  H  232  1  0.05417600  0.57585750  0.36833600  1
  H  237  1  0.01648300  0.61658950  0.63558400  1
  H  238  1  0.01881000  0.45375900  0.56364500  1
  H  967  1  0.17528800  0.16225650  0.04603800  1
  H  976  1  0.18753400  0.01526350  0.95298900  1
  H  977  1  0.20872200  0.04533250  0.19141900  1
  H  978  1  0.22338400  0.14663550  0.81669700  1
  H  979  1  0.27142300  0.00746550  0.02317800  1
  H  980  1  0.26916500  0.17494400  0.98738500  1
  H  987  1  0.07017600  0.04865600  0.54434100  1
  H  996  1  0.05856700  0.19906850  0.45420700  1
  H  997  1  0.04331000  0.16086700  0.69245000  1
  H  998  1  0.01949100  0.07169750  0.31740200  1
  H  999  1  0.97659710  0.20620000  0.52682900  1
  H  1000  1  0.97457610  0.03978500  0.48809300  1
  H  1007  1  0.68118700  0.55483450  0.79604550  1
  H  1016  1  0.53382100  0.54308650  0.70345500  1
  H  1017  1  0.56448100  0.52561800  0.94249100  1
  H  1018  1  0.66530800  0.50436650  0.56815900  1
  H  1019  1  0.52464800  0.46098700  0.77561100  1
  H  1020  1  0.69222700  0.45967550  0.73957500  1
  H  1027  1  0.56786100  0.65931150  0.29414200  1
  H  1036  1  0.71803400  0.67190300  0.20367700  1
  H  1037  1  0.67987400  0.69058100  0.44149800  1
  H  1038  1  0.59084800  0.70794550  0.06590000  1
  H  1039  1  0.72367100  0.75539600  0.27452500  1
  H  1040  1  0.55740100  0.75384300  0.23589100  1
  H  1047  1  0.36903100  0.05492800  0.10736900  1
  H  1052  1  0.25184200  0.91249950  0.11746600  1
  H  1057  1  0.58933100  0.86318550  0.14093400  1
  H  1058  1  0.46174800  0.73065400  0.15644600  1
  H  1067  1  0.88343210  0.15552150  0.62435900  1
  H  1072  1  0.99772806  0.29974700  0.60984300  1
  H  1077  1  0.66373300  0.34792350  0.65808350  1
  H  1078  1  0.78925900  0.48314300  0.64858800  1
  H  1087  1  0.57244400  0.36539950  0.86668950  1
  H  1092  1  0.42905500  0.48183350  0.86388200  1
  H  1097  1  0.37953200  0.14559250  0.89921800  1
  H  1098  1  0.24548200  0.27270450  0.90215600  1
  H  1107  1  0.67254600  0.85079100  0.36525300  1
  H  1112  1  0.81670510  0.73527650  0.36336600  1
  H  1117  1  0.86358710  0.07123100  0.39961300  1
  H  1118  1  0.99813806  0.94464950  0.40310500  1
  H  1127  1  0.26226000  0.18061650  0.17827900  1
  H  1132  1  0.09330900  0.15920250  0.11946600  1
  H  1137  1  0.13298800  0.19830900  0.38657800  1
  H  1138  1  0.97080010  0.20177850  0.31354500  1
  H  1147  1  0.98625506  0.02533500  0.67700200  1
  H  1152  1  0.15512300  0.05211800  0.61804600  1
  H  1157  1  0.11310200  0.01515450  0.88552000  1
  H  1158  1  0.27616900  0.01766300  0.81256700  1
  H  1167  1  0.69965700  0.46905000  0.92875800  1
  H  1172  1  0.67839900  0.63836600  0.86919700  1
  H  1177  1  0.71782900  0.59674550  0.13631000  1
  H  1178  1  0.72049400  0.75939550  0.06256100  1
  H  1187  1  0.54411000  0.74444750  0.42617500  1
  H  1192  1  0.57167000  0.57585750  0.36833600  1
  H  1197  1  0.53397700  0.61658950  0.63558400  1
  H  1198  1  0.53630400  0.45375900  0.56364500  1
  N  83  1  0.82181500  0.89339950  0.12710000  1
  N  93  1  0.91345200  0.81388550  0.14255000  1
  N  103  1  0.39416800  0.31885500  0.62619100  1
  N  113  1  0.30296000  0.39886900  0.64142050  1
  N  123  1  0.89219900  0.39491200  0.87677500  1
  N  133  1  0.81203000  0.30353300  0.89184800  1
  N  143  1  0.31772800  0.82211150  0.37651800  1
  N  153  1  0.39698200  0.91361250  0.39225300  1
  N  163  1  0.58067000  0.20030650  0.18540200  1
  N  173  1  0.52610000  0.22011250  0.27284200  1
  N  183  1  0.63326200  0.01095300  0.68430100  1
  N  193  1  0.68725500  0.99551200  0.77210800  1
  N  203  1  0.20225300  0.63305400  0.93505800  1
  N  213  1  0.22198200  0.68698800  0.02230800  1
  N  223  1  0.01300200  0.57984300  0.43456400  1
  N  233  1  0.99717100  0.52541900  0.52266900  1
  N  1043  1  0.33930900  0.89339950  0.12710000  1
  N  1053  1  0.43094600  0.81388550  0.14255000  1
  N  1063  1  0.91166210  0.31885500  0.62619100  1
  N  1073  1  0.82045410  0.39886900  0.64142050  1
  N  1083  1  0.40969300  0.39491200  0.87677500  1
  N  1093  1  0.32952400  0.30353300  0.89184800  1
  N  1103  1  0.83522210  0.82211150  0.37651800  1
  N  1113  1  0.91447610  0.91361250  0.39225300  1
  N  1123  1  0.09816400  0.20030650  0.18540200  1
  N  1133  1  0.04359400  0.22011250  0.27284200  1
  N  1143  1  0.15075600  0.01095300  0.68430100  1
  N  1153  1  0.20474900  0.99551200  0.77210800  1
  N  1163  1  0.71974700  0.63305400  0.93505800  1
  N  1173  1  0.73947600  0.68698800  0.02230800  1
  N  1183  1  0.53049600  0.57984300  0.43456400  1
  N  1193  1  0.51466500  0.52541900  0.52266900  1
  O  8  1  0.72668200  0.06426750  0.17815800  1
  O  15  1  0.74178500  0.12804550  0.82917400  1
  O  28  1  0.48967800  0.14290450  0.68001000  1
  O  35  1  0.46651400  0.09081500  0.33028300  1
  O  48  1  0.06535300  0.48972000  0.92982300  1
  O  55  1  0.12878800  0.46876650  0.58107300  1
  O  68  1  0.14383100  0.72623250  0.42838300  1
  O  75  1  0.09186700  0.74380400  0.07836600  1
  O  99  1  0.05195500  0.97223750  0.12587700  1
  O  100  1  0.96316100  0.04970800  0.11424000  1
  O  119  1  0.16687200  0.23778750  0.65261750  1
  O  120  1  0.25566200  0.16028250  0.64101200  1
  O  139  1  0.97190000  0.16554950  0.88937000  1
  O  140  1  0.04971900  0.25425200  0.87820600  1
  O  159  1  0.23647100  0.05081700  0.38900100  1
  O  160  1  0.15939100  0.96185300  0.37709800  1
  O  179  1  0.71452600  0.22953350  0.35030600  1
  O  180  1  0.76846700  0.22078450  0.26264300  1
  O  199  1  0.49822900  0.97967650  0.84963700  1
  O  200  1  0.44528800  0.98440350  0.76176900  1
  O  219  1  0.23193200  0.49804350  0.10043900  1
  O  220  1  0.22295700  0.44471700  0.01300300  1
  O  239  1  0.98113800  0.71411950  0.59907400  1
  O  240  1  0.98591600  0.76744550  0.51090000  1
  O  968  1  0.24417600  0.06426750  0.17815800  1
  O  975  1  0.25927900  0.12804550  0.82917400  1
  O  988  1  0.00717200  0.14290450  0.68001000  1
  O  995  1  0.98400806  0.09081500  0.33028300  1
  O  1008  1  0.58284700  0.48972000  0.92982300  1
  O  1015  1  0.64628200  0.46876650  0.58107300  1
  O  1028  1  0.66132500  0.72623250  0.42838300  1
  O  1035  1  0.60936100  0.74380400  0.07836600  1
  O  1059  1  0.56944900  0.97223750  0.12587700  1
  O  1060  1  0.48065500  0.04970800  0.11424000  1
  O  1079  1  0.68436600  0.23778750  0.65261750  1
  O  1080  1  0.77315600  0.16028250  0.64101200  1
  O  1099  1  0.48939400  0.16554950  0.88937000  1
  O  1100  1  0.56721300  0.25425200  0.87820600  1
  O  1119  1  0.75396500  0.05081700  0.38900100  1
  O  1120  1  0.67688500  0.96185300  0.37709800  1
  O  1139  1  0.23202000  0.22953350  0.35030600  1
  O  1140  1  0.28596100  0.22078450  0.26264300  1
  O  1159  1  0.01572300  0.97967650  0.84963700  1
  O  1160  1  0.96278210  0.98440350  0.76176900  1
  O  1179  1  0.74942600  0.49804350  0.10043900  1
  O  1180  1  0.74045100  0.44471700  0.01300300  1
  O  1199  1  0.49863200  0.71411950  0.59907400  1
  O  1200  1  0.50341000  0.76744550  0.51090000  1
