# generated using pymatgen
data_MgH4(C4O3)2
_symmetry_space_group_name_H-M   'P 1'
_cell_length_a   8.80450000
_cell_length_b   9.79836549
_cell_length_c   9.79836549
_cell_angle_alpha   90.95514874
_cell_angle_beta   106.41026433
_cell_angle_gamma   106.41026433
_symmetry_Int_Tables_number   1
_chemical_formula_structural   MgH4(C4O3)2
_chemical_formula_sum   'Mg2 H8 C16 O12'
_cell_volume   773.54782183
_cell_formula_units_Z   2
loop_
 _symmetry_equiv_pos_site_id
 _symmetry_equiv_pos_as_xyz
  1  'x, y, z'
loop_
 _atom_site_type_symbol
 _atom_site_label
 _atom_site_symmetry_multiplicity
 _atom_site_fract_x
 _atom_site_fract_y
 _atom_site_fract_z
 _atom_site_occupancy
  C  C1  1  0.99900000  0.29335000  0.46487000  1.0
  C  C2  1  0.00150000  0.14228000  0.48382000  1.0
  C  C3  1  0.86960000  0.04531000  0.51443000  1.0
  C  C4  1  0.13360000  0.09530000  0.46938000  1.0
  C  C9  1  0.50100000  0.53513000  0.70665000  1.0
  C  C10  1  0.49850000  0.51618000  0.85772000  1.0
  C  C11  1  0.63040000  0.48557000  0.95469000  1.0
  C  C12  1  0.36640000  0.53062000  0.90470000  1.0
  C  C17  1  0.00100000  0.70665000  0.53513000  1.0
  C  C18  1  0.99850000  0.85772000  0.51618000  1.0
  C  C19  1  0.13040000  0.95469000  0.48557000  1.0
  C  C20  1  0.86640000  0.90470000  0.53062000  1.0
  C  C25  1  0.49900000  0.46487000  0.29335000  1.0
  C  C26  1  0.50150000  0.48382000  0.14228000  1.0
  C  C27  1  0.36960000  0.51443000  0.04531000  1.0
  C  C28  1  0.63360000  0.46938000  0.09530000  1.0
  H  H1  1  0.26210000  0.26590000  0.43970000  1.0
  H  H2  1  0.78180000  0.07540000  0.52420000  1.0
  H  H5  1  0.23790000  0.56030000  0.73410000  1.0
  H  H6  1  0.71820000  0.47580000  0.92460000  1.0
  H  H9  1  0.73790000  0.73410000  0.56030000  1.0
  H  H10  1  0.21820000  0.92460000  0.47580000  1.0
  H  H13  1  0.76210000  0.43970000  0.26590000  1.0
  H  H14  1  0.28180000  0.52420000  0.07540000  1.0
  Mg  Mg1  1  0.75000000  0.42220000  0.57780000  1.0
  Mg  Mg3  1  0.25000000  0.57780000  0.42220000  1.0
  O  O1  1  0.88436000  0.33110000  0.48508000  1.0
  O  O2  1  0.11511000  0.37180000  0.42408000  1.0
  O  O3  1  0.26724000  0.18361000  0.43763000  1.0
  O  O7  1  0.61564000  0.51492000  0.66890000  1.0
  O  O8  1  0.38489000  0.57592000  0.62820000  1.0
  O  O9  1  0.23276000  0.56237000  0.81639000  1.0
  O  O13  1  0.11564000  0.66890000  0.51492000  1.0
  O  O14  1  0.88489000  0.62820000  0.57592000  1.0
  O  O15  1  0.73276000  0.81639000  0.56237000  1.0
  O  O19  1  0.38436000  0.48508000  0.33110000  1.0
  O  O20  1  0.61511000  0.42408000  0.37180000  1.0
  O  O21  1  0.76724000  0.43763000  0.18361000  1.0
