# generated using pymatgen
data_Zn2H2C10O9
_symmetry_space_group_name_H-M   'P 1'
_cell_length_a   11.82338000
_cell_length_b   15.58449000
_cell_length_c   15.87951000
_cell_angle_alpha   89.99954000
_cell_angle_beta   89.99954000
_cell_angle_gamma   90.00000000
_symmetry_Int_Tables_number   1
_chemical_formula_structural   Zn2H2C10O9
_chemical_formula_sum   'Zn16 H16 C80 O72'
_cell_volume   2925.97990809
_cell_formula_units_Z   8
loop_
 _symmetry_equiv_pos_site_id
 _symmetry_equiv_pos_as_xyz
  1  'x, y, z'
loop_
 _atom_site_type_symbol
 _atom_site_label
 _atom_site_symmetry_multiplicity
 _atom_site_fract_x
 _atom_site_fract_y
 _atom_site_fract_z
 _atom_site_occupancy
  Zn  Zn0  1  0.97123000  0.18861000  0.05152000  1
  Zn  Zn1  1  0.02869000  0.18862000  0.44845000  1
  Zn  Zn2  1  0.47153000  0.30983000  0.44794000  1
  Zn  Zn3  1  0.52847000  0.30983000  0.05206000  1
  Zn  Zn4  1  0.02876000  0.81139000  0.94848000  1
  Zn  Zn5  1  0.97131000  0.81138000  0.55155000  1
  Zn  Zn6  1  0.52847000  0.69017000  0.55206000  1
  Zn  Zn7  1  0.47153000  0.69017000  0.94793000  1
  Zn  Zn8  1  0.75069000  0.25016000  0.15682000  1
  Zn  Zn9  1  0.24933000  0.25017000  0.34320000  1
  Zn  Zn10  1  0.24930000  0.74984000  0.84318000  1
  Zn  Zn11  1  0.75066000  0.74983000  0.65680000  1
  Zn  Zn12  1  0.99955000  0.82089000  0.75022000  1
  Zn  Zn13  1  0.50000000  0.67704000  0.75000000  1
  Zn  Zn14  1  0.00045000  0.17911000  0.24978000  1
  Zn  Zn15  1  0.50000000  0.32296000  0.25000000  1
  H  H16  1  0.04895000  0.41912000  0.91446000  1
  H  H17  1  0.04417000  0.55913000  0.83748000  1
  H  H18  1  0.95105000  0.41911000  0.58554000  1
  H  H19  1  0.95583000  0.55913000  0.66252000  1
  H  H20  1  0.54890000  0.08106000  0.58655000  1
  H  H21  1  0.54567000  0.94043000  0.66224000  1
  H  H22  1  0.45110000  0.08106000  0.91345000  1
  H  H23  1  0.45433000  0.94043000  0.83776000  1
  H  H24  1  0.95105000  0.58089000  0.08554000  1
  H  H25  1  0.95583000  0.44087000  0.16252000  1
  H  H26  1  0.04895000  0.58089000  0.41446000  1
  H  H27  1  0.04417000  0.44088000  0.33748000  1
  H  H28  1  0.45110000  0.91894000  0.41345000  1
  H  H29  1  0.45433000  0.05958000  0.33776000  1
  H  H30  1  0.54890000  0.91894000  0.08655000  1
  H  H31  1  0.54567000  0.05957000  0.16224000  1
  C  C32  1  0.97116000  0.45623000  0.91054000  1
  C  C33  1  0.87555000  0.42745000  0.95397000  1
  C  C34  1  0.88476000  0.34601000  0.00479000  1
  C  C35  1  0.77321000  0.47457000  0.94915000  1
  C  C36  1  0.76657000  0.54767000  0.89714000  1
  C  C37  1  0.65519000  0.59536000  0.88683000  1
  C  C38  1  0.86440000  0.57707000  0.85646000  1
  C  C39  1  0.86458000  0.65715000  0.80336000  1
  C  C40  1  0.96741000  0.53296000  0.86539000  1
  C  C41  1  0.67269000  0.44556000  0.00134000  1
  C  C42  1  0.02884000  0.45623000  0.58946000  1
  C  C43  1  0.12445000  0.42745000  0.54602000  1
  C  C44  1  0.11523000  0.34601000  0.49520000  1
  C  C45  1  0.22679000  0.47457000  0.55084000  1
  C  C46  1  0.23343000  0.54768000  0.60285000  1
  C  C47  1  0.34481000  0.59536000  0.61317000  1
  C  C48  1  0.13560000  0.57708000  0.64353000  1
  C  C49  1  0.13540000  0.65717000  0.69662000  1
  C  C50  1  0.03259000  0.53296000  0.63460000  1
  C  C51  1  0.32731000  0.44556000  0.49866000  1
  C  C52  1  0.47145000  0.04348000  0.59008000  1
  C  C53  1  0.37579000  0.07229000  0.54675000  1
  C  C54  1  0.38443000  0.15418000  0.49633000  1
  C  C55  1  0.27369000  0.02475000  0.55148000  1
  C  C56  1  0.26798000  0.95094000  0.60287000  1
  C  C57  1  0.15704000  0.90282000  0.61307000  1
  C  C58  1  0.36603000  0.92142000  0.64330000  1
  C  C59  1  0.36657000  0.84098000  0.69620000  1
  C  C60  1  0.46850000  0.96629000  0.63467000  1
  C  C61  1  0.17318000  0.05375000  0.49928000  1
  C  C62  1  0.52855000  0.04348000  0.90991000  1
  C  C63  1  0.62421000  0.07230000  0.95325000  1
  C  C64  1  0.61556000  0.15418000  0.00367000  1
  C  C65  1  0.72630000  0.02475000  0.94853000  1
  C  C66  1  0.73201000  0.95094000  0.89715000  1
  C  C67  1  0.84294000  0.90282000  0.88695000  1
  C  C68  1  0.63397000  0.92142000  0.85670000  1
  C  C69  1  0.63343000  0.84099000  0.80380000  1
  C  C70  1  0.53149000  0.96630000  0.86533000  1
  C  C71  1  0.82681000  0.05375000  0.00072000  1
  C  C72  1  0.02884000  0.54377000  0.08946000  1
  C  C73  1  0.12445000  0.57255000  0.04602000  1
  C  C74  1  0.11524000  0.65400000  0.99521000  1
  C  C75  1  0.22679000  0.52544000  0.05084000  1
  C  C76  1  0.23343000  0.45233000  0.10285000  1
  C  C77  1  0.34481000  0.40464000  0.11317000  1
  C  C78  1  0.13560000  0.42293000  0.14353000  1
  C  C79  1  0.13542000  0.34285000  0.19663000  1
  C  C80  1  0.03259000  0.46704000  0.13460000  1
  C  C81  1  0.32731000  0.55445000  0.99866000  1
  C  C82  1  0.97116000  0.54377000  0.41054000  1
  C  C83  1  0.87555000  0.57255000  0.45398000  1
  C  C84  1  0.88477000  0.65400000  0.50479000  1
  C  C85  1  0.77321000  0.52543000  0.44915000  1
  C  C86  1  0.76657000  0.45233000  0.39715000  1
  C  C87  1  0.65519000  0.40464000  0.38683000  1
  C  C88  1  0.86440000  0.42293000  0.35647000  1
  C  C89  1  0.86460000  0.34284000  0.30337000  1
  C  C90  1  0.96741000  0.46705000  0.36540000  1
  C  C91  1  0.67269000  0.55445000  0.50133000  1
  C  C92  1  0.52855000  0.95653000  0.40992000  1
  C  C93  1  0.62421000  0.92771000  0.45325000  1
  C  C94  1  0.61556000  0.84583000  0.50367000  1
  C  C95  1  0.72631000  0.97525000  0.44852000  1
  C  C96  1  0.73202000  0.04906000  0.39713000  1
  C  C97  1  0.84296000  0.09719000  0.38693000  1
  C  C98  1  0.63397000  0.07859000  0.35670000  1
  C  C99  1  0.63343000  0.15902000  0.30379000  1
  C  C100  1  0.53150000  0.03371000  0.36533000  1
  C  C101  1  0.82682000  0.94626000  0.50072000  1
  C  C102  1  0.47145000  0.95652000  0.09008000  1
  C  C103  1  0.37579000  0.92771000  0.04675000  1
  C  C104  1  0.38443000  0.84583000  0.99633000  1
  C  C105  1  0.27369000  0.97525000  0.05147000  1
  C  C106  1  0.26799000  0.04906000  0.10285000  1
  C  C107  1  0.15706000  0.09718000  0.11304000  1
  C  C108  1  0.36603000  0.07859000  0.14329000  1
  C  C109  1  0.36657000  0.15902000  0.19620000  1
  C  C110  1  0.46851000  0.03370000  0.13467000  1
  C  C111  1  0.17319000  0.94626000  0.99928000  1
  O  O112  1  0.96793000  0.29711000  0.98711000  1
  O  O113  1  0.81095000  0.33368000  0.06095000  1
  O  O114  1  0.66284000  0.48408000  0.06982000  1
  O  O115  1  0.61180000  0.38558000  0.97064000  1
  O  O116  1  0.62519000  0.64033000  0.94968000  1
  O  O117  1  0.60566000  0.58494000  0.81706000  1
  O  O118  1  0.80628000  0.65351000  0.73677000  1
  O  O119  1  0.92562000  0.71857000  0.82881000  1
  O  O120  1  0.60916000  0.31969000  0.15758000  1
  O  O121  1  0.03207000  0.29711000  0.51289000  1
  O  O122  1  0.18905000  0.33369000  0.43905000  1
  O  O123  1  0.33716000  0.48408000  0.43018000  1
  O  O124  1  0.38820000  0.38558000  0.52936000  1
  O  O125  1  0.37481000  0.64033000  0.55031000  1
  O  O126  1  0.39434000  0.58494000  0.68294000  1
  O  O127  1  0.19371000  0.65351000  0.76322000  1
  O  O128  1  0.07436000  0.71858000  0.67121000  1
  O  O129  1  0.39086000  0.31969000  0.34242000  1
  O  O130  1  0.46910000  0.20222000  0.51279000  1
  O  O131  1  0.30872000  0.16814000  0.44194000  1
  O  O132  1  0.16582000  0.01715000  0.42960000  1
  O  O133  1  0.10947000  0.11194000  0.53008000  1
  O  O134  1  0.12654000  0.85802000  0.55022000  1
  O  O135  1  0.10796000  0.91288000  0.68306000  1
  O  O136  1  0.30858000  0.84453000  0.76297000  1
  O  O137  1  0.42783000  0.77956000  0.67091000  1
  O  O138  1  0.10825000  0.18171000  0.34230000  1
  O  O139  1  0.53091000  0.20222000  0.98721000  1
  O  O140  1  0.69128000  0.16815000  0.05806000  1
  O  O141  1  0.83419000  0.01715000  0.07040000  1
  O  O142  1  0.89053000  0.11193000  0.96990000  1
  O  O143  1  0.87346000  0.85801000  0.94978000  1
  O  O144  1  0.89200000  0.91289000  0.81693000  1
  O  O145  1  0.69142000  0.84453000  0.73703000  1
  O  O146  1  0.57216000  0.77956000  0.82908000  1
  O  O147  1  0.89183000  0.18170000  0.15771000  1
  O  O148  1  0.03207000  0.70289000  0.01289000  1
  O  O149  1  0.18905000  0.66632000  0.93905000  1
  O  O150  1  0.33716000  0.51592000  0.93018000  1
  O  O151  1  0.38820000  0.61442000  0.02936000  1
  O  O152  1  0.37481000  0.35967000  0.05031000  1
  O  O153  1  0.39434000  0.41506000  0.18294000  1
  O  O154  1  0.19372000  0.34649000  0.26322000  1
  O  O155  1  0.07438000  0.28143000  0.17119000  1
  O  O156  1  0.39084000  0.68031000  0.84242000  1
  O  O157  1  0.96793000  0.70289000  0.48711000  1
  O  O158  1  0.81095000  0.66632000  0.56095000  1
  O  O159  1  0.66284000  0.51592000  0.56981000  1
  O  O160  1  0.61180000  0.61442000  0.47064000  1
  O  O161  1  0.62519000  0.35968000  0.44969000  1
  O  O162  1  0.60566000  0.41506000  0.31706000  1
  O  O163  1  0.80629000  0.34649000  0.23678000  1
  O  O164  1  0.92564000  0.28142000  0.32879000  1
  O  O165  1  0.60914000  0.68031000  0.65758000  1
  O  O166  1  0.53090000  0.79779000  0.48721000  1
  O  O167  1  0.69128000  0.83186000  0.55806000  1
  O  O168  1  0.83418000  0.98286000  0.57039000  1
  O  O169  1  0.89053000  0.88806000  0.46992000  1
  O  O170  1  0.87346000  0.14199000  0.44978000  1
  O  O171  1  0.89204000  0.08712000  0.31694000  1
  O  O172  1  0.69142000  0.15547000  0.23702000  1
  O  O173  1  0.57217000  0.22045000  0.32908000  1
  O  O174  1  0.89175000  0.81830000  0.65769000  1
  O  O175  1  0.46909000  0.79779000  0.01279000  1
  O  O176  1  0.30872000  0.83186000  0.94193000  1
  O  O177  1  0.16581000  0.98286000  0.92960000  1
  O  O178  1  0.10947000  0.88807000  0.03010000  1
  O  O179  1  0.12653000  0.14199000  0.05022000  1
  O  O180  1  0.10800000  0.08711000  0.18306000  1
  O  O181  1  0.30858000  0.15548000  0.26297000  1
  O  O182  1  0.42783000  0.22045000  0.17091000  1
  O  O183  1  0.10817000  0.81830000  0.84229000  1
