# generated using pymatgen
data_MgH2C6SO4
_symmetry_space_group_name_H-M   'P 1'
_cell_length_a   9.83825000
_cell_length_b   17.81867000
_cell_length_c   21.78814000
_cell_angle_alpha   77.63865000
_cell_angle_beta   89.99495000
_cell_angle_gamma   89.99641000
_symmetry_Int_Tables_number   1
_chemical_formula_structural   MgH2C6SO4
_chemical_formula_sum   'Mg12 H24 C72 S12 O48'
_cell_volume   3731.01043205
_cell_formula_units_Z   12
loop_
 _symmetry_equiv_pos_site_id
 _symmetry_equiv_pos_as_xyz
  1  'x, y, z'
loop_
 _atom_site_type_symbol
 _atom_site_label
 _atom_site_symmetry_multiplicity
 _atom_site_fract_x
 _atom_site_fract_y
 _atom_site_fract_z
 _atom_site_occupancy
  Mg  Mg1  1  0.89930000  0.21879000  0.29250000  1.0
  Mg  Mg2  1  0.22805000  0.77446000  0.06981000  1.0
  Mg  Mg3  1  0.93804000  0.28726000  0.13446000  1.0
  Mg  Mg4  1  0.39930000  0.78117000  0.20750000  1.0
  Mg  Mg5  1  0.72815000  0.22552000  0.43029000  1.0
  Mg  Mg6  1  0.43804000  0.71273000  0.36558000  1.0
  Mg  Mg7  1  0.10069000  0.78121000  0.70750000  1.0
  Mg  Mg8  1  0.77194000  0.22554000  0.93019000  1.0
  Mg  Mg9  1  0.06196000  0.71274000  0.86554000  1.0
  Mg  Mg10  1  0.60070000  0.21883000  0.79250000  1.0
  Mg  Mg11  1  0.27184000  0.77449000  0.56971000  1.0
  Mg  Mg12  1  0.56196000  0.28727000  0.63442000  1.0
  H  H1  1  0.98852000  0.99423000  0.06019000  1.0
  H  H2  1  0.89343000  0.11544000  0.09941000  1.0
  H  H3  1  0.24340000  0.55902000  0.31348000  1.0
  H  H4  1  0.15830000  0.41399000  0.32759000  1.0
  H  H5  1  0.45053000  0.22024000  0.38793000  1.0
  H  H6  1  0.19850000  0.21089000  0.34842000  1.0
  H  H7  1  0.48846000  0.00562000  0.43994000  1.0
  H  H8  1  0.39335000  0.88454000  0.40055000  1.0
  H  H9  1  0.74342000  0.44089000  0.18658000  1.0
  H  H10  1  0.65831000  0.58590000  0.17245000  1.0
  H  H11  1  0.95052000  0.77976000  0.11206000  1.0
  H  H12  1  0.69847000  0.78914000  0.15156000  1.0
  H  H13  1  0.01148000  0.00577000  0.93981000  1.0
  H  H14  1  0.10656000  0.88457000  0.90059000  1.0
  H  H15  1  0.75659000  0.44099000  0.68652000  1.0
  H  H16  1  0.84169000  0.58601000  0.67241000  1.0
  H  H17  1  0.54946000  0.77976000  0.61207000  1.0
  H  H18  1  0.80149000  0.78912000  0.65157000  1.0
  H  H19  1  0.51153000  0.99438000  0.56006000  1.0
  H  H20  1  0.60664000  0.11546000  0.59945000  1.0
  H  H21  1  0.25657000  0.55911000  0.81342000  1.0
  H  H22  1  0.34168000  0.41410000  0.82755000  1.0
  H  H23  1  0.04947000  0.22024000  0.88794000  1.0
  H  H24  1  0.30153000  0.21087000  0.84844000  1.0
  C  C1  1  0.98281000  0.23639000  0.43210000  1.0
  C  C2  1  0.48365000  0.25780000  0.51180000  1.0
  C  C3  1  0.01874000  0.01149000  0.10308000  1.0
  C  C4  1  0.18585000  0.89899000  0.13931000  1.0
  C  C5  1  0.99518000  0.13851000  0.21869000  1.0
  C  C6  1  0.19192000  0.66102000  0.19250000  1.0
  C  C7  1  0.13089000  0.24100000  0.43556000  1.0
  C  C8  1  0.15489000  0.58045000  0.21978000  1.0
  C  C9  1  0.02234000  0.37431000  0.22150000  1.0
  C  C10  1  0.11291000  0.97003000  0.14444000  1.0
  C  C11  1  0.07767000  0.44654000  0.23262000  1.0
  C  C12  1  0.02585000  0.08193000  0.18141000  1.0
  C  C13  1  0.36560000  0.25067000  0.47219000  1.0
  C  C14  1  0.96875000  0.07559000  0.12414000  1.0
  C  C15  1  0.18684000  0.53613000  0.27878000  1.0
  C  C16  1  0.14294000  0.45943000  0.28612000  1.0
  C  C17  1  0.36061000  0.23083000  0.41375000  1.0
  C  C18  1  0.22639000  0.22580000  0.39258000  1.0
  C  C19  1  0.48279000  0.76360000  0.06792000  1.0
  C  C20  1  0.98369000  0.74221000  0.98819000  1.0
  C  C21  1  0.51879000  0.98843000  0.39702000  1.0
  C  C22  1  0.68579000  0.10103000  0.36067000  1.0
  C  C23  1  0.49519000  0.86150000  0.28134000  1.0
  C  C24  1  0.69189000  0.33883000  0.30749000  1.0
  C  C25  1  0.63088000  0.75901000  0.06444000  1.0
  C  C26  1  0.65494000  0.41944000  0.28031000  1.0
  C  C27  1  0.52234000  0.62565000  0.27852000  1.0
  C  C28  1  0.61298000  0.02991000  0.35565000  1.0
  C  C29  1  0.57769000  0.55340000  0.26743000  1.0
  C  C30  1  0.52588000  0.91807000  0.31862000  1.0
  C  C31  1  0.86562000  0.74935000  0.02780000  1.0
  C  C32  1  0.46876000  0.92439000  0.37590000  1.0
  C  C33  1  0.68688000  0.46377000  0.22130000  1.0
  C  C34  1  0.64297000  0.54048000  0.21394000  1.0
  C  C35  1  0.86061000  0.76918000  0.08624000  1.0
  C  C36  1  0.72638000  0.77421000  0.10741000  1.0
  C  C37  1  0.01718000  0.76361000  0.56790000  1.0
  C  C38  1  0.51634000  0.74220000  0.48820000  1.0
  C  C39  1  0.98125000  0.98851000  0.89692000  1.0
  C  C40  1  0.81414000  0.10101000  0.86069000  1.0
  C  C41  1  0.00481000  0.86150000  0.78131000  1.0
  C  C42  1  0.80807000  0.33899000  0.80750000  1.0
  C  C43  1  0.86910000  0.75900000  0.56444000  1.0
  C  C44  1  0.84510000  0.41955000  0.78022000  1.0
  C  C45  1  0.97765000  0.62569000  0.77850000  1.0
  C  C46  1  0.88708000  0.02997000  0.85556000  1.0
  C  C47  1  0.92232000  0.55346000  0.76738000  1.0
  C  C48  1  0.97414000  0.91807000  0.81859000  1.0
  C  C49  1  0.63439000  0.74934000  0.52781000  1.0
  C  C50  1  0.03124000  0.92441000  0.87586000  1.0
  C  C51  1  0.81315000  0.46387000  0.72122000  1.0
  C  C52  1  0.85705000  0.54058000  0.71388000  1.0
  C  C53  1  0.63938000  0.76917000  0.58625000  1.0
  C  C54  1  0.77361000  0.77420000  0.60742000  1.0
  C  C55  1  0.51721000  0.23640000  0.93208000  1.0
  C  C56  1  0.01630000  0.25780000  0.01181000  1.0
  C  C57  1  0.48120000  0.01157000  0.60298000  1.0
  C  C58  1  0.31420000  0.89898000  0.63933000  1.0
  C  C59  1  0.50480000  0.13850000  0.71866000  1.0
  C  C60  1  0.30811000  0.66118000  0.69250000  1.0
  C  C61  1  0.36911000  0.24099000  0.93556000  1.0
  C  C62  1  0.34506000  0.58056000  0.71969000  1.0
  C  C63  1  0.47765000  0.37435000  0.72148000  1.0
  C  C64  1  0.38701000  0.97009000  0.64435000  1.0
  C  C65  1  0.42231000  0.44661000  0.73257000  1.0
  C  C66  1  0.47411000  0.08193000  0.68138000  1.0
  C  C67  1  0.13437000  0.25065000  0.97220000  1.0
  C  C68  1  0.53123000  0.07562000  0.62410000  1.0
  C  C69  1  0.31311000  0.53623000  0.77869000  1.0
  C  C70  1  0.35702000  0.45952000  0.78606000  1.0
  C  C71  1  0.13938000  0.23082000  0.91376000  1.0
  C  C72  1  0.27361000  0.22579000  0.89259000  1.0
  S  S1  1  0.14033000  0.00892000  0.20926000  1.0
  S  S2  1  0.07132000  0.52812000  0.17344000  1.0
  S  S3  1  0.20537000  0.26331000  0.50097000  1.0
  S  S4  1  0.64046000  0.99102000  0.29083000  1.0
  S  S5  1  0.57132000  0.47182000  0.32662000  1.0
  S  S6  1  0.70540000  0.73670000  0.99903000  1.0
  S  S7  1  0.85966000  0.99108000  0.79074000  1.0
  S  S8  1  0.92867000  0.47189000  0.82656000  1.0
  S  S9  1  0.79462000  0.73669000  0.49903000  1.0
  S  S10  1  0.35953000  0.00898000  0.70917000  1.0
  S  S11  1  0.42867000  0.52819000  0.67337000  1.0
  S  S12  1  0.29460000  0.26330000  0.00097000  1.0
  O  O1  1  0.90665000  0.19396000  0.19602000  1.0
  O  O2  1  0.16021000  0.87144000  0.09071000  1.0
  O  O3  1  0.03291000  0.31323000  0.26332000  1.0
  O  O4  1  0.24765000  0.70044000  0.22775000  1.0
  O  O5  1  0.96653000  0.37833000  0.16655000  1.0
  O  O6  1  0.04546000  0.13587000  0.27218000  1.0
  O  O7  1  0.26614000  0.87123000  0.18395000  1.0
  O  O8  1  0.16631000  0.68490000  0.13372000  1.0
  O  O9  1  0.60111000  0.23516000  0.50016000  1.0
  O  O10  1  0.45909000  0.28633000  0.56041000  1.0
  O  O11  1  0.92664000  0.21627000  0.38445000  1.0
  O  O12  1  0.90718000  0.24977000  0.47600000  1.0
  O  O13  1  0.40667000  0.80604000  0.30403000  1.0
  O  O14  1  0.66001000  0.12867000  0.40918000  1.0
  O  O15  1  0.53290000  0.68671000  0.23668000  1.0
  O  O16  1  0.74775000  0.29954000  0.27215000  1.0
  O  O17  1  0.46652000  0.62167000  0.33347000  1.0
  O  O18  1  0.54543000  0.86413000  0.22784000  1.0
  O  O19  1  0.76625000  0.12869000  0.31601000  1.0
  O  O20  1  0.66617000  0.31479000  0.36623000  1.0
  O  O21  1  0.10116000  0.76482000  0.99986000  1.0
  O  O22  1  0.95914000  0.71371000  0.93957000  1.0
  O  O23  1  0.42661000  0.78372000  0.11557000  1.0
  O  O24  1  0.40716000  0.75023000  0.02401000  1.0
  O  O25  1  0.09334000  0.80604000  0.80398000  1.0
  O  O26  1  0.83978000  0.12857000  0.90929000  1.0
  O  O27  1  0.96709000  0.68677000  0.73668000  1.0
  O  O28  1  0.75234000  0.29957000  0.77224000  1.0
  O  O29  1  0.03346000  0.62167000  0.83345000  1.0
  O  O30  1  0.95454000  0.86414000  0.72782000  1.0
  O  O31  1  0.73385000  0.12877000  0.81605000  1.0
  O  O32  1  0.83368000  0.31510000  0.86628000  1.0
  O  O33  1  0.39888000  0.76484000  0.49984000  1.0
  O  O34  1  0.54090000  0.71367000  0.43959000  1.0
  O  O35  1  0.07335000  0.78374000  0.61555000  1.0
  O  O36  1  0.09282000  0.75023000  0.52400000  1.0
  O  O37  1  0.59332000  0.19396000  0.69597000  1.0
  O  O38  1  0.33998000  0.87133000  0.59082000  1.0
  O  O39  1  0.46709000  0.31329000  0.76332000  1.0
  O  O40  1  0.25224000  0.70046000  0.72785000  1.0
  O  O41  1  0.53347000  0.37833000  0.66653000  1.0
  O  O42  1  0.45456000  0.13588000  0.77216000  1.0
  O  O43  1  0.23374000  0.87131000  0.68399000  1.0
  O  O44  1  0.33383000  0.68522000  0.63377000  1.0
  O  O45  1  0.89883000  0.23518000  0.00014000  1.0
  O  O46  1  0.04085000  0.28629000  0.06043000  1.0
  O  O47  1  0.57338000  0.21628000  0.88443000  1.0
  O  O48  1  0.59284000  0.24977000  0.97599000  1.0
