# generated using pymatgen
data_H9C13N4O
_symmetry_space_group_name_H-M   'P 1'
_cell_length_a   24.82057500
_cell_length_b   24.82060000
_cell_length_c   28.85260000
_cell_angle_alpha   90.00000000
_cell_angle_beta   90.00000000
_cell_angle_gamma   120.00009996
_symmetry_Int_Tables_number   1
_chemical_formula_structural   H9C13N4O
_chemical_formula_sum   'H54 C78 N24 O6'
_cell_volume   15393.56688832
_cell_formula_units_Z   6
loop_
 _symmetry_equiv_pos_site_id
 _symmetry_equiv_pos_as_xyz
  1  'x, y, z'
loop_
 _atom_site_type_symbol
 _atom_site_label
 _atom_site_symmetry_multiplicity
 _atom_site_fract_x
 _atom_site_fract_y
 _atom_site_fract_z
 _atom_site_occupancy
  C  1  1  0.39584900  0.46793700  0.98649400  1
  C  2  1  0.35950600  0.47571100  0.02130300  1
  C  3  1  0.32750150  0.50882750  0.01309200  1
  C  4  1  0.33833200  0.54116900  0.97027600  1
  C  5  1  0.37693500  0.53789800  0.93539400  1
  C  6  1  0.40152600  0.49800400  0.94330900  1
  C  9  1  0.42648100  0.43265700  0.99412300  1
  C  10  1  0.45257800  0.43242500  0.03799800  1
  C  11  1  0.48928100  0.40395800  0.04505800  1
  C  12  1  0.49088500  0.36577800  0.00897400  1
  C  13  1  0.46242550  0.36113850  0.96531200  1
  C  14  1  0.43430200  0.39805200  0.95791600  1
  C  21  1  0.38973850  0.57148150  0.89315500  1
  C  22  1  0.28287100  0.50830400  0.04416400  1
  C  23  1  0.52316350  0.41374650  0.08686300  1
  C  24  1  0.46178650  0.31919250  0.93156500  1
  C  29  1  0.93894350  0.46290150  0.31986100  1
  C  30  1  0.98306900  0.49919500  0.35468600  1
  C  31  1  0.04818150  0.53126550  0.34642400  1
  C  32  1  0.06968100  0.52038700  0.30361600  1
  C  33  1  0.02780050  0.48174850  0.26875700  1
  C  34  1  0.96332400  0.45713800  0.27669300  1
  C  37  1  0.87303350  0.43233850  0.32749300  1
  C  38  1  0.84672400  0.40638100  0.37140600  1
  C  39  1  0.78154450  0.36960550  0.37842800  1
  C  40  1  0.74176000  0.36799400  0.34233700  1
  C  41  1  0.76557900  0.39644400  0.29867400  1
  C  42  1  0.83061550  0.42458450  0.29129900  1
  C  49  1  0.04856250  0.46888150  0.22653500  1
  C  50  1  0.09228700  0.57593400  0.37747500  1
  C  51  1  0.75743000  0.33574700  0.42024700  1
  C  52  1  0.72427200  0.39705100  0.26491600  1
  C  57  1  0.39092550  0.91984250  0.65313000  1
  C  58  1  0.38313850  0.87572950  0.68794600  1
  C  59  1  0.34999800  0.81060800  0.67974200  1
  C  60  1  0.31764750  0.78909650  0.63692700  1
  C  61  1  0.32093150  0.83096750  0.60204000  1
  C  62  1  0.36085100  0.89545400  0.60994600  1
  C  65  1  0.42619750  0.98575450  0.66075800  1
  C  66  1  0.42638850  0.01208150  0.70462400  1
  C  67  1  0.45478650  0.07724950  0.71166600  1
  C  68  1  0.49294700  0.11704100  0.67557800  1
  C  69  1  0.49765900  0.09322400  0.63193300  1
  C  70  1  0.46080150  0.02817850  0.62455100  1
  C  77  1  0.28731450  0.81019050  0.55981500  1
  C  78  1  0.35049450  0.76649850  0.71082700  1
  C  79  1  0.44486350  0.10133450  0.75342600  1
  C  80  1  0.53960650  0.13454550  0.59819300  1
  C  85  1  0.44641750  0.27792650  0.85336400  1
  C  86  1  0.44491850  0.29105250  0.80609400  1
  C  87  1  0.44760300  0.25172000  0.77173900  1
  C  88  1  0.44736600  0.19694100  0.78625400  1
  C  92  1  0.44950050  0.26730250  0.72182500  1
  C  98  1  0.69833950  0.41236050  0.18671200  1
  C  99  1  0.71294950  0.41386550  0.13943700  1
  C  100  1  0.67096800  0.41126000  0.10508700  1
  C  101  1  0.61637500  0.41138600  0.11961600  1
  C  105  1  0.68469950  0.40949050  0.05516800  1
  C  111  1  0.58092400  0.16045500  0.52000600  1
  C  112  1  0.56789250  0.14579250  0.47273100  1
  C  113  1  0.60725150  0.18780550  0.43838800  1
  C  114  1  0.66193700  0.24242800  0.45292000  1
  C  118  1  0.59177300  0.17407000  0.38846500  1
  C  124  1  0.38401600  0.65705900  0.85158100  1
  C  125  1  0.38966550  0.64473450  0.80478000  1
  C  126  1  0.38666750  0.68258250  0.76921100  1
  C  127  1  0.38002500  0.73457000  0.78232400  1
  C  131  1  0.39690350  0.66939850  0.72070900  1
  C  137  1  0.13989050  0.47470450  0.18492000  1
  C  138  1  0.12193850  0.46910450  0.13811700  1
  C  139  1  0.16276600  0.47206000  0.10255000  1
  C  140  1  0.22140500  0.47872400  0.11566100  1
  C  144  1  0.13932500  0.46176100  0.05405200  1
  C  150  1  0.20175550  0.71888450  0.51823100  1
  C  151  1  0.21407300  0.73685200  0.47142800  1
  C  152  1  0.17622150  0.69599950  0.43586100  1
  C  153  1  0.12421600  0.63738800  0.44897600  1
  C  157  1  0.18931800  0.71948700  0.38737300  1
  H  7  1  0.35132100  0.45188500  0.05182700  1
  H  16  1  0.41302750  0.39410050  0.92673200  1
  H  17  1  0.27086300  0.54708900  0.94499400  1
  H  18  1  0.49073900  0.29449100  0.03286100  1
  H  19  1  0.42990150  0.49613750  0.91838700  1
  H  20  1  0.45134900  0.45998600  0.06389100  1
  H  25  1  0.47609250  0.28874650  0.94146800  1
  H  26  1  0.41040900  0.56117500  0.86661100  1
  H  27  1  0.26016350  0.53073650  0.03363400  1
  H  28  1  0.51475000  0.43377400  0.11484700  1
  H  35  1  0.96743900  0.50756400  0.38514100  1
  H  44  1  0.84797650  0.44574850  0.26008500  1
  H  45  1  0.14303900  0.58785200  0.27829100  1
  H  46  1  0.67060150  0.36811850  0.36621400  1
  H  47  1  0.93303700  0.42882200  0.25177000  1
  H  48  1  0.87549200  0.40742400  0.39724400  1
  H  53  1  0.67950100  0.38269400  0.27479800  1
  H  54  1  0.01759950  0.44829650  0.19996900  1
  H  55  1  0.13741800  0.59866200  0.36691400  1
  H  56  1  0.78595100  0.34416300  0.44817900  1
  H  63  1  0.40696250  0.89137150  0.71847000  1
  H  72  1  0.46478350  0.01085550  0.59337500  1
  H  73  1  0.31168500  0.71568300  0.61166100  1
  H  74  1  0.56416850  0.18825150  0.69946200  1
  H  75  1  0.36272150  0.92569550  0.58502200  1
  H  76  1  0.39881200  0.98328500  0.73051100  1
  H  81  1  0.56998150  0.17931850  0.60808100  1
  H  82  1  0.29768350  0.84116450  0.53325900  1
  H  83  1  0.32801550  0.72135650  0.70030400  1
  H  84  1  0.42505100  0.07287600  0.78144000  1
  H  90  1  0.44538300  0.33108800  0.79683400  1
  H  93  1  0.44841100  0.31026600  0.71634700  1
  H  94  1  0.40955950  0.22979950  0.70397200  1
  H  95  1  0.49212250  0.27306050  0.70621900  1
  H  103  1  0.75263550  0.41362650  0.13017000  1
  H  106  1  0.72877300  0.41062600  0.04968100  1
  H  107  1  0.68711900  0.44945700  0.03737000  1
  H  108  1  0.64786700  0.36689200  0.03950900  1
  H  116  1  0.52794550  0.10612950  0.46346700  1
  H  119  1  0.54886350  0.12997150  0.38297100  1
  H  120  1  0.62935150  0.17169750  0.37067400  1
  H  121  1  0.58596450  0.21087550  0.37280600  1
  H  129  1  0.39347350  0.60669150  0.79660300  1
  H  132  1  0.41939900  0.64124100  0.71911800  1
  H  133  1  0.42700750  0.71261250  0.70223800  1
  H  134  1  0.35241650  0.64380450  0.70278500  1
  H  142  1  0.08002250  0.46514750  0.12995100  1
  H  145  1  0.08866450  0.43920350  0.05247100  1
  H  146  1  0.15248200  0.43168900  0.03558900  1
  H  147  1  0.15816050  0.50623350  0.03610900  1
  H  155  1  0.25207100  0.77873900  0.46325900  1
  H  158  1  0.21741350  0.77014750  0.38581000  1
  H  159  1  0.14606900  0.70633800  0.36894200  1
  H  160  1  0.21494150  0.70067050  0.36939200  1
  N  89  1  0.44687300  0.18629700  0.83250800  1
  N  91  1  0.44719900  0.22475500  0.86384500  1
  N  96  1  0.44883850  0.31875150  0.88592000  1
  N  97  1  0.45057450  0.15855450  0.75438700  1
  N  102  1  0.60621000  0.41182800  0.16587200  1
  N  104  1  0.64436200  0.41152500  0.19720000  1
  N  109  1  0.73677650  0.40999750  0.21927100  1
  N  110  1  0.57473800  0.40813400  0.08776800  1
  N  115  1  0.67248950  0.25262050  0.49917900  1
  N  117  1  0.63402650  0.21446450  0.53050400  1
  N  122  1  0.54010700  0.12202000  0.55255700  1
  N  123  1  0.70029150  0.28410850  0.42108200  1
  N  128  1  0.37783950  0.74435150  0.82845600  1
  N  130  1  0.37888650  0.70788250  0.86080900  1
  N  135  1  0.38092850  0.62087050  0.88777200  1
  N  136  1  0.37262700  0.77513200  0.75472700  1
  N  141  1  0.23341000  0.48098900  0.16178900  1
  N  143  1  0.19588350  0.47992050  0.19414300  1
  N  148  1  0.10678100  0.47775700  0.22112100  1
  N  149  1  0.26938950  0.48617850  0.08806600  1
  N  154  1  0.11448400  0.62538800  0.49510700  1
  N  156  1  0.15096350  0.66290250  0.52745700  1
  N  161  1  0.23794350  0.75198550  0.55442200  1
  N  162  1  0.08367400  0.58940700  0.42138700  1
  O  8  1  0.30940150  0.57483850  0.96192400  1
  O  15  1  0.52042350  0.33247250  0.01620100  1
  O  36  1  0.13227900  0.54933900  0.29524600  1
  O  43  1  0.67891250  0.33843950  0.34955700  1
  O  64  1  0.28395050  0.72649550  0.62858500  1
  O  71  1  0.52617750  0.17989250  0.68278600  1
