# generated using pymatgen
data_Zn2H38C33(NO4)2
_symmetry_space_group_name_H-M   'P 1'
_cell_length_a   9.93550000
_cell_length_b   10.65512000
_cell_length_c   10.69635000
_cell_angle_alpha   87.89320000
_cell_angle_beta   88.96918000
_cell_angle_gamma   90.87969000
_symmetry_Int_Tables_number   1
_chemical_formula_structural   Zn2H38C33(NO4)2
_chemical_formula_sum   'Zn2 H38 C33 N2 O8'
_cell_volume   1131.26390946
_cell_formula_units_Z   1
loop_
 _symmetry_equiv_pos_site_id
 _symmetry_equiv_pos_as_xyz
  1  'x, y, z'
loop_
 _atom_site_type_symbol
 _atom_site_label
 _atom_site_symmetry_multiplicity
 _atom_site_fract_x
 _atom_site_fract_y
 _atom_site_fract_z
 _atom_site_occupancy
  Zn  Zn0  1  0.65313000  0.49998000  0.50001000  1
  Zn  Zn1  1  0.34687000  0.50002000  0.49999000  1
  H  H2  1  0.29370000  0.56258000  0.91479000  1
  H  H3  1  0.33612000  0.37522000  0.10633000  1
  H  H4  1  0.81096000  0.11639000  0.61621000  1
  H  H5  1  0.76840000  0.89512000  0.44666000  1
  H  H6  1  0.70031000  0.60852000  0.10429000  1
  H  H7  1  0.86522000  0.34563000  0.62537000  1
  H  H8  1  0.67011000  0.63928000  0.89419000  1
  H  H9  1  0.49515000  0.30161000  0.13123000  1
  H  H10  1  0.31259000  0.60794000  0.11354000  1
  H  H11  1  0.70976000  0.44205000  0.09310000  1
  H  H12  1  0.38317000  0.26216000  0.79145000  1
  H  H13  1  0.32911000  0.20888000  0.94394000  1
  H  H14  1  0.25976000  0.35171000  0.87960000  1
  H  H15  1  0.28164000  0.88466000  0.48808000  1
  H  H16  1  0.28135000  0.10977000  0.48530000  1
  H  H17  1  0.77026000  0.11944000  0.44578000  1
  H  H18  1  0.81365000  0.90884000  0.73569000  1
  H  H19  1  0.81725000  0.76761000  0.64749000  1
  H  H20  1  0.94539000  0.88750000  0.61976000  1
  H  H21  1  0.23289000  0.32951000  0.66051000  1
  H  H22  1  0.07780000  0.30583000  0.74233000  1
  H  H23  1  0.11149000  0.22025000  0.60293000  1
  H  H24  1  0.89199000  0.53621000  0.24653000  1
  H  H25  1  0.90196000  0.82212000  0.30547000  1
  H  H26  1  0.87520000  0.75792000  0.15525000  1
  H  H27  1  0.75190000  0.73156000  0.27965000  1
  H  H28  1  0.13109000  0.54449000  0.24751000  1
  H  H29  1  0.12006000  0.82282000  0.33519000  1
  H  H30  1  0.26543000  0.73959000  0.28916000  1
  H  H31  1  0.14226000  0.78035000  0.17350000  1
  H  H32  1  0.72221000  0.48010000  0.88463000  1
  H  H33  1  0.55867000  0.31075000  0.92632000  1
  H  H34  1  0.39333000  0.82218000  0.09092000  1
  H  H35  1  0.49349000  0.74905000  0.20814000  1
  H  H36  1  0.56266000  0.77653000  0.05352000  1
  H  H37  1  0.36141000  0.71601000  0.75332000  1
  H  H38  1  0.32444000  0.79505000  0.89126000  1
  H  H39  1  0.49809000  0.77408000  0.84324000  1
  C  C40  1  0.50016000  0.73975000  0.50540000  1
  C  C41  1  0.49968000  0.50382000  0.87912000  1
  C  C42  1  0.46792000  0.36952000  0.93976000  1
  C  C43  1  0.39639000  0.60308000  0.92676000  1
  C  C44  1  0.60564000  0.93490000  0.57512000  1
  C  C45  1  0.49541000  0.87030000  0.52887000  1
  C  C46  1  0.37353000  0.93325000  0.51191000  1
  C  C47  1  0.37289000  0.06242000  0.51131000  1
  C  C48  1  0.49379000  0.12797000  0.52907000  1
  C  C49  1  0.60517000  0.06363000  0.57429000  1
  C  C50  1  0.75159000  0.07503000  0.54035000  1
  C  C51  1  0.50144000  0.50443000  0.25814000  1
  C  C52  1  0.75171000  0.93217000  0.54047000  1
  C  C53  1  0.07405000  0.59255000  0.43643000  1
  C  C54  1  0.06599000  0.41392000  0.57047000  1
  C  C55  1  0.92335000  0.41507000  0.57019000  1
  C  C56  1  0.93161000  0.59223000  0.43548000  1
  C  C57  1  0.93134000  0.61822000  0.29683000  1
  C  C58  1  0.08554000  0.62221000  0.29944000  1
  C  C59  1  0.49884000  0.26004000  0.50570000  1
  C  C60  1  0.49959000  0.49953000  0.74228000  1
  C  C61  1  0.64883000  0.52560000  0.06702000  1
  C  C62  1  0.64343000  0.54103000  0.92455000  1
  C  C63  1  0.44545000  0.38140000  0.08111000  1
  C  C64  1  0.41453000  0.61837000  0.07019000  1
  C  C65  1  0.50348000  0.50876000  0.12187000  1
  C  C66  1  0.35191000  0.29470000  0.88468000  1
  C  C67  1  0.83703000  0.87052000  0.64262000  1
  C  C68  1  0.12651000  0.31143000  0.64797000  1
  C  C69  1  0.86123000  0.74018000  0.25759000  1
  C  C70  1  0.15656000  0.74943000  0.27254000  1
  C  C71  1  0.46975000  0.74885000  0.10720000  1
  C  C72  1  0.39662000  0.72931000  0.84954000  1
  N  N73  1  0.14280000  0.50086000  0.49915000  1
  N  N74  1  0.85715000  0.50082000  0.49915000  1
  O  O75  1  0.61469000  0.68321000  0.50002000  1
  O  O76  1  0.38535000  0.68324000  0.50000000  1
  O  O77  1  0.61467000  0.50000000  0.31480000  1
  O  O78  1  0.38533000  0.50004000  0.31479000  1
  O  O79  1  0.61465000  0.31676000  0.50000000  1
  O  O80  1  0.38531000  0.31679000  0.49998000  1
  O  O81  1  0.61467000  0.49996000  0.68521000  1
  O  O82  1  0.38533000  0.50000000  0.68520000  1
