# generated using pymatgen
data_CoH10(C2N)4
_symmetry_space_group_name_H-M   'P 1'
_cell_length_a   16.94712000
_cell_length_b   16.94766000
_cell_length_c   16.94993000
_cell_angle_alpha   90.02569000
_cell_angle_beta   89.98242000
_cell_angle_gamma   89.99189000
_symmetry_Int_Tables_number   1
_chemical_formula_structural   CoH10(C2N)4
_chemical_formula_sum   'Co12 H120 C96 N48'
_cell_volume   4868.25689782
_cell_formula_units_Z   12
loop_
 _symmetry_equiv_pos_site_id
 _symmetry_equiv_pos_as_xyz
  1  'x, y, z'
loop_
 _atom_site_type_symbol
 _atom_site_label
 _atom_site_symmetry_multiplicity
 _atom_site_fract_x
 _atom_site_fract_y
 _atom_site_fract_z
 _atom_site_occupancy
  Co  Co1  1  0.50009000  0.74995000  0.00012000  1.0
  Co  Co2  1  0.49995000  0.24999000  0.99985000  1.0
  Co  Co3  1  0.00005000  0.50004000  0.25005000  1.0
  Co  Co4  1  0.00005000  0.49988000  0.74996000  1.0
  Co  Co5  1  0.25002000  0.99997000  0.50000000  1.0
  Co  Co6  1  0.75003000  0.00001000  0.49995000  1.0
  Co  Co7  1  0.25003000  0.50005000  0.99990000  1.0
  Co  Co8  1  0.75010000  0.49986000  0.99997000  1.0
  Co  Co9  1  0.50005000  0.00020000  0.24998000  1.0
  Co  Co10  1  0.50002000  0.99979000  0.74997000  1.0
  Co  Co11  1  0.00006000  0.75000000  0.50020000  1.0
  Co  Co12  1  0.00006000  0.24994000  0.49991000  1.0
  H  H1  1  0.53355000  0.58011000  0.91341000  1.0
  H  H2  1  0.46646000  0.41992000  0.91360000  1.0
  H  H3  1  0.46633000  0.58014000  0.08650000  1.0
  H  H4  1  0.91354000  0.46630000  0.41980000  1.0
  H  H5  1  0.08665000  0.53354000  0.41989000  1.0
  H  H6  1  0.08637000  0.46644000  0.58008000  1.0
  H  H7  1  0.41987000  0.08661000  0.53364000  1.0
  H  H8  1  0.41986000  0.91340000  0.46634000  1.0
  H  H9  1  0.58026000  0.46633000  0.08640000  1.0
  H  H10  1  0.53367000  0.08637000  0.41983000  1.0
  H  H11  1  0.53369000  0.91366000  0.58018000  1.0
  H  H12  1  0.91355000  0.58021000  0.53362000  1.0
  H  H13  1  0.03369000  0.08018000  0.41370000  1.0
  H  H14  1  0.03368000  0.91984000  0.58636000  1.0
  H  H15  1  0.41362000  0.96640000  0.91981000  1.0
  H  H16  1  0.41356000  0.03354000  0.08015000  1.0
  H  H17  1  0.08016000  0.58633000  0.96631000  1.0
  H  H18  1  0.91985000  0.96636000  0.41340000  1.0
  H  H19  1  0.91991000  0.03357000  0.58667000  1.0
  H  H20  1  0.96635000  0.58657000  0.08022000  1.0
  H  H21  1  0.03360000  0.41336000  0.08018000  1.0
  H  H22  1  0.58643000  0.08016000  0.96645000  1.0
  H  H23  1  0.58648000  0.91983000  0.03354000  1.0
  H  H24  1  0.63086000  0.54565000  0.89284000  1.0
  H  H25  1  0.36918000  0.45435000  0.89297000  1.0
  H  H26  1  0.36911000  0.54563000  0.10700000  1.0
  H  H27  1  0.89299000  0.36910000  0.45433000  1.0
  H  H28  1  0.10716000  0.63084000  0.45434000  1.0
  H  H29  1  0.10709000  0.36917000  0.54562000  1.0
  H  H30  1  0.45437000  0.10708000  0.63085000  1.0
  H  H31  1  0.45440000  0.89290000  0.36913000  1.0
  H  H32  1  0.54570000  0.36914000  0.10700000  1.0
  H  H33  1  0.63087000  0.10702000  0.45434000  1.0
  H  H34  1  0.63089000  0.89298000  0.54563000  1.0
  H  H35  1  0.89293000  0.54569000  0.63081000  1.0
  H  H36  1  0.13088000  0.04562000  0.39299000  1.0
  H  H37  1  0.13088000  0.95436000  0.60701000  1.0
  H  H38  1  0.39292000  0.86915000  0.95430000  1.0
  H  H39  1  0.39289000  0.13081000  0.04571000  1.0
  H  H40  1  0.04564000  0.60697000  0.86914000  1.0
  H  H41  1  0.95441000  0.39293000  0.86916000  1.0
  H  H42  1  0.95439000  0.86913000  0.39291000  1.0
  H  H43  1  0.95438000  0.13082000  0.60711000  1.0
  H  H44  1  0.86914000  0.60705000  0.04572000  1.0
  H  H45  1  0.13086000  0.39289000  0.04566000  1.0
  H  H46  1  0.60712000  0.04567000  0.86918000  1.0
  H  H47  1  0.60711000  0.95431000  0.13081000  1.0
  H  H48  1  0.60272000  0.64411000  0.86850000  1.0
  H  H49  1  0.39737000  0.35592000  0.86849000  1.0
  H  H50  1  0.39719000  0.64413000  0.13153000  1.0
  H  H51  1  0.86846000  0.39718000  0.35586000  1.0
  H  H52  1  0.13159000  0.60269000  0.35588000  1.0
  H  H53  1  0.13148000  0.39736000  0.64406000  1.0
  H  H54  1  0.35585000  0.13152000  0.60281000  1.0
  H  H55  1  0.35586000  0.86848000  0.39720000  1.0
  H  H56  1  0.64420000  0.39722000  0.13149000  1.0
  H  H57  1  0.60276000  0.13153000  0.35588000  1.0
  H  H58  1  0.60276000  0.86848000  0.64409000  1.0
  H  H59  1  0.86849000  0.64419000  0.60276000  1.0
  H  H60  1  0.10278000  0.14411000  0.36852000  1.0
  H  H61  1  0.10276000  0.85588000  0.63151000  1.0
  H  H62  1  0.36850000  0.89728000  0.85585000  1.0
  H  H63  1  0.36849000  0.10269000  0.14415000  1.0
  H  H64  1  0.14414000  0.63147000  0.89723000  1.0
  H  H65  1  0.85592000  0.36848000  0.89727000  1.0
  H  H66  1  0.85586000  0.89720000  0.36850000  1.0
  H  H67  1  0.85586000  0.10277000  0.63152000  1.0
  H  H68  1  0.89718000  0.63157000  0.14420000  1.0
  H  H69  1  0.10276000  0.36845000  0.14415000  1.0
  H  H70  1  0.63151000  0.14413000  0.89734000  1.0
  H  H71  1  0.63156000  0.85586000  0.10264000  1.0
  H  H72  1  0.61190000  0.72693000  0.15100000  1.0
  H  H73  1  0.38719000  0.27168000  0.15017000  1.0
  H  H74  1  0.38777000  0.72819000  0.84973000  1.0
  H  H75  1  0.61144000  0.27299000  0.84898000  1.0
  H  H76  1  0.15106000  0.38844000  0.27293000  1.0
  H  H77  1  0.15029000  0.61214000  0.72813000  1.0
  H  H78  1  0.84905000  0.61189000  0.27308000  1.0
  H  H79  1  0.84973000  0.38715000  0.72830000  1.0
  H  H80  1  0.27182000  0.84971000  0.61233000  1.0
  H  H81  1  0.72715000  0.84908000  0.38801000  1.0
  H  H82  1  0.27181000  0.15029000  0.38769000  1.0
  H  H83  1  0.72716000  0.15091000  0.61198000  1.0
  H  H84  1  0.27167000  0.38736000  0.15018000  1.0
  H  H85  1  0.72818000  0.61215000  0.15016000  1.0
  H  H86  1  0.27288000  0.61208000  0.84914000  1.0
  H  H87  1  0.72732000  0.38803000  0.84907000  1.0
  H  H88  1  0.61259000  0.84978000  0.27156000  1.0
  H  H89  1  0.38827000  0.84907000  0.72689000  1.0
  H  H90  1  0.38827000  0.15093000  0.27309000  1.0
  H  H91  1  0.61258000  0.15022000  0.72845000  1.0
  H  H92  1  0.15094000  0.72719000  0.61220000  1.0
  H  H93  1  0.15089000  0.27277000  0.38812000  1.0
  H  H94  1  0.84981000  0.72817000  0.38783000  1.0
  H  H95  1  0.84982000  0.27163000  0.61262000  1.0
  H  H96  1  0.11261000  0.22842000  0.65025000  1.0
  H  H97  1  0.88828000  0.77311000  0.65093000  1.0
  H  H98  1  0.88761000  0.22802000  0.34979000  1.0
  H  H99  1  0.11258000  0.77157000  0.34978000  1.0
  H  H100  1  0.65093000  0.88797000  0.77275000  1.0
  H  H101  1  0.65091000  0.11225000  0.22714000  1.0
  H  H102  1  0.34976000  0.11209000  0.77182000  1.0
  H  H103  1  0.34974000  0.88789000  0.22815000  1.0
  H  H104  1  0.77305000  0.34905000  0.11155000  1.0
  H  H105  1  0.22844000  0.34974000  0.88741000  1.0
  H  H106  1  0.77167000  0.65024000  0.88722000  1.0
  H  H107  1  0.22809000  0.65022000  0.11221000  1.0
  H  H108  1  0.77180000  0.88769000  0.65029000  1.0
  H  H109  1  0.22719000  0.11195000  0.65090000  1.0
  H  H110  1  0.77192000  0.11254000  0.34972000  1.0
  H  H111  1  0.22717000  0.88802000  0.34908000  1.0
  H  H112  1  0.11200000  0.34904000  0.77281000  1.0
  H  H113  1  0.88838000  0.34907000  0.22706000  1.0
  H  H114  1  0.88734000  0.65015000  0.77170000  1.0
  H  H115  1  0.11183000  0.65101000  0.22702000  1.0
  H  H116  1  0.65025000  0.22819000  0.11209000  1.0
  H  H117  1  0.65100000  0.77295000  0.88858000  1.0
  H  H118  1  0.34906000  0.22719000  0.88777000  1.0
  H  H119  1  0.34911000  0.77280000  0.11220000  1.0
  H  H120  1  0.91989000  0.41360000  0.96635000  1.0
  C  C1  1  0.59630000  0.59676000  0.91241000  1.0
  C  C2  1  0.40373000  0.40323000  0.91248000  1.0
  C  C3  1  0.40358000  0.59682000  0.08753000  1.0
  C  C4  1  0.59691000  0.40358000  0.08752000  1.0
  C  C5  1  0.91246000  0.40355000  0.40314000  1.0
  C  C6  1  0.91247000  0.59687000  0.59637000  1.0
  C  C7  1  0.08763000  0.59628000  0.40322000  1.0
  C  C8  1  0.08752000  0.40370000  0.59674000  1.0
  C  C9  1  0.40320000  0.08758000  0.59638000  1.0
  C  C10  1  0.59642000  0.08754000  0.40316000  1.0
  C  C11  1  0.40321000  0.91241000  0.40360000  1.0
  C  C12  1  0.59643000  0.91248000  0.59683000  1.0
  C  C13  1  0.09644000  0.09683000  0.41251000  1.0
  C  C14  1  0.90320000  0.90361000  0.41242000  1.0
  C  C15  1  0.90323000  0.09632000  0.58759000  1.0
  C  C16  1  0.09643000  0.90316000  0.58753000  1.0
  C  C17  1  0.41247000  0.90364000  0.90316000  1.0
  C  C18  1  0.41246000  0.09629000  0.09682000  1.0
  C  C19  1  0.58754000  0.09681000  0.90371000  1.0
  C  C20  1  0.58757000  0.90317000  0.09627000  1.0
  C  C21  1  0.90361000  0.58758000  0.09689000  1.0
  C  C22  1  0.09684000  0.58749000  0.90357000  1.0
  C  C23  1  0.90322000  0.41246000  0.90363000  1.0
  C  C24  1  0.09634000  0.41239000  0.09683000  1.0
  C  C25  1  0.62277000  0.62275000  0.99218000  1.0
  C  C26  1  0.37716000  0.37709000  0.99216000  1.0
  C  C27  1  0.37719000  0.62292000  0.00781000  1.0
  C  C28  1  0.62295000  0.37713000  0.00776000  1.0
  C  C29  1  0.99223000  0.37715000  0.37706000  1.0
  C  C30  1  0.99222000  0.62288000  0.62285000  1.0
  C  C31  1  0.00785000  0.62275000  0.37724000  1.0
  C  C32  1  0.00782000  0.37712000  0.62286000  1.0
  C  C33  1  0.37716000  0.00781000  0.62275000  1.0
  C  C34  1  0.62291000  0.00782000  0.37702000  1.0
  C  C35  1  0.37718000  0.99218000  0.37723000  1.0
  C  C36  1  0.62293000  0.99218000  0.62296000  1.0
  C  C37  1  0.12295000  0.12295000  0.49220000  1.0
  C  C38  1  0.87716000  0.87723000  0.49218000  1.0
  C  C39  1  0.87719000  0.12272000  0.50784000  1.0
  C  C40  1  0.12292000  0.87703000  0.50782000  1.0
  C  C41  1  0.49223000  0.87712000  0.87714000  1.0
  C  C42  1  0.49220000  0.12283000  0.12282000  1.0
  C  C43  1  0.50780000  0.12282000  0.87717000  1.0
  C  C44  1  0.50783000  0.87715000  0.12280000  1.0
  C  C45  1  0.87726000  0.50780000  0.12290000  1.0
  C  C46  1  0.12297000  0.50778000  0.87708000  1.0
  C  C47  1  0.87710000  0.49215000  0.87711000  1.0
  C  C48  1  0.12274000  0.49218000  0.12283000  1.0
  C  C49  1  0.62846000  0.68543000  0.10537000  1.0
  C  C50  1  0.37117000  0.31391000  0.10505000  1.0
  C  C51  1  0.37163000  0.68603000  0.89485000  1.0
  C  C52  1  0.62816000  0.31446000  0.89453000  1.0
  C  C53  1  0.10548000  0.37181000  0.31440000  1.0
  C  C54  1  0.10520000  0.62835000  0.68598000  1.0
  C  C55  1  0.89467000  0.62842000  0.31456000  1.0
  C  C56  1  0.89489000  0.37113000  0.68608000  1.0
  C  C57  1  0.31405000  0.89483000  0.62840000  1.0
  C  C58  1  0.68563000  0.89464000  0.37144000  1.0
  C  C59  1  0.31404000  0.10517000  0.37160000  1.0
  C  C60  1  0.68564000  0.10535000  0.62855000  1.0
  C  C61  1  0.31391000  0.37127000  0.10507000  1.0
  C  C62  1  0.68595000  0.62828000  0.10512000  1.0
  C  C63  1  0.31446000  0.62857000  0.89467000  1.0
  C  C64  1  0.68568000  0.37160000  0.89458000  1.0
  C  C65  1  0.62862000  0.89486000  0.31383000  1.0
  C  C66  1  0.37164000  0.89462000  0.68541000  1.0
  C  C67  1  0.37165000  0.10538000  0.31458000  1.0
  C  C68  1  0.62862000  0.10513000  0.68618000  1.0
  C  C69  1  0.10538000  0.68560000  0.62863000  1.0
  C  C70  1  0.10541000  0.31440000  0.37162000  1.0
  C  C71  1  0.89488000  0.68594000  0.37169000  1.0
  C  C72  1  0.89490000  0.31388000  0.62870000  1.0
  C  C73  1  0.12865000  0.18615000  0.60515000  1.0
  C  C74  1  0.87165000  0.81459000  0.60538000  1.0
  C  C75  1  0.87145000  0.18584000  0.39489000  1.0
  C  C76  1  0.12862000  0.81383000  0.39486000  1.0
  C  C77  1  0.60541000  0.87154000  0.81439000  1.0
  C  C78  1  0.60534000  0.12867000  0.18555000  1.0
  C  C79  1  0.39484000  0.12829000  0.81399000  1.0
  C  C80  1  0.39485000  0.87168000  0.18599000  1.0
  C  C81  1  0.81457000  0.39459000  0.12817000  1.0
  C  C82  1  0.18617000  0.39482000  0.87137000  1.0
  C  C83  1  0.81389000  0.60508000  0.87119000  1.0
  C  C84  1  0.18589000  0.60515000  0.12836000  1.0
  C  C85  1  0.81403000  0.87161000  0.60517000  1.0
  C  C86  1  0.18567000  0.12852000  0.60536000  1.0
  C  C87  1  0.81410000  0.12861000  0.39488000  1.0
  C  C88  1  0.18565000  0.87145000  0.39464000  1.0
  C  C89  1  0.12858000  0.39459000  0.81435000  1.0
  C  C90  1  0.87184000  0.39462000  0.18554000  1.0
  C  C91  1  0.87125000  0.60506000  0.81392000  1.0
  C  C92  1  0.12839000  0.60539000  0.18551000  1.0
  C  C93  1  0.60516000  0.18601000  0.12830000  1.0
  C  C94  1  0.60546000  0.81443000  0.87190000  1.0
  C  C95  1  0.39465000  0.18558000  0.87135000  1.0
  C  C96  1  0.39468000  0.81440000  0.12861000  1.0
  N  N1  1  0.58872000  0.68210000  0.03379000  1.0
  N  N2  1  0.41094000  0.31743000  0.03347000  1.0
  N  N3  1  0.41111000  0.68256000  0.96653000  1.0
  N  N4  1  0.58871000  0.31784000  0.96628000  1.0
  N  N5  1  0.03375000  0.41127000  0.31769000  1.0
  N  N6  1  0.03348000  0.58885000  0.68240000  1.0
  N  N7  1  0.96627000  0.58867000  0.31791000  1.0
  N  N8  1  0.96647000  0.41089000  0.68255000  1.0
  N  N9  1  0.31746000  0.96653000  0.58893000  1.0
  N  N10  1  0.68219000  0.96630000  0.41115000  1.0
  N  N11  1  0.31745000  0.03347000  0.41107000  1.0
  N  N12  1  0.68220000  0.03370000  0.58882000  1.0
  N  N13  1  0.31757000  0.41102000  0.03348000  1.0
  N  N14  1  0.68239000  0.58877000  0.03339000  1.0
  N  N15  1  0.31783000  0.58888000  0.96632000  1.0
  N  N16  1  0.68252000  0.41100000  0.96637000  1.0
  N  N17  1  0.58917000  0.96661000  0.31724000  1.0
  N  N18  1  0.41137000  0.96625000  0.68197000  1.0
  N  N19  1  0.41139000  0.03374000  0.31801000  1.0
  N  N20  1  0.58917000  0.03340000  0.68276000  1.0
  N  N21  1  0.03374000  0.68232000  0.58894000  1.0
  N  N22  1  0.03361000  0.31768000  0.41105000  1.0
  N  N23  1  0.96659000  0.68240000  0.41120000  1.0
  N  N24  1  0.96652000  0.31755000  0.58892000  1.0
  N  N25  1  0.08921000  0.18276000  0.53343000  1.0
  N  N26  1  0.91139000  0.81802000  0.53375000  1.0
  N  N27  1  0.91121000  0.18221000  0.46648000  1.0
  N  N28  1  0.08917000  0.81724000  0.46660000  1.0
  N  N29  1  0.53363000  0.91096000  0.81756000  1.0
  N  N30  1  0.53371000  0.08895000  0.18227000  1.0
  N  N31  1  0.46655000  0.08877000  0.81760000  1.0
  N  N32  1  0.46655000  0.91119000  0.18239000  1.0
  N  N33  1  0.81790000  0.46635000  0.08874000  1.0
  N  N34  1  0.18275000  0.46657000  0.91083000  1.0
  N  N35  1  0.81743000  0.53350000  0.91092000  1.0
  N  N36  1  0.18237000  0.53341000  0.08887000  1.0
  N  N37  1  0.81743000  0.91106000  0.53347000  1.0
  N  N38  1  0.18222000  0.08880000  0.53371000  1.0
  N  N39  1  0.81761000  0.08885000  0.46644000  1.0
  N  N40  1  0.18221000  0.91115000  0.46630000  1.0
  N  N41  1  0.08887000  0.46625000  0.81779000  1.0
  N  N42  1  0.91129000  0.46635000  0.18234000  1.0
  N  N43  1  0.91101000  0.53345000  0.81754000  1.0
  N  N44  1  0.08867000  0.53379000  0.18217000  1.0
  N  N45  1  0.53346000  0.18240000  0.08879000  1.0
  N  N46  1  0.53371000  0.81784000  0.91138000  1.0
  N  N47  1  0.46626000  0.18231000  0.91106000  1.0
  N  N48  1  0.46631000  0.81769000  0.08889000  1.0
