# generated using pymatgen
data_H17C18N2O
_symmetry_space_group_name_H-M   'P 1'
_cell_length_a   9.84776667
_cell_length_b   33.38730000
_cell_length_c   41.86670000
_cell_angle_alpha   90.29920000
_cell_angle_beta   90.89090000
_cell_angle_gamma   90.69880000
_symmetry_Int_Tables_number   1
_chemical_formula_structural   H17C18N2O
_chemical_formula_sum   'H170 C180 N20 O10'
_cell_volume   13762.47722037
_cell_formula_units_Z   10
loop_
 _symmetry_equiv_pos_site_id
 _symmetry_equiv_pos_as_xyz
  1  'x, y, z'
loop_
 _atom_site_type_symbol
 _atom_site_label
 _atom_site_symmetry_multiplicity
 _atom_site_fract_x
 _atom_site_fract_y
 _atom_site_fract_z
 _atom_site_occupancy
  C  1  1  0.89685400  0.01046867  0.02336933  1
  C  2  1  0.88943000  0.98244567  0.99738267  1
  C  3  1  0.91264600  0.94076833  0.00067567  1
  C  4  1  0.92951700  0.92523967  0.03209300  1
  C  5  1  0.92667500  0.95064400  0.05933067  1
  C  6  1  0.91421900  0.99244100  0.05393633  1
  C  9  1  0.89683200  0.05365400  0.01941700  1
  C  10  1  0.91434100  0.07181600  0.98898500  1
  C  11  1  0.92676200  0.11370500  0.98370233  1
  C  12  1  0.92938200  0.13912000  0.01096633  1
  C  13  1  0.91241000  0.12346200  0.04225233  1
  C  14  1  0.88913100  0.08161600  0.04535367  1
  C  21  1  0.94357600  0.93718867  0.09135333  1
  C  22  1  0.93166000  0.91590400  0.97345600  1
  C  23  1  0.94373400  0.12733800  0.95182500  1
  C  24  1  0.93146700  0.14844133  0.06962300  1
  C  29  1  0.93801300  0.80795533  0.33350433  1
  C  30  1  0.94093000  0.81224267  0.29928433  1
  C  31  1  0.95498000  0.84978367  0.28346800  1
  C  32  1  0.97005600  0.88454267  0.30306733  1
  C  33  1  0.95293700  0.88341700  0.33647367  1
  C  34  1  0.93941700  0.84521800  0.35062200  1
  C  37  1  0.93581500  0.76978567  0.35026000  1
  C  38  1  0.91966900  0.73194900  0.33431733  1
  C  39  1  0.93023400  0.69409700  0.34971300  1
  C  40  1  0.95069400  0.69389800  0.38336200  1
  C  41  1  0.95314000  0.73005300  0.40140533  1
  C  42  1  0.94992000  0.76662433  0.38434800  1
  C  49  1  0.95521600  0.91893167  0.35540667  1
  C  50  1  0.96012800  0.85613500  0.24980800  1
  C  51  1  0.90411400  0.65763600  0.33279133  1
  C  52  1  0.94701900  0.72835067  0.43535267  1
  C  57  1  0.93806900  0.25642667  0.70967833  1
  C  58  1  0.94086100  0.25216500  0.74392233  1
  C  59  1  0.95475500  0.21473700  0.75986767  1
  C  60  1  0.96995800  0.18007833  0.74039267  1
  C  61  1  0.95316200  0.18107100  0.70684500  1
  C  62  1  0.93976200  0.21916900  0.69258267  1
  C  65  1  0.93588400  0.29457500  0.69289333  1
  C  66  1  0.91986500  0.33230000  0.70871900  1
  C  67  1  0.93033700  0.37022400  0.69339900  1
  C  68  1  0.95070200  0.37057300  0.65989800  1
  C  69  1  0.95312000  0.33443800  0.64186533  1
  C  70  1  0.94985100  0.29784400  0.65890333  1
  C  77  1  0.95575100  0.14558100  0.68791400  1
  C  78  1  0.95990500  0.20845800  0.79357433  1
  C  79  1  0.90435700  0.40650300  0.71013467  1
  C  80  1  0.94684400  0.33610333  0.60787367  1
  C  85  1  0.94220000  0.26911433  0.32966833  1
  C  86  1  0.91442400  0.26817767  0.29606933  1
  C  87  1  0.92948500  0.23360533  0.27651667  1
  C  88  1  0.96937900  0.19759800  0.29166467  1
  C  89  1  0.97935600  0.19492900  0.32547967  1
  C  90  1  0.97107600  0.23109600  0.34337500  1
  C  93  1  0.93477600  0.30551800  0.34844767  1
  C  94  1  0.95026600  0.34415200  0.33438567  1
  C  95  1  0.93109000  0.38081100  0.35103767  1
  C  96  1  0.89670900  0.37859500  0.38377133  1
  C  97  1  0.89901400  0.34147400  0.40039667  1
  C  98  1  0.91595800  0.30588100  0.38224000  1
  C  105  1  0.99329000  0.15793200  0.34185233  1
  C  106  1  0.89155500  0.23411300  0.24360133  1
  C  107  1  0.95963800  0.41815100  0.33616400  1
  C  108  1  0.88425700  0.34128200  0.43414567  1
  C  113  1  0.94245500  0.79532600  0.71348033  1
  C  114  1  0.91460600  0.79607100  0.74687067  1
  C  115  1  0.92975400  0.83075200  0.76652733  1
  C  116  1  0.96982700  0.86703600  0.75168200  1
  C  117  1  0.97978200  0.86977767  0.71793800  1
  C  118  1  0.97137000  0.83354933  0.69998367  1
  C  121  1  0.93501000  0.75886400  0.69465333  1
  C  122  1  0.95051100  0.72034500  0.70883633  1
  C  123  1  0.93127400  0.68354800  0.69204967  1
  C  124  1  0.89680200  0.68551200  0.65907267  1
  C  125  1  0.89916800  0.72264200  0.64244767  1
  C  126  1  0.91628200  0.75836267  0.66072067  1
  C  133  1  0.99400700  0.90686800  0.70166367  1
  C  134  1  0.89201200  0.82997000  0.79917567  1
  C  135  1  0.95963100  0.64640267  0.70712833  1
  C  136  1  0.88439000  0.72271800  0.60859067  1
  C  141  1  0.96431200  0.87996600  0.13078467  1
  C  142  1  0.05698500  0.89519867  0.15468133  1
  C  143  1  0.06855100  0.87514233  0.18475433  1
  C  144  1  0.97711400  0.84316967  0.19258133  1
  C  145  1  0.90401400  0.82396533  0.16709667  1
  C  146  1  0.89971400  0.84199367  0.13601000  1
  C  147  1  0.18890900  0.88344833  0.20633000  1
  C  151  1  0.14903800  0.92991033  0.14686500  1
  C  155  1  0.82461400  0.78627467  0.17339133  1
  C  159  1  0.81771800  0.82198133  0.10979667  1
  C  165  1  0.96451400  0.18482300  0.91265633  1
  C  166  1  0.05760200  0.17034200  0.88950467  1
  C  167  1  0.06888800  0.19037000  0.85946200  1
  C  168  1  0.97732400  0.22164067  0.85092367  1
  C  169  1  0.90408300  0.24032000  0.87586300  1
  C  170  1  0.89966700  0.22227900  0.90691933  1
  C  171  1  0.18879000  0.18271000  0.83867700  1
  C  175  1  0.15022100  0.13647300  0.89811367  1
  C  179  1  0.82423200  0.27734300  0.86894300  1
  C  183  1  0.81724900  0.24161000  0.93250367  1
  C  189  1  0.89693300  0.15883600  0.12860733  1
  C  190  1  0.78013200  0.16499600  0.14775800  1
  C  191  1  0.79335600  0.18536000  0.17795700  1
  C  192  1  0.92519800  0.19452167  0.19087600  1
  C  193  1  0.04289700  0.18406733  0.17333200  1
  C  194  1  0.02892100  0.16814100  0.14153100  1
  C  195  1  0.67285900  0.19443900  0.19814200  1
  C  199  1  0.64194200  0.15240700  0.13541100  1
  C  203  1  0.18206000  0.19265000  0.18721600  1
  C  207  1  0.15053500  0.15657800  0.12246900  1
  C  213  1  0.89721900  0.90527000  0.91421167  1
  C  214  1  0.78045900  0.89833633  0.89417500  1
  C  215  1  0.79370100  0.87808100  0.86406800  1
  C  216  1  0.92554400  0.86980900  0.85214867  1
  C  217  1  0.04324100  0.88104633  0.87058533  1
  C  218  1  0.02921400  0.89686500  0.90228467  1
  C  219  1  0.67325400  0.86821533  0.84295833  1
  C  223  1  0.64228700  0.90998300  0.90548033  1
  C  227  1  0.18241200  0.87339900  0.85775567  1
  C  231  1  0.15081800  0.90924400  0.92226667  1
  C  237  1  0.90301600  0.76126033  0.48790733  1
  C  238  1  0.96179200  0.79262533  0.50708833  1
  C  239  1  0.95374900  0.79077600  0.54125500  1
  C  240  1  0.88158700  0.75868933  0.55603400  1
  C  241  1  0.79661700  0.73333800  0.53646133  1
  C  242  1  0.80911900  0.73406133  0.50236467  1
  C  243  1  0.02609500  0.82039100  0.56289167  1
  C  247  1  0.04099600  0.82577867  0.49170600  1
  C  251  1  0.68217300  0.71002500  0.55116800  1
  C  255  1  0.71087900  0.70990300  0.48196833  1
  C  261  1  0.90296100  0.30288900  0.55498333  1
  C  262  1  0.96181800  0.27196900  0.53622933  1
  C  263  1  0.95376000  0.27375900  0.50200467  1
  C  264  1  0.88153500  0.30531200  0.48669700  1
  C  265  1  0.79654500  0.33003800  0.50564767  1
  C  266  1  0.80901900  0.32939667  0.53983633  1
  C  267  1  0.02617200  0.24468400  0.48089667  1
  C  271  1  0.04111900  0.23940600  0.55219067  1
  C  275  1  0.68211300  0.35253167  0.49010133  1
  C  279  1  0.71071000  0.35281533  0.55951333  1
  C  285  1  0.93748300  0.99659300  0.34163367  1
  C  286  1  0.88823000  0.01471800  0.31308400  1
  C  287  1  0.90549800  0.05689000  0.30865900  1
  C  288  1  0.96737800  0.08099000  0.33327933  1
  C  289  1  0.01615600  0.06253900  0.36185500  1
  C  290  1  0.99399300  0.02056933  0.36676500  1
  C  291  1  0.86247300  0.07692300  0.27813067  1
  C  295  1  0.80921500  0.99020100  0.28886567  1
  C  299  1  0.10879000  0.08575800  0.38393033  1
  C  303  1  0.02653700  0.00054133  0.39777267  1
  C  309  1  0.93784500  0.06777900  0.70149867  1
  C  310  1  0.88843100  0.04927900  0.72966333  1
  C  311  1  0.90570000  0.00723200  0.73421100  1
  C  312  1  0.96774600  0.98359300  0.71006167  1
  C  313  1  0.01665200  0.00241200  0.68186167  1
  C  314  1  0.99448000  0.04422200  0.67679067  1
  C  315  1  0.86252200  0.98687600  0.76440533  1
  C  319  1  0.80928200  0.07321500  0.75328233  1
  C  323  1  0.10943200  0.97988100  0.66049067  1
  C  327  1  0.02715100  0.06449667  0.64603600  1
  C  333  1  0.93433100  0.58033700  0.34083233  1
  C  334  1  0.05430200  0.55687367  0.34398033  1
  C  335  1  0.04618800  0.51393200  0.34203667  1
  C  336  1  0.91656500  0.49428067  0.34138333  1
  C  337  1  0.79628000  0.51772900  0.34104867  1
  C  338  1  0.80489300  0.56061900  0.33897500  1
  C  339  1  0.17015700  0.48827400  0.34370133  1
  C  343  1  0.19075600  0.57719900  0.34772467  1
  C  347  1  0.65893300  0.49737500  0.34113533  1
  C  351  1  0.67590500  0.58410400  0.33848133  1
  C  357  1  0.93434100  0.48403800  0.70227100  1
  C  358  1  0.05424000  0.50837000  0.69983067  1
  C  359  1  0.04616500  0.55125600  0.70172133  1
  C  360  1  0.91654400  0.56996700  0.70160800  1
  C  361  1  0.79626100  0.54564800  0.70123333  1
  C  362  1  0.80493500  0.50281800  0.70335667  1
  C  363  1  0.17007700  0.57781600  0.70077533  1
  C  367  1  0.19060800  0.48903700  0.69688767  1
  C  371  1  0.65889900  0.56500900  0.70034867  1
  C  375  1  0.67595700  0.47840000  0.70308433  1
  H  7  1  0.87426600  0.99241000  0.97467500  1
  H  16  1  0.87405500  0.07153500  0.06794900  1
  H  17  1  0.86322900  0.87184200  0.03336900  1
  H  18  1  0.86307100  0.19203500  0.00921700  1
  H  19  1  0.92341800  0.01036000  0.07361733  1
  H  20  1  0.92357200  0.05397600  0.96936333  1
  H  25  1  0.97753800  0.17575700  0.06665867  1
  H  26  1  0.94876200  0.95875533  0.10869067  1
  H  27  1  0.97751700  0.88889200  0.97675533  1
  H  28  1  0.94944200  0.10586100  0.93448867  1
  H  35  1  0.93839800  0.78748300  0.28493467  1
  H  44  1  0.95943800  0.79161500  0.39817400  1
  H  45  1  0.11465000  0.91889867  0.29042833  1
  H  46  1  0.85941400  0.65039500  0.40326600  1
  H  47  1  0.92621300  0.84565100  0.37465233  1
  H  48  1  0.90165900  0.73131067  0.31026133  1
  H  53  1  0.94217300  0.70069933  0.44567933  1
  H  54  1  0.96406900  0.91688133  0.37969167  1
  H  55  1  0.96398000  0.88556167  0.24312967  1
  H  56  1  0.85080300  0.65856100  0.31163500  1
  H  63  1  0.93805800  0.27691100  0.75824567  1
  H  72  1  0.95919400  0.27292200  0.64513833  1
  H  73  1  0.11453100  0.14677300  0.75410267  1
  H  74  1  0.85933300  0.41341333  0.63933967  1
  H  75  1  0.92675300  0.21863133  0.66844933  1
  H  76  1  0.90193000  0.33281400  0.73264633  1
  H  81  1  0.94199900  0.36372333  0.59751867  1
  H  82  1  0.96459600  0.14770633  0.66369367  1
  H  83  1  0.96360300  0.17910600  0.80031567  1
  H  84  1  0.85117600  0.40518700  0.73091767  1
  H  91  1  0.88095700  0.29359700  0.28510700  1
  H  100  1  0.90606400  0.27947100  0.39418000  1
  H  101  1  0.08517800  0.16223167  0.27022100  1
  H  102  1  0.78453000  0.41841100  0.40124100  1
  H  103  1  0.98905600  0.22928400  0.36740133  1
  H  104  1  0.97786200  0.34604800  0.31098600  1
  H  109  1  0.87144000  0.36826800  0.44522667  1
  H  110  1  0.00379800  0.15865500  0.36616300  1
  H  111  1  0.83070700  0.25661300  0.23550667  1
  H  112  1  0.01745400  0.41820300  0.31608667  1
  H  119  1  0.88112000  0.77041400  0.75759100  1
  H  128  1  0.90620700  0.78469300  0.64870767  1
  H  129  1  0.08593400  0.90317300  0.77396367  1
  H  130  1  0.78447800  0.64489600  0.64080933  1
  H  131  1  0.98943200  0.83547800  0.67609233  1
  H  132  1  0.97806600  0.71865200  0.73244167  1
  H  137  1  0.87144200  0.69564067  0.59742400  1
  H  138  1  0.00425800  0.90619500  0.67742700  1
  H  139  1  0.83079500  0.80710000  0.80680400  1
  H  140  1  0.01781900  0.64674600  0.72757600  1
  H  148  1  0.28258500  0.88013967  0.19305400  1
  H  149  1  0.19901000  0.86263567  0.22614567  1
  H  150  1  0.18407600  0.91378267  0.21607300  1
  H  152  1  0.18366100  0.92782900  0.12228467  1
  H  153  1  0.24120200  0.93241967  0.16132033  1
  H  154  1  0.09479200  0.95780633  0.15033467  1
  H  156  1  0.83788500  0.77462933  0.19751800  1
  H  157  1  0.85653500  0.76259933  0.15723800  1
  H  158  1  0.71644500  0.79155667  0.16969367  1
  H  160  1  0.82142300  0.83714733  0.08688333  1
  H  161  1  0.71114300  0.82011367  0.11644267  1
  H  162  1  0.85536500  0.79183100  0.10566967  1
  H  172  1  0.28272200  0.18688867  0.85251400  1
  H  173  1  0.19850500  0.20334100  0.81877367  1
  H  174  1  0.18373800  0.15221400  0.82915000  1
  H  176  1  0.18340100  0.13864233  0.92305567  1
  H  177  1  0.24337500  0.13507533  0.88465467  1
  H  178  1  0.09704500  0.10807600  0.89391633  1
  H  180  1  0.83747500  0.28908200  0.84493667  1
  H  181  1  0.85567700  0.30132100  0.88533533  1
  H  182  1  0.71606300  0.27118000  0.87181167  1
  H  184  1  0.82100400  0.22649800  0.95545467  1
  H  185  1  0.71070300  0.24257600  0.92503967  1
  H  186  1  0.85443900  0.27207700  0.93690933  1
  H  196  1  0.57524800  0.18427000  0.18854100  1
  H  197  1  0.66517100  0.22676100  0.20120933  1
  H  198  1  0.68443800  0.18038600  0.22150000  1
  H  200  1  0.64084400  0.13697767  0.11242600  1
  H  201  1  0.57804600  0.17868100  0.13260500  1
  H  202  1  0.59528800  0.13175800  0.15225900  1
  H  204  1  0.18386900  0.20749700  0.21044200  1
  H  205  1  0.23858400  0.21218400  0.17120300  1
  H  206  1  0.23638800  0.16460600  0.19028700  1
  H  208  1  0.13765600  0.12619500  0.11304100  1
  H  209  1  0.24646300  0.15660500  0.13563100  1
  H  210  1  0.16292600  0.17737300  0.10272633  1
  H  220  1  0.57566900  0.87774700  0.85181167  1
  H  221  1  0.66532300  0.83584300  0.83983067  1
  H  222  1  0.68508600  0.88234500  0.81969067  1
  H  224  1  0.64117900  0.92537400  0.92846967  1
  H  225  1  0.57821000  0.88327600  0.90777800  1
  H  226  1  0.59584000  0.93034167  0.88829467  1
  H  228  1  0.18423500  0.85857000  0.83454133  1
  H  229  1  0.23875000  0.85424233  0.87419333  1
  H  230  1  0.23692800  0.90181000  0.85509967  1
  H  232  1  0.13807300  0.93953467  0.93160733  1
  H  233  1  0.24679000  0.90987200  0.90982867  1
  H  234  1  0.16302700  0.88852000  0.94209433  1
  H  244  1  0.07656400  0.84510200  0.55093500  1
  H  245  1  0.10367200  0.80508700  0.57700633  1
  H  246  1  0.95324200  0.83364800  0.57913233  1
  H  248  1  0.03841300  0.82527767  0.46568067  1
  H  249  1  0.14745600  0.82441300  0.49923333  1
  H  250  1  0.99947600  0.85460400  0.49875800  1
  H  252  1  0.66580000  0.71686800  0.57617967  1
  H  253  1  0.69980400  0.67796400  0.54865133  1
  H  254  1  0.58527700  0.71724400  0.53991133  1
  H  256  1  0.71301300  0.71675200  0.45668500  1
  H  257  1  0.60629300  0.71588200  0.48827100  1
  H  258  1  0.73035500  0.67802800  0.48499533  1
  H  268  1  0.07669800  0.22034767  0.49322300  1
  H  269  1  0.10371300  0.26056600  0.46735233  1
  H  270  1  0.95335300  0.23088800  0.46412133  1
  H  272  1  0.03855900  0.23988500  0.57819733  1
  H  273  1  0.14756900  0.24156600  0.54544033  1
  H  274  1  0.99966900  0.21027000  0.54483533  1
  H  276  1  0.66574800  0.34558000  0.46496767  1
  H  277  1  0.69976300  0.38471967  0.49275400  1
  H  278  1  0.58520600  0.34461300  0.50064167  1
  H  280  1  0.71285500  0.34598000  0.58481133  1
  H  281  1  0.60614800  0.34604900  0.55243900  1
  H  282  1  0.73008900  0.38483667  0.55663167  1
  H  292  1  0.81370600  0.05767000  0.26026400  1
  H  293  1  0.95231600  0.08949200  0.26686933  1
  H  294  1  0.79131400  0.10087700  0.28320067  1
  H  296  1  0.78713500  0.95958567  0.29615333  1
  H  297  1  0.86492300  0.98880467  0.26655800  1
  H  298  1  0.71036900  0.00372000  0.28445333  1
  H  300  1  0.16840300  0.10803800  0.37114567  1
  H  301  1  0.18457800  0.06691900  0.39543400  1
  H  302  1  0.04955800  0.10051400  0.40228367  1
  H  304  1  0.93998500  0.98227433  0.40513500  1
  H  305  1  0.04653600  0.02129800  0.41746967  1
  H  306  1  0.11483600  0.98144600  0.39505433  1
  H  316  1  0.81359800  0.00576300  0.78189633  1
  H  317  1  0.95230800  0.97497400  0.77635833  1
  H  318  1  0.79144600  0.96239400  0.75878600  1
  H  320  1  0.78722200  0.10367300  0.74583400  1
  H  321  1  0.86487700  0.07500733  0.77601467  1
  H  322  1  0.71041900  0.05897400  0.75693667  1
  H  324  1  0.16903000  0.95804300  0.67372533  1
  H  325  1  0.18523900  0.99928200  0.64956167  1
  H  326  1  0.05031100  0.96468933  0.64168633  1
  H  328  1  0.94063600  0.08214300  0.63802200  1
  H  329  1  0.04722200  0.04389100  0.62648533  1
  H  330  1  0.11544400  0.08423000  0.64942467  1
  H  340  1  0.26635200  0.50425500  0.34647267  1
  H  341  1  0.17722500  0.47095400  0.32166867  1
  H  342  1  0.16358600  0.46791700  0.36395533  1
  H  344  1  0.18879400  0.60975800  0.34912667  1
  H  345  1  0.25402900  0.56973400  0.32741267  1
  H  346  1  0.24009500  0.56717500  0.36974733  1
  H  348  1  0.66089500  0.46477433  0.34127833  1
  H  349  1  0.60064400  0.50570700  0.31987167  1
  H  350  1  0.60371400  0.50638700  0.36232833  1
  H  352  1  0.68899700  0.61628700  0.33945900  1
  H  353  1  0.61449900  0.57644300  0.35908133  1
  H  354  1  0.61802200  0.57724767  0.31666133  1
  H  364  1  0.26621700  0.56253100  0.69857233  1
  H  365  1  0.17772400  0.59520400  0.72284367  1
  H  366  1  0.16294800  0.59811100  0.68047367  1
  H  368  1  0.18861200  0.45646300  0.69547267  1
  H  369  1  0.25442500  0.49696200  0.71757233  1
  H  370  1  0.23936500  0.49941533  0.67515167  1
  H  372  1  0.66086300  0.59762400  0.70023367  1
  H  373  1  0.60117200  0.55624367  0.72126767  1
  H  374  1  0.60311400  0.55561000  0.67882500  1
  H  376  1  0.68903900  0.44631500  0.70215967  1
  H  377  1  0.61398900  0.48563500  0.68212833  1
  H  378  1  0.61866800  0.48481900  0.72457133  1
  N  163  1  0.93748700  0.89887833  0.10226833  1
  N  164  1  0.95218400  0.83171667  0.22369600  1
  N  187  1  0.93744700  0.16563400  0.94092267  1
  N  188  1  0.95224600  0.23286200  0.81961667  1
  N  211  1  0.87654000  0.14218400  0.09880000  1
  N  212  1  0.94536000  0.20966200  0.22111100  1
  N  235  1  0.87682300  0.92177600  0.94386800  1
  N  236  1  0.94576600  0.85480600  0.82206967  1
  N  259  1  0.93928900  0.75943867  0.45632267  1
  N  260  1  0.90016400  0.75424700  0.58850567  1
  N  283  1  0.93921400  0.30496833  0.58683867  1
  N  284  1  0.90006300  0.30988133  0.45435933  1
  N  307  1  0.93910300  0.95579767  0.34248467  1
  N  308  1  0.96989900  0.12149700  0.32803433  1
  N  331  1  0.93951400  0.10858900  0.70069133  1
  N  332  1  0.97038400  0.94310700  0.71533233  1
  N  355  1  0.95031100  0.62117933  0.34223967  1
  N  356  1  0.90124900  0.45351300  0.34416867  1
  N  379  1  0.95030600  0.44330800  0.70098933  1
  N  380  1  0.90115900  0.61062067  0.69872000  1
  O  8  1  0.95189000  0.88536567  0.03632700  1
  O  15  1  0.95174800  0.17916000  0.00691933  1
  O  36  1  0.01473900  0.91971633  0.28995233  1
  O  43  1  0.95436800  0.65816900  0.39920067  1
  O  64  1  0.01462100  0.14523900  0.75385067  1
  O  71  1  0.95430700  0.40632500  0.64407700  1
  O  92  1  0.98676100  0.16426500  0.27349633  1
  O  99  1  0.88273400  0.41345867  0.40055533  1
  O  120  1  0.98749200  0.90048300  0.76998133  1
  O  127  1  0.88268400  0.65055833  0.64217400  1
