# generated using pymatgen
data_Ba2P8H58C52(SO11)3
_symmetry_space_group_name_H-M   'P 1'
_cell_length_a   8.24840000
_cell_length_b   12.76961000
_cell_length_c   19.06354000
_cell_angle_alpha   99.40480000
_cell_angle_beta   91.47993000
_cell_angle_gamma   98.73645000
_symmetry_Int_Tables_number   1
_chemical_formula_structural   Ba2P8H58C52(SO11)3
_chemical_formula_sum   'Ba2 P8 H58 C52 S3 O33'
_cell_volume   1955.32411406
_cell_formula_units_Z   1
loop_
 _symmetry_equiv_pos_site_id
 _symmetry_equiv_pos_as_xyz
  1  'x, y, z'
loop_
 _atom_site_type_symbol
 _atom_site_label
 _atom_site_symmetry_multiplicity
 _atom_site_fract_x
 _atom_site_fract_y
 _atom_site_fract_z
 _atom_site_occupancy
  Ba  Ba0  1  0.85318000  0.54779000  0.46530000  1
  Ba  Ba1  1  0.33665000  0.45230000  0.53471000  1
  P  P2  1  0.04293000  0.39223000  0.33741000  1
  P  P3  1  0.67223000  0.75490000  0.55573000  1
  P  P4  1  0.12681000  0.82211000  0.40391000  1
  P  P5  1  0.14679000  0.60786000  0.66260000  1
  P  P6  1  0.06547000  0.17562000  0.59212000  1
  P  P7  1  0.62791000  0.62123000  0.27980000  1
  P  P8  1  0.52058000  0.23076000  0.43831000  1
  P  P9  1  0.56586000  0.36908000  0.71894000  1
  H  H10  1  0.66606000  0.81109000  0.37010000  1
  H  H11  1  0.83728000  0.67363000  0.65726000  1
  H  H12  1  0.61976000  0.63357000  0.66585000  1
  H  H13  1  0.68746000  0.99073000  0.35879000  1
  H  H14  1  0.85650000  0.79524000  0.77289000  1
  H  H15  1  0.76135000  0.66185000  0.78321000  1
  H  H16  1  0.63626000  0.76509000  0.77987000  1
  H  H17  1  0.49006000  0.80961000  0.31017000  1
  H  H18  1  0.33207000  0.29514000  0.32337000  1
  H  H19  1  0.53695000  0.36612000  0.34434000  1
  H  H20  1  0.50925000  0.36385000  0.22415000  1
  H  H21  1  0.30492000  0.94767000  0.68281000  1
  H  H22  1  0.62683000  0.25984000  0.23038000  1
  H  H23  1  0.82916000  0.93395000  0.30038000  1
  H  H24  1  0.27495000  0.83688000  0.20003000  1
  H  H25  1  0.14232000  0.30282000  0.72786000  1
  H  H26  1  0.93398000  0.22893000  0.72055000  1
  H  H27  1  0.22308000  0.18279000  0.80974000  1
  H  H28  1  0.06186000  0.25438000  0.84377000  1
  H  H29  1  0.01356000  0.11417000  0.80391000  1
  H  H30  1  0.66626000  0.19541000  0.66540000  1
  H  H31  1  0.46508000  0.11804000  0.65019000  1
  H  H32  1  0.28387000  0.94598000  0.58826000  1
  H  H33  1  0.70591000  0.12914000  0.77843000  1
  H  H34  1  0.65668000  0.01937000  0.70446000  1
  H  H35  1  0.98747000  0.70191000  0.26137000  1
  H  H36  1  0.50252000  0.05202000  0.76676000  1
  H  H37  1  0.13928000  0.63213000  0.82354000  1
  H  H38  1  0.80546000  0.33644000  0.83245000  1
  H  H39  1  0.41142000  0.63673000  0.15860000  1
  H  H40  1  0.03938000  0.36326000  0.17776000  1
  H  H41  1  0.83104000  0.47021000  0.64489000  1
  H  H42  1  0.36085000  0.52261000  0.35242000  1
  H  H43  1  0.10361000  0.92439000  0.63900000  1
  H  H44  1  0.69847000  0.43446000  0.91065000  1
  H  H45  1  0.53161000  0.34056000  0.98720000  1
  H  H46  1  0.62140000  0.36697000  0.11329000  1
  H  H47  1  0.20195000  0.71014000  0.28448000  1
  H  H48  1  0.88439000  0.47177000  0.15202000  1
  H  H49  1  0.49728000  0.52714000  0.08050000  1
  H  H50  1  0.67358000  0.61957000  0.00541000  1
  H  H51  1  0.57961000  0.61472000  0.88196000  1
  H  H52  1  0.30836000  0.52844000  0.84226000  1
  H  H53  1  0.32895000  0.03175000  0.42064000  1
  H  H54  1  0.84386000  0.17775000  0.38158000  1
  H  H55  1  0.86511000  0.96061000  0.57934000  1
  H  H56  1  0.81850000  0.26421000  0.52311000  1
  H  H57  1  0.37259000  0.72556000  0.47103000  1
  H  H58  1  0.17110000  0.70830000  0.15854000  1
  H  H59  1  0.36267000  0.77507000  0.61236000  1
  H  H60  1  0.15584000  0.75341000  0.57167000  1
  H  H61  1  0.52683000  0.91160000  0.12766000  1
  H  H62  1  0.35267000  0.25239000  0.07644000  1
  H  H63  1  0.77628000  0.77031000  0.09283000  1
  H  H64  1  0.02760000  0.25529000  0.42829000  1
  H  H65  1  0.02388000  0.05931000  0.31265000  1
  H  H66  1  0.03546000  0.05837000  0.40819000  1
  H  H67  1  0.19422000  0.13178000  0.36236000  1
  C  C68  1  0.69876000  0.93438000  0.30931000  1
  C  C69  1  0.01696000  0.54288000  0.72634000  1
  C  C70  1  0.85568000  0.40492000  0.80892000  1
  C  C71  1  0.10749000  0.75504000  0.26717000  1
  C  C72  1  0.78450000  0.41469000  0.74347000  1
  C  C73  1  0.35091000  0.57311000  0.18412000  1
  C  C74  1  0.41521000  0.56748000  0.25146000  1
  C  C75  1  0.13332000  0.43097000  0.19782000  1
  C  C76  1  0.17164000  0.45245000  0.27206000  1
  C  C77  1  0.98352000  0.48525000  0.84369000  1
  C  C78  1  0.87540000  0.47367000  0.69925000  1
  C  C79  1  0.62648000  0.82111000  0.31587000  1
  C  C80  1  0.21314000  0.49870000  0.15163000  1
  C  C81  1  0.31837000  0.51638000  0.29750000  1
  C  C82  1  0.76093000  0.42049000  0.95734000  1
  C  C83  1  0.15645000  0.78257000  0.19441000  1
  C  C84  1  0.65805000  0.37373000  0.00386000  1
  C  C85  1  0.70807000  0.38853000  0.07466000  1
  C  C86  1  0.86346000  0.44342000  0.09665000  1
  C  C87  1  0.98559000  0.46353000  0.04807000  1
  C  C88  1  0.93090000  0.45650000  0.97477000  1
  C  C89  1  0.15502000  0.49391000  0.07213000  1
  C  C90  1  0.46330000  0.28973000  0.31694000  1
  C  C91  1  0.26719000  0.52118000  0.01895000  1
  C  C92  1  0.21158000  0.51971000  0.94637000  1
  C  C93  1  0.04221000  0.48803000  0.92244000  1
  C  C94  1  0.43862000  0.54756000  0.03503000  1
  C  C95  1  0.23519000  0.78935000  0.62020000  1
  C  C96  1  0.54499000  0.59392000  0.98954000  1
  C  C97  1  0.49260000  0.59069000  0.92012000  1
  C  C98  1  0.33254000  0.54535000  0.89804000  1
  C  C99  1  0.76813000  0.18046000  0.52154000  1
  C  C100  1  0.42366000  0.80952000  0.47427000  1
  C  C101  1  0.50334000  0.28265000  0.23820000  1
  C  C102  1  0.39905000  0.98401000  0.44680000  1
  C  C103  1  0.33327000  0.87662000  0.44470000  1
  C  C104  1  0.57483000  0.85003000  0.51115000  1
  C  C105  1  0.64085000  0.96130000  0.51624000  1
  C  C106  1  0.55184000  0.02841000  0.48228000  1
  C  C107  1  0.23196000  0.90944000  0.63322000  1
  C  C108  1  0.61866000  0.13813000  0.48446000  1
  C  C109  1  0.85812000  0.11581000  0.55347000  1
  C  C110  1  0.79377000  0.00741000  0.55238000  1
  C  C111  1  0.97672000  0.20431000  0.37746000  1
  C  C112  1  0.06577000  0.22338000  0.72846000  1
  C  C113  1  0.06165000  0.10673000  0.36546000  1
  C  C114  1  0.72415000  0.70065000  0.67809000  1
  C  C115  1  0.74616000  0.73284000  0.75856000  1
  C  C116  1  0.09270000  0.19171000  0.80096000  1
  C  C117  1  0.55635000  0.16313000  0.69237000  1
  C  C118  1  0.60846000  0.08593000  0.73831000  1
  C  C119  1  0.05242000  0.56176000  0.80086000  1
  S  S120  1  0.60351000  0.97781000  0.23736000  1
  S  S121  1  0.35413000  0.19399000  0.17702000  1
  S  S122  1  0.00906000  0.83796000  0.14833000  1
  O  O123  1  0.87511000  0.42318000  0.32629000  1
  O  O124  1  0.19315000  0.12467000  0.54591000  1
  O  O125  1  0.11138000  0.14484000  0.67578000  1
  O  O126  1  0.12341000  0.43304000  0.41495000  1
  O  O127  1  0.57795000  0.63437000  0.53614000  1
  O  O128  1  0.34190000  0.23131000  0.46574000  1
  O  O129  1  0.50231000  0.20019000  0.34467000  1
  O  O130  1  0.46110000  0.44776000  0.75819000  1
  O  O131  1  0.48221000  0.24168000  0.73510000  1
  O  O132  1  0.66101000  0.62507000  0.36968000  1
  O  O133  1  0.74851000  0.55100000  0.24379000  1
  O  O134  1  0.69375000  0.78977000  0.64866000  1
  O  O135  1  0.99699000  0.25249000  0.31688000  1
  O  O136  1  0.69108000  0.75043000  0.26350000  1
  O  O137  1  0.84780000  0.76873000  0.53431000  1
  O  O138  1  0.08225000  0.68447000  0.40544000  1
  O  O139  1  0.99469000  0.87522000  0.44622000  1
  O  O140  1  0.43981000  0.00541000  0.25960000  1
  O  O141  1  0.71098000  0.07540000  0.22037000  1
  O  O142  1  0.57724000  0.88027000  0.16540000  1
  O  O143  1  0.21239000  0.14598000  0.21542000  1
  O  O144  1  0.43222000  0.10503000  0.13689000  1
  O  O145  1  0.10012000  0.84856000  0.31679000  1
  O  O146  1  0.28265000  0.26201000  0.11767000  1
  O  O147  1  0.97862000  0.94253000  0.19004000  1
  O  O148  1  0.07567000  0.85755000  0.07815000  1
  O  O149  1  0.83391000  0.74964000  0.13338000  1
  O  O150  1  0.31460000  0.57686000  0.67375000  1
  O  O151  1  0.06630000  0.56705000  0.58506000  1
  O  O152  1  0.52870000  0.37502000  0.63033000  1
  O  O153  1  0.17949000  0.74839000  0.68042000  1
  O  O154  1  0.61176000  0.36572000  0.46387000  1
  O  O155  1  0.10746000  0.31562000  0.59457000  1
