# generated using pymatgen
data_Ni2H76C53(NO)12
_symmetry_space_group_name_H-M   'P 1'
_cell_length_a   8.81127000
_cell_length_b   19.24526000
_cell_length_c   23.95251774
_cell_angle_alpha   89.05567352
_cell_angle_beta   79.38943257
_cell_angle_gamma   76.75379000
_symmetry_Int_Tables_number   1
_chemical_formula_structural   Ni2H76C53(NO)12
_chemical_formula_sum   'Ni4 H152 C106 N24 O24'
_cell_volume   3884.68135289
_cell_formula_units_Z   2
loop_
 _symmetry_equiv_pos_site_id
 _symmetry_equiv_pos_as_xyz
  1  'x, y, z'
loop_
 _atom_site_type_symbol
 _atom_site_label
 _atom_site_symmetry_multiplicity
 _atom_site_fract_x
 _atom_site_fract_y
 _atom_site_fract_z
 _atom_site_occupancy
  Ni  Ni1  1  0.49735000  0.50132000  0.99929000  1.0
  Ni  Ni2  1  0.49974000  0.00008000  0.49990000  1.0
  Ni  Ni3  1  0.49849000  0.00012000  0.00003000  1.0
  Ni  Ni4  1  0.99787000  0.50055000  0.49917000  1.0
  H  H1  1  0.33733000  0.61523000  0.04847000  1.0
  H  H2  1  0.22737000  0.47158000  0.02900000  1.0
  H  H3  1  0.50698000  0.52363000  0.12964000  1.0
  H  H4  1  0.35621000  0.60296000  0.15056000  1.0
  H  H5  1  0.22806000  0.41685000  0.12127000  1.0
  H  H6  1  0.43431000  0.41746000  0.11095000  1.0
  H  H7  1  0.66702000  0.58520000  0.06946000  1.0
  H  H8  1  0.53660000  0.67129000  0.07437000  1.0
  H  H9  1  0.28462000  0.34474000  0.02016000  1.0
  H  H10  1  0.48149000  0.34257000  0.02878000  1.0
  H  H11  1  0.10216000  0.57745000  0.08272000  1.0
  H  H12  1  0.08389000  0.60287000  0.15504000  1.0
  H  H13  1  0.03183000  0.52269000  0.13826000  1.0
  H  H14  1  0.56082000  0.08559000  0.92440000  1.0
  H  H15  1  0.70155000  0.05318000  0.03724000  1.0
  H  H16  1  0.47530000  0.01464000  0.13198000  1.0
  H  H17  1  0.67250000  0.02136000  0.13446000  1.0
  H  H18  1  0.37583000  0.12479000  0.09016000  1.0
  H  H19  1  0.54858000  0.15431000  0.09933000  1.0
  H  H20  1  0.33552000  0.10606000  0.87681000  1.0
  H  H21  1  0.22339000  0.07853000  0.93931000  1.0
  H  H22  1  0.36982000  0.20162000  0.95305000  1.0
  H  H23  1  0.27113000  0.15408000  0.00736000  1.0
  H  H24  1  0.72248000  0.13886000  0.96941000  1.0
  H  H25  1  0.69411000  0.20728000  0.02261000  1.0
  H  H26  1  0.61554000  0.22685000  0.95982000  1.0
  H  H27  1  0.52676000  0.86440000  0.76958000  1.0
  H  H28  1  0.43073000  0.82457000  0.72298000  1.0
  H  H29  1  0.74182000  0.79162000  0.81072000  1.0
  H  H30  1  0.62296000  0.73130000  0.84024000  1.0
  H  H31  1  0.96358000  0.71745000  0.96733000  1.0
  H  H32  1  0.00032000  0.01015000  0.81154000  1.0
  H  H33  1  0.25271000  0.92745000  0.76358000  1.0
  H  H34  1  0.79005000  0.75202000  0.89588000  1.0
  H  H35  1  0.09639000  0.58551000  0.78160000  1.0
  H  H36  1  0.26312000  0.54949000  0.85651000  1.0
  H  H37  1  0.94898000  0.86336000  0.94567000  1.0
  H  H38  1  0.19740000  0.77824000  0.89780000  1.0
  H  H39  1  0.50065000  0.88556000  0.45197000  1.0
  H  H40  1  0.22966000  0.02802000  0.47117000  1.0
  H  H41  1  0.66047000  0.97581000  0.36961000  1.0
  H  H42  1  0.60880000  0.89642000  0.34961000  1.0
  H  H43  1  0.26605000  0.08293000  0.37846000  1.0
  H  H44  1  0.46268000  0.08234000  0.38849000  1.0
  H  H45  1  0.82226000  0.91447000  0.43026000  1.0
  H  H46  1  0.78104000  0.82862000  0.42594000  1.0
  H  H47  1  0.14904000  0.15528000  0.47972000  1.0
  H  H48  1  0.35216000  0.15778000  0.47080000  1.0
  H  H49  1  0.26203000  0.92247000  0.41743000  1.0
  H  H50  1  0.34109000  0.89689000  0.34509000  1.0
  H  H51  1  0.19223000  0.97713000  0.36191000  1.0
  H  H52  1  0.07181000  0.41485000  0.57517000  1.0
  H  H53  1  0.29013000  0.44709000  0.46272000  1.0
  H  H54  1  0.12110000  0.48516000  0.36763000  1.0
  H  H55  1  0.32759000  0.47834000  0.36517000  1.0
  H  H56  1  0.09018000  0.37485000  0.40975000  1.0
  H  H57  1  0.30169000  0.34559000  0.40060000  1.0
  H  H58  1  0.81963000  0.39419000  0.62324000  1.0
  H  H59  1  0.74177000  0.42173000  0.56091000  1.0
  H  H60  1  0.02486000  0.29883000  0.54729000  1.0
  H  H61  1  0.93225000  0.34608000  0.49299000  1.0
  H  H62  1  0.33104000  0.36116000  0.53038000  1.0
  H  H63  1  0.42401000  0.29259000  0.47722000  1.0
  H  H64  1  0.30246000  0.27320000  0.54011000  1.0
  H  H65  1  0.66364000  0.63662000  0.73109000  1.0
  H  H66  1  0.47985000  0.67571000  0.77724000  1.0
  H  H67  1  0.84438000  0.71130000  0.68977000  1.0
  H  H68  1  0.69245000  0.76984000  0.66015000  1.0
  H  H69  1  0.14860000  0.78310000  0.53360000  1.0
  H  H70  1  0.32226000  0.49061000  0.68848000  1.0
  H  H71  1  0.44480000  0.57294000  0.73642000  1.0
  H  H72  1  0.93630000  0.74999000  0.60481000  1.0
  H  H73  1  0.96160000  0.91713000  0.71827000  1.0
  H  H74  1  0.17010000  0.95166000  0.64388000  1.0
  H  H75  1  0.25931000  0.63785000  0.55442000  1.0
  H  H76  1  0.37599000  0.72217000  0.60223000  1.0
  H  H77  1  0.66078000  0.38668000  0.95201000  1.0
  H  H78  1  0.76842000  0.52783000  0.97132000  1.0
  H  H79  1  0.49346000  0.47643000  0.86930000  1.0
  H  H80  1  0.64441000  0.39696000  0.84942000  1.0
  H  H81  1  0.77274000  0.58321000  0.87832000  1.0
  H  H82  1  0.56643000  0.58304000  0.88794000  1.0
  H  H83  1  0.33198000  0.41450000  0.93014000  1.0
  H  H84  1  0.46455000  0.32895000  0.92558000  1.0
  H  H85  1  0.71598000  0.65544000  0.97974000  1.0
  H  H86  1  0.51868000  0.65869000  0.97110000  1.0
  H  H87  1  0.89736000  0.42265000  0.91731000  1.0
  H  H88  1  0.91603000  0.39717000  0.84500000  1.0
  H  H89  1  0.96826000  0.47731000  0.86178000  1.0
  H  H90  1  0.43911000  0.91416000  0.07574000  1.0
  H  H91  1  0.29766000  0.94656000  0.96249000  1.0
  H  H92  1  0.52460000  0.98531000  0.86808000  1.0
  H  H93  1  0.32743000  0.97867000  0.86539000  1.0
  H  H94  1  0.62397000  0.87530000  0.90989000  1.0
  H  H95  1  0.45155000  0.84555000  0.90063000  1.0
  H  H96  1  0.66448000  0.89395000  0.12315000  1.0
  H  H97  1  0.77635000  0.92148000  0.06061000  1.0
  H  H98  1  0.63022000  0.79832000  0.04691000  1.0
  H  H99  1  0.72872000  0.84599000  0.99267000  1.0
  H  H100  1  0.27754000  0.86114000  0.03059000  1.0
  H  H101  1  0.30579000  0.79271000  0.97740000  1.0
  H  H102  1  0.38441000  0.77314000  0.04019000  1.0
  H  H103  1  0.47323000  0.13559000  0.23041000  1.0
  H  H104  1  0.56918000  0.17545000  0.27701000  1.0
  H  H105  1  0.25810000  0.20837000  0.18924000  1.0
  H  H106  1  0.37698000  0.26871000  0.15973000  1.0
  H  H107  1  0.03571000  0.28284000  0.03257000  1.0
  H  H108  1  0.99962000  0.98985000  0.18849000  1.0
  H  H109  1  0.74721000  0.07256000  0.23644000  1.0
  H  H110  1  0.20922000  0.24819000  0.10393000  1.0
  H  H111  1  0.90333000  0.41456000  0.21835000  1.0
  H  H112  1  0.73641000  0.45079000  0.14355000  1.0
  H  H113  1  0.05098000  0.13663000  0.05436000  1.0
  H  H114  1  0.80263000  0.22176000  0.10220000  1.0
  H  H115  1  0.49916000  0.11459000  0.54808000  1.0
  H  H116  1  0.77022000  0.97204000  0.52883000  1.0
  H  H117  1  0.33952000  0.02422000  0.63034000  1.0
  H  H118  1  0.39111000  0.10358000  0.65042000  1.0
  H  H119  1  0.73389000  0.91711000  0.62146000  1.0
  H  H120  1  0.53724000  0.91769000  0.61148000  1.0
  H  H121  1  0.17771000  0.08558000  0.56975000  1.0
  H  H122  1  0.21868000  0.17145000  0.57408000  1.0
  H  H123  1  0.85078000  0.84485000  0.52030000  1.0
  H  H124  1  0.64764000  0.84232000  0.52920000  1.0
  H  H125  1  0.73797000  0.07753000  0.58257000  1.0
  H  H126  1  0.65890000  0.10311000  0.65492000  1.0
  H  H127  1  0.80772000  0.02286000  0.63810000  1.0
  H  H128  1  0.92763000  0.58646000  0.42363000  1.0
  H  H129  1  0.70557000  0.55385000  0.53799000  1.0
  H  H130  1  0.87932000  0.51502000  0.63171000  1.0
  H  H131  1  0.67266000  0.52162000  0.63484000  1.0
  H  H132  1  0.90991000  0.62460000  0.58990000  1.0
  H  H133  1  0.69846000  0.65465000  0.59939000  1.0
  H  H134  1  0.18176000  0.60591000  0.37640000  1.0
  H  H135  1  0.25723000  0.57821000  0.43917000  1.0
  H  H136  1  0.97518000  0.70175000  0.45288000  1.0
  H  H137  1  0.06767000  0.65339000  0.50681000  1.0
  H  H138  1  0.66879000  0.63893000  0.46961000  1.0
  H  H139  1  0.57581000  0.70750000  0.52275000  1.0
  H  H140  1  0.69722000  0.72693000  0.45982000  1.0
  H  H141  1  0.33634000  0.36337000  0.26890000  1.0
  H  H142  1  0.52012000  0.32426000  0.22275000  1.0
  H  H143  1  0.15558000  0.28870000  0.31022000  1.0
  H  H144  1  0.30755000  0.23016000  0.33983000  1.0
  H  H145  1  0.85142000  0.21690000  0.46640000  1.0
  H  H146  1  0.67746000  0.50935000  0.31136000  1.0
  H  H147  1  0.55500000  0.42691000  0.26343000  1.0
  H  H148  1  0.06374000  0.25001000  0.39519000  1.0
  H  H149  1  0.03839000  0.08287000  0.28173000  1.0
  H  H150  1  0.82989000  0.04835000  0.35613000  1.0
  H  H151  1  0.74051000  0.36222000  0.44547000  1.0
  H  H152  1  0.62399000  0.27779000  0.39771000  1.0
  C  C1  1  0.39663000  0.55725000  0.12013000  1.0
  C  C2  1  0.31822000  0.44570000  0.10235000  1.0
  C  C3  1  0.56814000  0.61871000  0.05227000  1.0
  C  C4  1  0.38039000  0.37350000  0.01140000  1.0
  C  C5  1  0.11565000  0.55685000  0.12524000  1.0
  C  C6  1  0.59611000  0.00711000  0.10715000  1.0
  C  C7  1  0.49601000  0.12819000  0.06974000  1.0
  C  C8  1  0.34315000  0.07096000  0.91348000  1.0
  C  C9  1  0.38694000  0.15668000  0.98215000  1.0
  C  C10  1  0.63810000  0.18591000  0.99161000  1.0
  C  C11  1  0.48773000  0.81613000  0.76044000  1.0
  C  C12  1  0.95955000  0.94182000  0.88137000  1.0
  C  C13  1  0.70638000  0.74202000  0.80280000  1.0
  C  C14  1  0.93298000  0.67043000  0.83399000  1.0
  C  C15  1  0.99020000  0.68846000  0.92674000  1.0
  C  C16  1  0.12300000  0.63123000  0.91663000  1.0
  C  C17  1  0.04587000  0.95931000  0.83004000  1.0
  C  C18  1  0.24152000  0.84836000  0.82886000  1.0
  C  C19  1  0.18687000  0.91313000  0.80338000  1.0
  C  C20  1  0.89423000  0.70829000  0.88614000  1.0
  C  C21  1  0.80587000  0.99054000  0.90926000  1.0
  C  C22  1  0.06749000  0.61347000  0.82266000  1.0
  C  C23  1  0.15982000  0.59401000  0.86405000  1.0
  C  C24  1  0.01649000  0.87643000  0.90578000  1.0
  C  C25  1  0.22401000  0.61118000  0.96115000  1.0
  C  C26  1  0.15486000  0.82967000  0.87977000  1.0
  C  C27  1  0.57380000  0.94247000  0.37969000  1.0
  C  C28  1  0.36619000  0.05417000  0.39736000  1.0
  C  C29  1  0.73894000  0.88142000  0.44772000  1.0
  C  C30  1  0.26512000  0.12668000  0.48832000  1.0
  C  C31  1  0.29732000  0.94296000  0.37485000  1.0
  C  C32  1  0.20955000  0.49273000  0.39244000  1.0
  C  C33  1  0.19330000  0.37170000  0.43015000  1.0
  C  C34  1  0.82841000  0.42935000  0.58659000  1.0
  C  C35  1  0.02588000  0.34358000  0.51798000  1.0
  C  C36  1  0.31574000  0.31410000  0.50826000  1.0
  C  C37  1  0.56590000  0.68449000  0.73987000  1.0
  C  C38  1  0.28450000  0.55868000  0.61837000  1.0
  C  C39  1  0.74948000  0.76024000  0.69755000  1.0
  C  C40  1  0.93509000  0.83205000  0.66630000  1.0
  C  C41  1  0.10588000  0.81243000  0.57405000  1.0
  C  C42  1  0.17234000  0.86940000  0.58392000  1.0
  C  C43  1  0.33629000  0.54125000  0.66985000  1.0
  C  C44  1  0.42076000  0.65191000  0.67113000  1.0
  C  C45  1  0.40459000  0.58727000  0.69661000  1.0
  C  C46  1  0.98758000  0.79352000  0.61449000  1.0
  C  C47  1  0.20854000  0.50954000  0.59032000  1.0
  C  C48  1  0.00250000  0.88867000  0.67745000  1.0
  C  C49  1  0.11870000  0.90721000  0.63626000  1.0
  C  C50  1  0.30037000  0.62421000  0.59417000  1.0
  C  C51  1  0.29759000  0.88908000  0.53897000  1.0
  C  C52  1  0.36636000  0.67078000  0.62025000  1.0
  C  C53  1  0.60326000  0.44305000  0.87947000  1.0
  C  C54  1  0.68182000  0.55471000  0.89711000  1.0
  C  C55  1  0.43148000  0.38170000  0.94747000  1.0
  C  C56  1  0.61939000  0.62713000  0.98833000  1.0
  C  C57  1  0.88421000  0.44324000  0.87475000  1.0
  C  C58  1  0.40364000  0.99287000  0.89279000  1.0
  C  C59  1  0.50383000  0.87177000  0.93026000  1.0
  C  C60  1  0.65663000  0.92904000  0.08646000  1.0
  C  C61  1  0.61294000  0.84331000  0.01785000  1.0
  C  C62  1  0.36185000  0.81407000  0.00839000  1.0
  C  C63  1  0.51219000  0.18388000  0.23954000  1.0
  C  C64  1  0.04034000  0.05817000  0.11867000  1.0
  C  C65  1  0.29344000  0.25800000  0.19715000  1.0
  C  C66  1  0.06665000  0.32970000  0.16592000  1.0
  C  C67  1  0.00900000  0.31188000  0.07315000  1.0
  C  C68  1  0.87620000  0.36917000  0.08325000  1.0
  C  C69  1  0.95405000  0.04069000  0.17000000  1.0
  C  C70  1  0.75845000  0.15165000  0.17115000  1.0
  C  C71  1  0.81305000  0.08687000  0.19665000  1.0
  C  C72  1  0.10511000  0.29195000  0.11372000  1.0
  C  C73  1  0.19385000  0.00941000  0.09079000  1.0
  C  C74  1  0.93212000  0.38666000  0.17726000  1.0
  C  C75  1  0.83965000  0.40623000  0.13589000  1.0
  C  C76  1  0.98348000  0.12357000  0.09425000  1.0
  C  C77  1  0.77533000  0.38948000  0.03859000  1.0
  C  C78  1  0.84513000  0.17034000  0.12025000  1.0
  C  C79  1  0.42614000  0.05757000  0.62029000  1.0
  C  C80  1  0.63369000  0.94589000  0.60260000  1.0
  C  C81  1  0.26094000  0.11866000  0.55228000  1.0
  C  C82  1  0.73470000  0.87342000  0.51168000  1.0
  C  C83  1  0.70265000  0.05705000  0.62515000  1.0
  C  C84  1  0.79019000  0.50740000  0.60724000  1.0
  C  C85  1  0.80632000  0.62835000  0.56966000  1.0
  C  C86  1  0.17142000  0.57084000  0.41305000  1.0
  C  C87  1  0.97383000  0.65665000  0.48180000  1.0
  C  C88  1  0.68403000  0.68604000  0.49168000  1.0
  C  C89  1  0.43402000  0.31548000  0.26009000  1.0
  C  C90  1  0.71503000  0.44132000  0.38146000  1.0
  C  C91  1  0.25047000  0.23976000  0.30244000  1.0
  C  C92  1  0.06492000  0.16795000  0.33369000  1.0
  C  C93  1  0.89415000  0.18758000  0.42595000  1.0
  C  C94  1  0.82769000  0.13061000  0.41608000  1.0
  C  C95  1  0.66336000  0.45871000  0.32998000  1.0
  C  C96  1  0.57913000  0.34803000  0.32879000  1.0
  C  C97  1  0.59519000  0.41264000  0.30325000  1.0
  C  C98  1  0.01246000  0.20649000  0.38550000  1.0
  C  C99  1  0.79091000  0.49048000  0.40941000  1.0
  C  C100  1  0.99751000  0.11133000  0.32255000  1.0
  C  C101  1  0.88132000  0.09280000  0.36374000  1.0
  C  C102  1  0.69938000  0.37580000  0.40573000  1.0
  C  C103  1  0.70236000  0.11097000  0.46100000  1.0
  C  C104  1  0.63355000  0.32917000  0.37967000  1.0
  C  C105  1  0.62842000  0.75071000  0.75019000  1.0
  C  C106  1  0.37145000  0.24929000  0.24977000  1.0
  N  N1  1  0.43586000  0.58228000  0.06134000  1.0
  N  N2  1  0.33348000  0.44543000  0.03912000  1.0
  N  N3  1  0.27609000  0.51619000  0.12847000  1.0
  N  N4  1  0.44936000  0.08794000  0.94959000  1.0
  N  N5  1  0.58805000  0.05303000  0.05703000  1.0
  N  N6  1  0.48644000  0.17173000  0.02016000  1.0
  N  N7  1  0.57956000  0.91819000  0.43863000  1.0
  N  N8  1  0.31857000  0.05476000  0.46063000  1.0
  N  N9  1  0.42047000  0.98356000  0.37140000  1.0
  N  N10  1  0.98740000  0.41254000  0.55023000  1.0
  N  N11  1  0.19695000  0.44699000  0.44265000  1.0
  N  N12  1  0.17818000  0.32828000  0.47982000  1.0
  N  N13  1  0.56243000  0.41892000  0.93843000  1.0
  N  N14  1  0.66438000  0.55535000  0.96042000  1.0
  N  N15  1  0.72399000  0.48402000  0.87126000  1.0
  N  N16  1  0.55024000  0.91202000  0.05044000  1.0
  N  N17  1  0.41120000  0.94688000  0.94291000  1.0
  N  N18  1  0.51350000  0.82823000  0.97983000  1.0
  N  N19  1  0.42035000  0.08190000  0.56135000  1.0
  N  N20  1  0.68120000  0.94535000  0.53934000  1.0
  N  N21  1  0.57945000  0.01647000  0.62859000  1.0
  N  N22  1  0.01160000  0.58816000  0.44889000  1.0
  N  N23  1  0.80089000  0.55334000  0.55706000  1.0
  N  N24  1  0.82166000  0.67187000  0.52005000  1.0
  O  O1  1  0.37972000  0.79923000  0.80861000  1.0
  O  O2  1  0.73476000  0.96670000  0.95504000  1.0
  O  O3  1  0.75741000  0.04891000  0.88617000  1.0
  O  O4  1  0.32819000  0.55151000  0.95171000  1.0
  O  O5  1  0.20085000  0.65325000  0.00344000  1.0
  O  O6  1  0.84450000  0.68400000  0.79181000  1.0
  O  O7  1  0.48986000  0.70083000  0.69147000  1.0
  O  O8  1  0.15939000  0.53301000  0.54446000  1.0
  O  O9  1  0.19645000  0.45108000  0.61350000  1.0
  O  O10  1  0.33108000  0.94934000  0.54753000  1.0
  O  O11  1  0.35920000  0.84645000  0.49703000  1.0
  O  O12  1  0.81555000  0.81947000  0.70806000  1.0
  O  O13  1  0.62025000  0.20078000  0.19139000  1.0
  O  O14  1  0.26473000  0.03325000  0.04495000  1.0
  O  O15  1  0.24246000  0.95107000  0.11386000  1.0
  O  O16  1  0.67199000  0.44943000  0.04754000  1.0
  O  O17  1  0.79852000  0.34705000  0.99647000  1.0
  O  O18  1  0.15527000  0.31603000  0.20810000  1.0
  O  O19  1  0.51003000  0.29910000  0.30850000  1.0
  O  O20  1  0.83995000  0.46690000  0.45529000  1.0
  O  O21  1  0.80333000  0.54890000  0.38628000  1.0
  O  O22  1  0.66872000  0.05076000  0.45239000  1.0
  O  O23  1  0.64085000  0.15358000  0.50296000  1.0
  O  O24  1  0.18444000  0.18052000  0.29193000  1.0
