# generated using pymatgen
data_H7C12N2O3
_symmetry_space_group_name_H-M   'P 1'
_cell_length_a   14.47320000
_cell_length_b   29.87400000
_cell_length_c   29.87400000
_cell_angle_alpha   90.00000000
_cell_angle_beta   90.00000000
_cell_angle_gamma   90.00000000
_symmetry_Int_Tables_number   1
_chemical_formula_structural   H7C12N2O3
_chemical_formula_sum   'H112 C192 N32 O48'
_cell_volume   12916.69238452
_cell_formula_units_Z   16
loop_
 _symmetry_equiv_pos_site_id
 _symmetry_equiv_pos_as_xyz
  1  'x, y, z'
loop_
 _atom_site_type_symbol
 _atom_site_label
 _atom_site_symmetry_multiplicity
 _atom_site_fract_x
 _atom_site_fract_y
 _atom_site_fract_z
 _atom_site_occupancy
  C  1  1  0.14039900  0.12883000  0.09602000  1
  C  2  1  0.09950800  0.10408900  0.06070000  1
  C  3  1  0.10337300  0.05689200  0.05964600  1
  C  4  1  0.14447300  0.03417600  0.09589700  1
  C  5  1  0.18097500  0.05768300  0.13276900  1
  C  6  1  0.18044400  0.10514800  0.13249600  1
  C  9  1  0.13791800  0.17666500  0.09464300  1
  C  10  1  0.17592800  0.20096200  0.05802500  1
  C  11  1  0.16957800  0.24835300  0.05648600  1
  C  12  1  0.12767300  0.27116500  0.09252000  1
  C  13  1  0.09271700  0.24787800  0.12983400  1
  C  14  1  0.09539700  0.20069500  0.12997900  1
  C  21  1  0.62785900  0.67689400  0.09914100  1
  C  22  1  0.58875200  0.70053000  0.13569900  1
  C  23  1  0.59407800  0.74764100  0.13849000  1
  C  24  1  0.63425100  0.77144700  0.10268700  1
  C  25  1  0.66877700  0.74918400  0.06462500  1
  C  26  1  0.66736000  0.70174800  0.06328700  1
  C  29  1  0.62705700  0.62898600  0.09890100  1
  C  30  1  0.66710600  0.60377600  0.13436700  1
  C  31  1  0.66744900  0.55632000  0.13286100  1
  C  32  1  0.63136100  0.53441200  0.09491200  1
  C  33  1  0.59036300  0.55861300  0.05962800  1
  C  34  1  0.58611100  0.60571100  0.06258900  1
  C  41  1  0.63208800  0.17828400  0.59661600  1
  C  42  1  0.67256900  0.20280000  0.56096700  1
  C  43  1  0.66788400  0.24999800  0.55929600  1
  C  44  1  0.62645000  0.27289500  0.59535800  1
  C  45  1  0.59010500  0.24971400  0.63248000  1
  C  46  1  0.59139900  0.20225400  0.63272500  1
  C  49  1  0.63130000  0.13038600  0.59507300  1
  C  50  1  0.58957400  0.10725000  0.55866400  1
  C  51  1  0.59041800  0.05983800  0.55709700  1
  C  52  1  0.62980800  0.03597700  0.59307100  1
  C  53  1  0.66854100  0.05778600  0.63056600  1
  C  54  1  0.67157500  0.10511300  0.63027800  1
  C  61  1  0.11907700  0.63061200  0.59773400  1
  C  62  1  0.16060300  0.60453300  0.63197200  1
  C  63  1  0.15908100  0.55723100  0.63084700  1
  C  64  1  0.12035300  0.53621300  0.59292100  1
  C  65  1  0.08040600  0.56096300  0.55767600  1
  C  66  1  0.07822200  0.60832200  0.56058200  1
  C  69  1  0.12071400  0.67843700  0.60089400  1
  C  70  1  0.08296200  0.70125300  0.63850200  1
  C  71  1  0.08849700  0.74857500  0.64164900  1
  C  72  1  0.12934300  0.77280600  0.60627000  1
  C  73  1  0.16281100  0.75122900  0.56760100  1
  C  74  1  0.16129200  0.70400400  0.56603800  1
  C  81  1  0.37232500  0.90158400  0.32573700  1
  C  82  1  0.41637700  0.86602500  0.30283500  1
  C  83  1  0.42032200  0.86533500  0.25571800  1
  C  84  1  0.38324000  0.90145000  0.23124900  1
  C  85  1  0.33974000  0.93753200  0.25328500  1
  C  86  1  0.33337567  0.93732800  0.30063600  1
  C  89  1  0.37106100  0.90172500  0.37340200  1
  C  90  1  0.32922500  0.86662700  0.39827000  1
  C  91  1  0.32918400  0.86796000  0.44568200  1
  C  92  1  0.37040600  0.90446600  0.46804000  1
  C  93  1  0.41257900  0.93936600  0.44372400  1
  C  94  1  0.41414700  0.93736100  0.39661900  1
  C  101  1  0.87072100  0.90550400  0.87405200  1
  C  102  1  0.91657100  0.94003900  0.89762400  1
  C  103  1  0.91912100  0.94013600  0.94476200  1
  C  104  1  0.87848700  0.90451300  0.96860900  1
  C  105  1  0.83326500  0.86941900  0.94582700  1
  C  106  1  0.82871900  0.87009900  0.89844100  1
  C  109  1  0.87084500  0.90601600  0.82643200  1
  C  110  1  0.83088900  0.94180300  0.80182500  1
  C  111  1  0.83125900  0.94088600  0.75442300  1
  C  112  1  0.87135300  0.90417800  0.73188100  1
  C  113  1  0.91276400  0.86889300  0.75593200  1
  C  114  1  0.91349000  0.87036600  0.80305000  1
  C  121  1  0.88240900  0.40219600  0.36841800  1
  C  122  1  0.84078700  0.36689100  0.39276700  1
  C  123  1  0.83940500  0.36724300  0.43994100  1
  C  124  1  0.87677400  0.40417100  0.46304500  1
  C  125  1  0.91745600  0.44010600  0.43953600  1
  C  126  1  0.92104200  0.43891400  0.39214400  1
  C  129  1  0.88208000  0.40090400  0.32073500  1
  C  130  1  0.92450300  0.36534100  0.29676300  1
  C  131  1  0.92205000  0.36469500  0.24934800  1
  C  132  1  0.87875600  0.40004700  0.22607900  1
  C  133  1  0.83692000  0.43569000  0.24941200  1
  C  134  1  0.83709300  0.43539900  0.29659300  1
  C  141  1  0.37897800  0.40474700  0.82134400  1
  C  142  1  0.33382700  0.43942900  0.79759400  1
  C  143  1  0.33176000  0.43961700  0.75040600  1
  C  144  1  0.37138500  0.40352500  0.72680000  1
  C  145  1  0.41638600  0.36842400  0.74970300  1
  C  146  1  0.42088400  0.36926500  0.79707500  1
  C  149  1  0.37984200  0.40554000  0.86898700  1
  C  150  1  0.42070300  0.44144800  0.89302800  1
  C  151  1  0.41986000  0.44141100  0.94044400  1
  C  152  1  0.37904000  0.40534600  0.96364800  1
  C  153  1  0.33868200  0.36941500  0.94016600  1
  C  154  1  0.33785400  0.37010100  0.89299800  1
  C  161  1  0.96414900  0.97464800  0.96837500  1
  C  163  1  0.10537500  0.99572300  0.00373600  1
  C  164  1  0.06081700  0.03184500  0.02516400  1
  C  166  1  0.91805700  0.01119400  0.98907500  1
  C  168  1  0.82395200  0.01901200  0.98456900  1
  C  171  1  0.70813500  0.00294300  0.93299300  1
  C  175  1  0.46287000  0.82973200  0.23256100  1
  C  177  1  0.60212300  0.80650500  0.19664200  1
  C  178  1  0.55440500  0.77185600  0.17438100  1
  C  180  1  0.41378600  0.79447800  0.21120900  1
  C  182  1  0.31925400  0.78833500  0.21592300  1
  C  185  1  0.20390700  0.80679600  0.26700600  1
  C  189  1  0.79773100  0.33219500  0.46434400  1
  C  191  1  0.66012000  0.31050500  0.50271200  1
  C  192  1  0.70738400  0.27496200  0.52377400  1
  C  194  1  0.84646900  0.29607300  0.48445800  1
  C  196  1  0.94042900  0.28866200  0.47860400  1
  C  199  1  0.05658800  0.31258200  0.43029100  1
  C  203  1  0.28798800  0.47434600  0.72633500  1
  C  205  1  0.15691800  0.49042400  0.68049500  1
  C  206  1  0.19773300  0.53072300  0.66574000  1
  C  208  1  0.32923900  0.51578700  0.71374200  1
  C  210  1  0.41741400  0.53008700  0.72593600  1
  C  213  1  0.54464200  0.49453800  0.75692600  1
  C  217  1  0.55136000  0.27529200  0.66772500  1
  C  219  1  0.41019300  0.30362100  0.69823000  1
  C  220  1  0.45986600  0.33443600  0.72456700  1
  C  222  1  0.60260000  0.30604000  0.69442100  1
  C  224  1  0.69833300  0.31023900  0.69277700  1
  C  227  1  0.82810400  0.27055000  0.66833400  1
  C  231  1  0.19751000  0.77748300  0.53172000  1
  C  233  1  0.33335767  0.79889300  0.49123400  1
  C  234  1  0.28513500  0.83471300  0.47144700  1
  C  236  1  0.14760600  0.81307900  0.51107700  1
  C  238  1  0.05472900  0.82181600  0.51904400  1
  C  241  1  0.91801900  0.78702300  0.54286700  1
  C  245  1  0.70431700  0.52967800  0.16784200  1
  C  247  1  0.84387800  0.50267200  0.20120800  1
  C  248  1  0.79355100  0.47027200  0.22524300  1
  C  250  1  0.65245700  0.49734300  0.19231000  1
  C  252  1  0.55733500  0.49199700  0.18862200  1
  C  255  1  0.42594000  0.53018400  0.16325300  1
  C  259  1  0.45483500  0.97517700  0.46674100  1
  C  261  1  0.59591600  0.00065700  0.49927400  1
  C  262  1  0.54840100  0.03492800  0.52223100  1
  C  264  1  0.40593200  0.01019700  0.48854900  1
  C  266  1  0.31118200  0.01581300  0.48478700  1
  C  269  1  0.19617200  0.99690800  0.43350400  1
  C  273  1  0.95452400  0.83313700  0.73259100  1
  C  275  1  0.09553700  0.80643800  0.70087800  1
  C  276  1  0.04708000  0.77325200  0.67682000  1
  C  278  1  0.90474200  0.79942500  0.70929300  1
  C  280  1  0.80960800  0.79514400  0.71212200  1
  C  283  1  0.69802200  0.80680300  0.76695500  1
  C  287  1  0.29831000  0.33379500  0.96425100  1
  C  289  1  0.15972500  0.30782800  0.99890600  1
  C  290  1  0.20943500  0.27420900  0.02172700  1
  C  292  1  0.34947000  0.29978600  0.98642100  1
  C  294  1  0.44430600  0.29513500  0.98192500  1
  C  297  1  0.55672000  0.31151300  0.92863100  1
  C  301  1  0.05565000  0.27253600  0.16603300  1
  C  303  1  0.91539700  0.29938100  0.19875100  1
  C  304  1  0.96552100  0.33061600  0.22438300  1
  C  306  1  0.10737300  0.30359300  0.19214700  1
  C  308  1  0.20277000  0.30853100  0.18944200  1
  C  311  1  0.33303100  0.27128500  0.16155400  1
  C  315  1  0.70448200  0.77551800  0.02917500  1
  C  317  1  0.84301400  0.80370300  0.99583700  1
  C  318  1  0.79138500  0.83513500  0.97116300  1
  C  320  1  0.65126200  0.80686000  0.00412000  1
  C  322  1  0.55590400  0.81131200  0.00770900  1
  C  325  1  0.42701300  0.77280300  0.03539900  1
  C  329  1  0.45997000  0.47650200  0.96544600  1
  C  331  1  0.59963600  0.50269500  0.99887600  1
  C  332  1  0.54990200  0.53477300  0.02379100  1
  C  334  1  0.40887500  0.50897500  0.98993200  1
  C  336  1  0.31381800  0.51435100  0.98908800  1
  C  339  1  0.24180700  0.54058100  0.92518000  1
  C  343  1  0.78966800  0.97495900  0.72849700  1
  C  345  1  0.66159000  0.99190400  0.68126500  1
  C  346  1  0.70471700  0.03170300  0.66646300  1
  C  348  1  0.83278900  0.01581100  0.71588700  1
  C  350  1  0.91896200  0.02875400  0.73149300  1
  C  353  1  0.05160600  0.99515100  0.76017300  1
  C  357  1  0.21627800  0.03238100  0.16899400  1
  C  359  1  0.35374400  0.00039300  0.19979200  1
  C  360  1  0.30044000  0.97209700  0.22728300  1
  C  362  1  0.16130100  0.00423700  0.19681700  1
  C  364  1  0.06519900  0.00265600  0.19564700  1
  C  367  1  0.93987600  0.04087200  0.16419600  1
  C  371  1  0.95433800  0.47636100  0.46417700  1
  C  373  1  0.09260000  0.50618600  0.49604000  1
  C  374  1  0.04069100  0.53681800  0.52171500  1
  C  376  1  0.90090100  0.50753500  0.48924900  1
  C  378  1  0.80537900  0.51125100  0.48872000  1
  C  381  1  0.72667100  0.52649200  0.42303000  1
  H  7  1  0.06764900  0.12063900  0.03492700  1
  H  8  1  0.14436400  0.99983400  0.09637400  1
  H  15  1  0.12553600  0.30549500  0.09243700  1
  H  16  1  0.06751900  0.18379000  0.15657800  1
  H  19  1  0.18014000  0.12584200  0.19255800  1
  H  20  1  0.18159800  0.17930900  0.99833400  1
  H  27  1  0.55783400  0.68320300  0.16121800  1
  H  28  1  0.63553500  0.80577200  0.10361500  1
  H  35  1  0.63243300  0.50009400  0.09358100  1
  H  36  1  0.55480800  0.62326800  0.03733900  1
  H  39  1  0.66533400  0.68316300  0.00254600  1
  H  40  1  0.66747000  0.62221100  0.19515300  1
  H  47  1  0.70359800  0.18602600  0.53511100  1
  H  48  1  0.62498500  0.30722800  0.59520400  1
  H  55  1  0.62936500  0.00168300  0.59203000  1
  H  56  1  0.70144200  0.12141500  0.65673600  1
  H  59  1  0.59122400  0.18182700  0.69282000  1
  H  60  1  0.58516600  0.12919200  0.49905300  1
  H  67  1  0.19076800  0.62020500  0.65873700  1
  H  68  1  0.12119000  0.50195900  0.59082200  1
  H  75  1  0.13116000  0.80710100  0.60778300  1
  H  76  1  0.18829500  0.68815400  0.53859900  1
  H  79  1  0.07312400  0.63171000  0.50152400  1
  H  80  1  0.07796700  0.67779700  0.69752000  1
  H  87  1  0.44579800  0.84032700  0.32053000  1
  H  88  1  0.38638400  0.90100200  0.19694400  1
  H  95  1  0.36955500  0.90574800  0.50235400  1
  H  96  1  0.44617000  0.96245000  0.37909600  1
  H  99  1  0.32731600  0.99728600  0.32148900  1
  H  100  1  0.32438800  0.80651800  0.37811500  1
  H  107  1  0.94841600  0.96538900  0.88040900  1
  H  108  1  0.88083900  0.90448000  0.00293100  1
  H  115  1  0.87141900  0.90335500  0.69755000  1
  H  116  1  0.94436300  0.84485600  0.82045300  1
  H  119  1  0.81995100  0.81062200  0.87657200  1
  H  120  1  0.82909200  0.00120600  0.82397500  1
  H  127  1  0.81116200  0.34059400  0.37605600  1
  H  128  1  0.87474900  0.40477000  0.49736300  1
  H  135  1  0.87814800  0.40001000  0.19173600  1
  H  136  1  0.80493000  0.46087900  0.31347700  1
  H  139  1  0.92363200  0.49822000  0.36939500  1
  H  140  1  0.93187500  0.30590200  0.31876600  1
  H  147  1  0.30244400  0.46496700  0.81473300  1
  H  148  1  0.36985200  0.40352900  0.69246900  1
  H  155  1  0.37908200  0.40511500  0.99798600  1
  H  156  1  0.30708100  0.34427300  0.87604000  1
  H  159  1  0.42968600  0.30984700  0.81910800  1
  H  160  1  0.42304700  0.50099100  0.87106900  1
  H  167  1  0.17337800  0.98855300  0.00952900  1
  H  172  1  0.69034000  0.00956300  0.89818700  1
  H  173  1  0.65227500  0.01588300  0.95394100  1
  H  174  1  0.71339600  0.96672100  0.93741100  1
  H  181  1  0.67050300  0.81263000  0.19068000  1
  H  186  1  0.18475100  0.80035600  0.30167900  1
  H  187  1  0.14721300  0.79539800  0.24569200  1
  H  188  1  0.21301800  0.84287400  0.26290100  1
  H  195  1  0.59248400  0.31738600  0.50973500  1
  H  200  1  0.07545100  0.31085000  0.39503600  1
  H  201  1  0.11277600  0.29774500  0.44971600  1
  H  202  1  0.04912800  0.34782500  0.43938900  1
  H  209  1  0.09437700  0.47981900  0.66870600  1
  H  214  1  0.56915000  0.48196100  0.78903800  1
  H  215  1  0.59481300  0.51896700  0.74463500  1
  H  216  1  0.54102800  0.46633200  0.73367500  1
  H  223  1  0.33959000  0.30299100  0.69823700  1
  H  228  1  0.85842500  0.23729600  0.67137400  1
  H  229  1  0.81259300  0.27645700  0.63304300  1
  H  230  1  0.87915700  0.29498600  0.67968500  1
  H  237  1  0.40220100  0.79393900  0.48539600  1
  H  242  1  0.87924000  0.75634700  0.53679500  1
  H  243  1  0.93881200  0.78741500  0.57799800  1
  H  244  1  0.87235500  0.81539500  0.53631600  1
  H  251  1  0.91434000  0.50421800  0.20284900  1
  H  256  1  0.39380500  0.56303900  0.16626700  1
  H  257  1  0.44344200  0.52480500  0.12810200  1
  H  258  1  0.37562500  0.50503500  0.17377500  1
  H  265  1  0.66501100  0.99536500  0.50396700  1
  H  270  1  0.17761200  0.00297400  0.39867800  1
  H  271  1  0.13897400  0.00828300  0.45450300  1
  H  272  1  0.20571200  0.96090300  0.43794000  1
  H  279  1  0.16514100  0.81077300  0.69705800  1
  H  284  1  0.67964400  0.79489900  0.80026500  1
  H  285  1  0.63947900  0.80049900  0.74472200  1
  H  286  1  0.71059700  0.84280700  0.76900700  1
  H  293  1  0.09049900  0.31233600  0.00394400  1
  H  298  1  0.57526500  0.30269800  0.89439700  1
  H  299  1  0.61493800  0.30291300  0.95028500  1
  H  300  1  0.54479400  0.34760400  0.92994000  1
  H  307  1  0.84483200  0.29832600  0.19953700  1
  H  312  1  0.36444000  0.23814200  0.16246800  1
  H  313  1  0.31541200  0.27891800  0.12683400  1
  H  314  1  0.38398000  0.29547500  0.17351500  1
  H  321  1  0.91353800  0.80290000  0.99432400  1
  H  326  1  0.39614900  0.73956700  0.03379900  1
  H  327  1  0.44542600  0.77958800  0.07019800  1
  H  328  1  0.37533000  0.79708500  0.02440500  1
  H  335  1  0.66929500  0.49867200  0.00281800  1
  H  340  1  0.20509900  0.52812500  0.89585700  1
  H  341  1  0.30242300  0.55911200  0.91360800  1
  H  342  1  0.19562500  0.56314200  0.94334300  1
  H  349  1  0.59892400  0.98186800  0.66913400  1
  H  354  1  0.10352300  0.97053400  0.75056300  1
  H  355  1  0.01616100  0.98275800  0.78998200  1
  H  356  1  0.08706600  0.02643500  0.76819400  1
  H  363  1  0.42426100  0.99863200  0.19940900  1
  H  368  1  0.91303100  0.07485800  0.16163300  1
  H  369  1  0.95598500  0.02911200  0.13046400  1
  H  370  1  0.88591400  0.01973500  0.17859200  1
  H  377  1  0.16268300  0.50369300  0.49943800  1
  H  382  1  0.68867400  0.50920200  0.39669600  1
  H  383  1  0.78521800  0.54372100  0.40760900  1
  H  384  1  0.68045400  0.55104200  0.43836200  1
  N  162  1  0.05539500  0.96841800  0.97687700  1
  N  165  1  0.96925500  0.03757200  0.01690500  1
  N  176  1  0.55451000  0.83432200  0.22398600  1
  N  179  1  0.46249700  0.76774200  0.18266000  1
  N  190  1  0.70714300  0.33789300  0.47470800  1
  N  193  1  0.79828100  0.26975400  0.51364800  1
  N  204  1  0.20406700  0.46374800  0.70904200  1
  N  207  1  0.28166100  0.54109600  0.68336700  1
  N  218  1  0.45760500  0.27582000  0.67068400  1
  N  221  1  0.55332900  0.33426300  0.72120000  1
  N  232  1  0.28816100  0.77224100  0.52078100  1
  N  235  1  0.19494700  0.84012900  0.48238300  1
  N  246  1  0.79760600  0.53054900  0.17327600  1
  N  249  1  0.70068500  0.46898700  0.21938400  1
  N  260  1  0.54741600  0.97191000  0.47328800  1
  N  263  1  0.45562200  0.03783400  0.51583000  1
  N  274  1  0.04757800  0.83522900  0.72709400  1
  N  277  1  0.95388800  0.77154800  0.68207900  1
  N  288  1  0.20593300  0.33642700  0.97176900  1
  N  291  1  0.30199400  0.27200800  0.01444100  1
  N  302  1  0.96211100  0.27220700  0.17032100  1
  N  305  1  0.05869800  0.33135600  0.21964500  1
  N  316  1  0.79785500  0.77571500  0.02407100  1
  N  319  1  0.69837500  0.83532900  0.97669300  1
  N  330  1  0.55294900  0.47470800  0.97130000  1
  N  333  1  0.45676400  0.53612200  0.01826300  1
  N  344  1  0.70605100  0.96499700  0.71059800  1
  N  347  1  0.78809200  0.04172000  0.68500400  1
  N  358  1  0.30978100  0.02876400  0.17150700  1
  N  361  1  0.20716500  0.97528700  0.22424400  1
  N  372  1  0.04764100  0.47700400  0.46903400  1
  N  375  1  0.94732900  0.53579100  0.51714200  1
  O  17  1  0.22166100  0.12806900  0.16660000  1
  O  18  1  0.22169300  0.17860400  0.02489800  1
  O  37  1  0.70753600  0.67997000  0.02814700  1
  O  38  1  0.70892100  0.62524700  0.16924700  1
  O  57  1  0.54968000  0.17962200  0.66686800  1
  O  58  1  0.54550600  0.13068600  0.52573900  1
  O  77  1  0.03374500  0.63249000  0.52833600  1
  O  78  1  0.03789800  0.67760300  0.67094200  1
  O  97  1  0.28700000  0.97080500  0.32215300  1
  O  98  1  0.28408500  0.83296300  0.37650500  1
  O  117  1  0.78091000  0.83755200  0.87624400  1
  O  118  1  0.78644800  0.97560200  0.82368400  1
  O  137  1  0.96523400  0.47222000  0.36932100  1
  O  138  1  0.97123800  0.33272000  0.31933700  1
  O  157  1  0.46868700  0.33679500  0.81939200  1
  O  158  1  0.46469000  0.47500900  0.87053000  1
  O  169  1  0.78682800  0.04268900  0.01280700  1
  O  170  1  0.79446300  0.02497000  0.94248900  1
  O  183  1  0.28002800  0.76590100  0.18730000  1
  O  184  1  0.28799800  0.78274800  0.25772700  1
  O  197  1  0.97854800  0.26140800  0.50308000  1
  O  198  1  0.97142400  0.28834000  0.43631000  1
  O  211  1  0.43894500  0.56889000  0.71770200  1
  O  212  1  0.45537300  0.51470200  0.76379200  1
  O  225  1  0.73317000  0.34278700  0.71118400  1
  O  226  1  0.74616000  0.27190300  0.69569300  1
  O  239  1  0.02535400  0.85884100  0.50844600  1
  O  240  1  0.99654700  0.78737800  0.51321900  1
  O  253  1  0.52209700  0.45873000  0.20553800  1
  O  254  1  0.50655900  0.52948800  0.19156400  1
  O  267  1  0.27209800  0.03899700  0.51282100  1
  O  268  1  0.27963700  0.02139200  0.44295700  1
  O  281  1  0.77005200  0.77783800  0.68029500  1
  O  282  1  0.77911700  0.78287200  0.75260800  1
  O  295  1  0.48525700  0.27554200  0.01202000  1
  O  296  1  0.47502000  0.28671000  0.94051800  1
  O  309  1  0.23846400  0.34023900  0.20893100  1
  O  310  1  0.25263400  0.27064600  0.19000900  1
  O  323  1  0.51904400  0.84347300  0.98951400  1
  O  324  1  0.50664800  0.77325800  0.00643700  1
  O  337  1  0.27403100  0.50585500  0.02415600  1
  O  338  1  0.26748200  0.50273500  0.95214000  1
  O  351  1  0.93778700  0.06868300  0.72915000  1
  O  352  1  0.98916100  0.00081400  0.72306800  1
  O  365  1  0.02588500  0.97444000  0.21857500  1
  O  366  1  0.02053000  0.04190200  0.19248000  1
  O  379  1  0.76623100  0.50899800  0.52492500  1
  O  380  1  0.75655100  0.49361000  0.45502100  1
