# generated using pymatgen
data_CuH4(C5O2)2
_symmetry_space_group_name_H-M   'P 1'
_cell_length_a   13.03763000
_cell_length_b   22.38629000
_cell_length_c   22.42665128
_cell_angle_alpha   60.26684420
_cell_angle_beta   89.50367544
_cell_angle_gamma   89.81117000
_symmetry_Int_Tables_number   1
_chemical_formula_structural   CuH4(C5O2)2
_chemical_formula_sum   'Cu12 H48 C120 O48'
_cell_volume   5683.56408774
_cell_formula_units_Z   12
loop_
 _symmetry_equiv_pos_site_id
 _symmetry_equiv_pos_as_xyz
  1  'x, y, z'
loop_
 _atom_site_type_symbol
 _atom_site_label
 _atom_site_symmetry_multiplicity
 _atom_site_fract_x
 _atom_site_fract_y
 _atom_site_fract_z
 _atom_site_occupancy
  Cu  Cu1  1  0.24352000  0.99907000  0.38151000  1.0
  Cu  Cu2  1  0.74591000  0.62165000  0.37836000  1.0
  Cu  Cu3  1  0.25365000  0.62175000  0.99962000  1.0
  Cu  Cu4  1  0.75550000  0.00094000  0.62168000  1.0
  Cu  Cu5  1  0.24970000  0.38136000  0.61878000  1.0
  Cu  Cu6  1  0.74213000  0.37500000  0.00092000  1.0
  Cu  Cu7  1  0.24641000  0.99686000  0.27355000  1.0
  Cu  Cu8  1  0.74655000  0.73104000  0.27024000  1.0
  Cu  Cu9  1  0.25094000  0.73040000  0.00097000  1.0
  Cu  Cu10  1  0.75567000  0.00259000  0.72998000  1.0
  Cu  Cu11  1  0.24921000  0.27166000  0.72695000  1.0
  Cu  Cu12  1  0.74098000  0.26624000  0.99983000  1.0
  H  H1  1  0.89533000  0.66702000  0.51085000  1.0
  H  H2  1  0.40640000  0.49044000  0.17656000  1.0
  H  H3  1  0.90282000  0.82136000  0.67220000  1.0
  H  H4  1  0.41424000  0.33571000  0.49045000  1.0
  H  H5  1  0.89828000  0.50371000  0.82746000  1.0
  H  H6  1  0.40762000  0.17425000  0.33718000  1.0
  H  H7  1  0.40816000  0.82622000  0.51153000  1.0
  H  H8  1  0.89646000  0.49304000  0.32827000  1.0
  H  H9  1  0.41202000  0.66949000  0.82614000  1.0
  H  H10  1  0.90956000  0.17522000  0.48936000  1.0
  H  H11  1  0.40148000  0.51055000  0.66851000  1.0
  H  H12  1  0.89945000  0.32941000  0.17374000  1.0
  H  H13  1  0.09720000  0.33474000  0.48710000  1.0
  H  H14  1  0.59906000  0.50634000  0.82372000  1.0
  H  H15  1  0.09770000  0.17660000  0.32636000  1.0
  H  H16  1  0.59882000  0.67045000  0.50750000  1.0
  H  H17  1  0.09269000  0.49369000  0.17216000  1.0
  H  H18  1  0.60480000  0.82632000  0.67046000  1.0
  H  H19  1  0.61478000  0.18089000  0.49345000  1.0
  H  H20  1  0.09461000  0.50560000  0.67085000  1.0
  H  H21  1  0.59882000  0.32733000  0.17661000  1.0
  H  H22  1  0.09392000  0.82081000  0.51055000  1.0
  H  H23  1  0.60685000  0.49531000  0.32588000  1.0
  H  H24  1  0.10071000  0.66864000  0.82522000  1.0
  H  H25  1  0.99430000  0.83981000  0.31963000  1.0
  H  H26  1  0.49332000  0.68411000  0.15818000  1.0
  H  H27  1  0.00669000  0.84468000  0.84106000  1.0
  H  H28  1  0.50552000  0.16332000  0.68309000  1.0
  H  H29  1  0.99246000  0.31325000  0.84054000  1.0
  H  H30  1  0.48815000  0.15479000  0.16117000  1.0
  H  H31  1  0.49642000  0.84300000  0.31853000  1.0
  H  H32  1  0.99718000  0.68476000  0.15689000  1.0
  H  H33  1  0.50404000  0.84411000  0.84413000  1.0
  H  H34  1  0.00846000  0.15905000  0.67921000  1.0
  H  H35  1  0.49368000  0.31707000  0.83973000  1.0
  H  H36  1  0.99078000  0.15237000  0.15877000  1.0
  H  H37  1  0.99858000  0.79171000  0.60629000  1.0
  H  H38  1  0.51618000  0.40080000  0.39430000  1.0
  H  H39  1  0.99933000  0.60056000  0.79753000  1.0
  H  H40  1  0.51277000  0.20606000  0.40000000  1.0
  H  H41  1  0.99392000  0.59971000  0.60616000  1.0
  H  H42  1  0.50201000  0.39423000  0.20608000  1.0
  H  H43  1  0.49857000  0.60484000  0.60343000  1.0
  H  H44  1  0.99389000  0.39765000  0.20145000  1.0
  H  H45  1  0.51072000  0.79567000  0.60556000  1.0
  H  H46  1  0.99505000  0.39854000  0.39278000  1.0
  H  H47  1  0.50809000  0.60346000  0.79582000  1.0
  H  H48  1  0.00559000  0.20664000  0.39264000  1.0
  C  C1  1  0.93990000  0.71416000  0.48418000  1.0
  C  C2  1  0.44986000  0.51818000  0.19629000  1.0
  C  C3  1  0.94818000  0.80176000  0.71859000  1.0
  C  C4  1  0.45864000  0.28870000  0.51779000  1.0
  C  C5  1  0.94176000  0.47758000  0.80560000  1.0
  C  C6  1  0.44870000  0.19442000  0.28859000  1.0
  C  C7  1  0.45031000  0.80537000  0.48394000  1.0
  C  C8  1  0.94067000  0.51986000  0.28087000  1.0
  C  C9  1  0.45536000  0.71711000  0.80550000  1.0
  C  C10  1  0.95265000  0.19689000  0.51542000  1.0
  C  C11  1  0.44524000  0.48305000  0.71555000  1.0
  C  C12  1  0.94319000  0.28196000  0.19439000  1.0
  C  C13  1  0.05574000  0.28631000  0.51419000  1.0
  C  C14  1  0.55344000  0.48073000  0.80269000  1.0
  C  C15  1  0.05197000  0.19633000  0.28012000  1.0
  C  C16  1  0.55502000  0.71791000  0.48182000  1.0
  C  C17  1  0.04848000  0.52013000  0.19337000  1.0
  C  C18  1  0.56096000  0.80507000  0.71809000  1.0
  C  C19  1  0.56886000  0.20174000  0.51950000  1.0
  C  C20  1  0.04947000  0.47856000  0.71779000  1.0
  C  C21  1  0.55371000  0.28033000  0.19851000  1.0
  C  C22  1  0.04903000  0.80038000  0.48410000  1.0
  C  C23  1  0.55963000  0.52092000  0.28031000  1.0
  C  C24  1  0.05681000  0.71604000  0.80443000  1.0
  C  C25  1  0.87507000  0.72204000  0.37693000  1.0
  C  C26  1  0.38066000  0.62451000  0.09818000  1.0
  C  C27  1  0.88444000  0.90287000  0.72445000  1.0
  C  C28  1  0.38606000  0.28069000  0.62391000  1.0
  C  C29  1  0.87525000  0.36986000  0.90395000  1.0
  C  C30  1  0.37515000  0.09605000  0.28136000  1.0
  C  C31  1  0.38028000  0.90332000  0.37765000  1.0
  C  C32  1  0.87846000  0.62709000  0.27563000  1.0
  C  C33  1  0.38725000  0.72450000  0.90486000  1.0
  C  C34  1  0.88969000  0.09712000  0.62357000  1.0
  C  C35  1  0.37824000  0.37661000  0.72140000  1.0
  C  C36  1  0.87247000  0.27178000  0.09771000  1.0
  C  C37  1  0.12181000  0.27882000  0.62136000  1.0
  C  C38  1  0.61393000  0.37249000  0.90196000  1.0
  C  C39  1  0.11218000  0.09391000  0.27572000  1.0
  C  C40  1  0.61487000  0.72459000  0.37379000  1.0
  C  C41  1  0.11722000  0.62720000  0.09567000  1.0
  C  C42  1  0.62211000  0.90603000  0.72488000  1.0
  C  C43  1  0.62893000  0.10160000  0.62699000  1.0
  C  C44  1  0.11424000  0.37243000  0.72252000  1.0
  C  C45  1  0.60882000  0.27276000  0.09685000  1.0
  C  C46  1  0.11519000  0.89961000  0.37719000  1.0
  C  C47  1  0.61711000  0.62887000  0.27405000  1.0
  C  C48  1  0.12364000  0.72543000  0.90230000  1.0
  C  C49  1  0.93873000  0.75055000  0.41214000  1.0
  C  C50  1  0.44511000  0.59026000  0.16107000  1.0
  C  C51  1  0.94873000  0.83923000  0.75348000  1.0
  C  C52  1  0.45454000  0.25276000  0.58979000  1.0
  C  C53  1  0.93952000  0.40538000  0.84008000  1.0
  C  C54  1  0.44185000  0.15857000  0.25221000  1.0
  C  C55  1  0.44635000  0.84069000  0.41198000  1.0
  C  C56  1  0.94090000  0.59204000  0.24572000  1.0
  C  C57  1  0.45238000  0.75359000  0.84138000  1.0
  C  C58  1  0.95286000  0.16114000  0.58745000  1.0
  C  C59  1  0.44226000  0.41091000  0.75077000  1.0
  C  C60  1  0.93922000  0.24405000  0.15991000  1.0
  C  C61  1  0.05903000  0.24981000  0.58621000  1.0
  C  C62  1  0.55164000  0.40855000  0.83805000  1.0
  C  C63  1  0.04992000  0.15843000  0.24570000  1.0
  C  C64  1  0.55377000  0.75384000  0.40985000  1.0
  C  C65  1  0.05082000  0.59226000  0.15847000  1.0
  C  C66  1  0.55999000  0.84144000  0.75411000  1.0
  C  C67  1  0.56675000  0.16601000  0.59152000  1.0
  C  C68  1  0.04943000  0.40645000  0.75241000  1.0
  C  C69  1  0.54921000  0.24406000  0.16251000  1.0
  C  C70  1  0.04992000  0.83647000  0.41211000  1.0
  C  C71  1  0.55547000  0.59298000  0.24539000  1.0
  C  C72  1  0.05940000  0.75367000  0.83918000  1.0
  C  C73  1  0.99605000  0.70021000  0.59731000  1.0
  C  C74  1  0.50976000  0.40634000  0.29556000  1.0
  C  C75  1  0.99969000  0.70058000  0.70615000  1.0
  C  C76  1  0.51480000  0.29946000  0.40570000  1.0
  C  C77  1  0.99665000  0.59153000  0.70608000  1.0
  C  C78  1  0.50830000  0.29560000  0.29885000  1.0
  C  C79  1  0.50531000  0.70467000  0.59588000  1.0
  C  C80  1  0.99493000  0.40663000  0.29286000  1.0
  C  C81  1  0.50931000  0.70397000  0.70513000  1.0
  C  C82  1  0.00078000  0.29816000  0.40155000  1.0
  C  C83  1  0.50352000  0.59538000  0.70389000  1.0
  C  C84  1  0.99957000  0.29758000  0.29266000  1.0
  C  C85  1  0.99481000  0.73852000  0.52123000  1.0
  C  C86  1  0.50669000  0.48246000  0.25670000  1.0
  C  C87  1  0.00158000  0.73961000  0.74356000  1.0
  C  C88  1  0.51497000  0.26331000  0.48168000  1.0
  C  C89  1  0.99588000  0.51526000  0.74365000  1.0
  C  C90  1  0.50403000  0.25607000  0.26201000  1.0
  C  C91  1  0.50390000  0.74321000  0.51987000  1.0
  C  C92  1  0.99398000  0.48286000  0.25518000  1.0
  C  C93  1  0.50930000  0.74220000  0.74336000  1.0
  C  C94  1  0.00321000  0.26019000  0.47770000  1.0
  C  C95  1  0.50058000  0.51913000  0.74100000  1.0
  C  C96  1  0.99887000  0.25861000  0.25510000  1.0
  C  C97  1  0.99434000  0.81191000  0.37545000  1.0
  C  C98  1  0.49762000  0.62828000  0.18545000  1.0
  C  C99  1  0.00506000  0.81558000  0.81406000  1.0
  C  C100  1  0.50890000  0.19116000  0.62728000  1.0
  C  C101  1  0.99358000  0.36917000  0.81374000  1.0
  C  C102  1  0.49291000  0.18284000  0.18910000  1.0
  C  C103  1  0.49890000  0.81542000  0.37431000  1.0
  C  C104  1  0.99622000  0.62883000  0.18413000  1.0
  C  C105  1  0.50541000  0.81598000  0.81617000  1.0
  C  C106  1  0.00697000  0.18708000  0.62340000  1.0
  C  C107  1  0.49565000  0.37298000  0.81243000  1.0
  C  C108  1  0.99321000  0.18194000  0.18526000  1.0
  C  C109  1  0.99823000  0.73576000  0.63411000  1.0
  C  C110  1  0.51412000  0.37149000  0.36753000  1.0
  C  C111  1  0.99871000  0.62839000  0.74163000  1.0
  C  C112  1  0.51241000  0.26200000  0.37078000  1.0
  C  C113  1  0.99543000  0.62803000  0.63397000  1.0
  C  C114  1  0.50651000  0.36779000  0.26184000  1.0
  C  C115  1  0.50218000  0.63251000  0.63185000  1.0
  C  C116  1  0.99603000  0.36975000  0.25731000  1.0
  C  C117  1  0.50895000  0.73972000  0.63310000  1.0
  C  C118  1  0.99672000  0.37026000  0.36492000  1.0
  C  C119  1  0.50717000  0.63176000  0.73994000  1.0
  C  C120  1  0.00243000  0.26256000  0.36473000  1.0
  O  O1  1  0.85195000  0.76139000  0.31385000  1.0
  O  O2  1  0.35363000  0.68699000  0.07610000  1.0
  O  O3  1  0.86162000  0.92859000  0.76264000  1.0
  O  O4  1  0.36102000  0.24132000  0.68690000  1.0
  O  O5  1  0.84582000  0.30804000  0.92483000  1.0
  O  O6  1  0.35089000  0.07162000  0.24248000  1.0
  O  O7  1  0.35463000  0.92515000  0.31520000  1.0
  O  O8  1  0.85269000  0.68993000  0.23653000  1.0
  O  O9  1  0.36058000  0.76364000  0.92876000  1.0
  O  O10  1  0.86160000  0.07649000  0.68565000  1.0
  O  O11  1  0.35015000  0.31429000  0.76108000  1.0
  O  O12  1  0.84979000  0.23330000  0.07251000  1.0
  O  O13  1  0.14924000  0.23827000  0.68334000  1.0
  O  O14  1  0.63420000  0.30856000  0.92692000  1.0
  O  O15  1  0.13959000  0.06977000  0.23690000  1.0
  O  O16  1  0.64042000  0.76442000  0.31100000  1.0
  O  O17  1  0.14024000  0.69058000  0.07195000  1.0
  O  O18  1  0.65000000  0.92825000  0.76495000  1.0
  O  O19  1  0.64965000  0.07653000  0.69064000  1.0
  O  O20  1  0.13663000  0.30879000  0.76011000  1.0
  O  O21  1  0.63541000  0.23227000  0.07448000  1.0
  O  O22  1  0.14020000  0.92278000  0.31421000  1.0
  O  O23  1  0.64009000  0.69229000  0.23546000  1.0
  O  O24  1  0.14907000  0.76528000  0.92539000  1.0
  O  O25  1  0.84657000  0.65931000  0.41456000  1.0
  O  O26  1  0.35599000  0.58694000  0.07215000  1.0
  O  O27  1  0.85475000  0.92562000  0.66250000  1.0
  O  O28  1  0.35507000  0.34257000  0.58541000  1.0
  O  O29  1  0.85227000  0.40617000  0.93189000  1.0
  O  O30  1  0.34515000  0.07289000  0.34362000  1.0
  O  O31  1  0.35193000  0.92909000  0.41497000  1.0
  O  O32  1  0.85352000  0.58954000  0.33907000  1.0
  O  O33  1  0.36029000  0.66155000  0.92908000  1.0
  O  O34  1  0.86567000  0.06918000  0.58768000  1.0
  O  O35  1  0.35455000  0.41407000  0.65799000  1.0
  O  O36  1  0.84067000  0.33355000  0.07542000  1.0
  O  O37  1  0.14535000  0.34265000  0.58508000  1.0
  O  O38  1  0.64463000  0.41085000  0.92581000  1.0
  O  O39  1  0.13560000  0.06891000  0.33912000  1.0
  O  O40  1  0.63948000  0.66109000  0.41057000  1.0
  O  O41  1  0.14858000  0.58889000  0.07167000  1.0
  O  O42  1  0.64497000  0.93316000  0.66091000  1.0
  O  O43  1  0.65898000  0.07739000  0.58858000  1.0
  O  O44  1  0.14492000  0.41185000  0.66056000  1.0
  O  O45  1  0.63112000  0.33682000  0.06913000  1.0
  O  O46  1  0.14341000  0.92453000  0.41507000  1.0
  O  O47  1  0.64458000  0.59068000  0.33663000  1.0
  O  O48  1  0.15014000  0.66226000  0.92753000  1.0
