# generated using pymatgen
data_H32C41N12
_symmetry_space_group_name_H-M   'P 1'
_cell_length_a   17.17830000
_cell_length_b   17.17830000
_cell_length_c   34.35650000
_cell_angle_alpha   90.00380000
_cell_angle_beta   89.99620000
_cell_angle_gamma   90.00000000
_symmetry_Int_Tables_number   1
_chemical_formula_structural   H32C41N12
_chemical_formula_sum   'H64 C82 N24'
_cell_volume   10138.39665342
_cell_formula_units_Z   2
loop_
 _symmetry_equiv_pos_site_id
 _symmetry_equiv_pos_as_xyz
  1  'x, y, z'
loop_
 _atom_site_type_symbol
 _atom_site_label
 _atom_site_symmetry_multiplicity
 _atom_site_fract_x
 _atom_site_fract_y
 _atom_site_fract_z
 _atom_site_occupancy
  C  1  1  0.03063700  0.80647900  0.98301300  1
  C  2  1  0.00522800  0.72924500  0.98572300  1
  C  3  1  0.92338100  0.72844100  0.98540300  1
  C  4  1  0.89643000  0.80510700  0.98215800  1
  C  5  1  0.81569300  0.82093900  0.97913300  1
  C  6  1  0.76050800  0.75935000  0.97980800  1
  C  7  1  0.78909500  0.68214400  0.98367700  1
  C  8  1  0.86973600  0.66644400  0.98641300  1
  C  9  1  0.06018200  0.66840500  0.98698600  1
  C  10  1  0.14056200  0.68583500  0.98487300  1
  C  11  1  0.16773200  0.76368700  0.98143300  1
  C  12  1  0.11109600  0.82401700  0.98073800  1
  C  13  1  0.96356400  0.91453400  0.94840700  1
  C  14  1  0.96267400  0.99185000  0.96130600  1
  C  15  1  0.96159400  0.99221200  0.00224700  1
  C  16  1  0.96148700  0.91509200  0.01533600  1
  C  17  1  0.96060600  0.05349000  0.02952200  1
  C  18  1  0.95873400  0.03646800  0.06983200  1
  C  19  1  0.95774800  0.95854100  0.08381500  1
  C  20  1  0.95934100  0.89796100  0.05562500  1
  C  21  1  0.96647300  0.89698900  0.90819700  1
  C  22  1  0.96806200  0.95739300  0.87990700  1
  C  23  1  0.96628600  0.03546000  0.89368300  1
  C  24  1  0.96359700  0.05288300  0.93392000  1
  C  37  1  0.96298300  0.86026700  0.98198100  1
  C  38  1  0.95264400  0.94004700  0.12360400  1
  C  39  1  0.97579800  0.93886700  0.84025800  1
  C  40  1  0.24672800  0.78097500  0.97570900  1
  C  41  1  0.68163100  0.77386200  0.97268200  1
  C  46  1  0.80702700  0.89750400  0.48176600  1
  C  47  1  0.72992600  0.92388700  0.48224900  1
  C  48  1  0.73015200  0.00567000  0.48299400  1
  C  49  1  0.80739400  0.03169200  0.48318300  1
  C  50  1  0.82450900  0.11221800  0.48571300  1
  C  51  1  0.76361700  0.16812300  0.48731100  1
  C  52  1  0.68572300  0.14043400  0.48617600  1
  C  53  1  0.66876000  0.05999500  0.48404500  1
  C  54  1  0.66828900  0.86981300  0.48146000  1
  C  55  1  0.68488000  0.78929200  0.47927700  1
  C  56  1  0.76264200  0.76129100  0.47784800  1
  C  57  1  0.82377500  0.81692500  0.47917000  1
  C  58  1  0.91599600  0.96485200  0.44877400  1
  C  59  1  0.99330500  0.96357500  0.46162700  1
  C  60  1  0.99359800  0.96309100  0.50257400  1
  C  61  1  0.91646500  0.96328500  0.51570100  1
  C  62  1  0.05491600  0.96330400  0.52982100  1
  C  63  1  0.03793000  0.96510600  0.57013400  1
  C  64  1  0.96001600  0.96654700  0.58412800  1
  C  65  1  0.89936200  0.96520400  0.55598200  1
  C  66  1  0.89831100  0.96320600  0.40855400  1
  C  67  1  0.95854000  0.96076400  0.38018100  1
  C  68  1  0.03665300  0.96069900  0.39391300  1
  C  69  1  0.05422400  0.96210400  0.43416500  1
  C  82  1  0.86169600  0.96443700  0.48234200  1
  C  83  1  0.94171400  0.97395200  0.62382400  1
  C  84  1  0.93955200  0.95546100  0.34046500  1
  C  85  1  0.77893100  0.68264400  0.47105800  1
  C  86  1  0.78027700  0.24675200  0.49402000  1
  C  91  1  0.97648900  0.97224600  0.27348500  1
  C  92  1  0.02347200  0.92031200  0.25114900  1
  C  93  1  0.02544000  0.92737700  0.20957300  1
  C  94  1  0.97096000  0.97712700  0.19043800  1
  C  95  1  0.91958800  0.02470500  0.21278300  1
  C  96  1  0.92704200  0.02697200  0.25433600  1
  C  111  1  0.96518400  0.97598600  0.77327200  1
  C  112  1  0.91536700  0.92420700  0.75241200  1
  C  113  1  0.92718900  0.91269500  0.71151100  1
  C  114  1  0.97867600  0.96303200  0.69077500  1
  C  115  1  0.02426900  0.01913000  0.71125000  1
  C  116  1  0.02088400  0.02228500  0.75292100  1
  C  131  1  0.54785900  0.74966500  0.99074400  1
  C  132  1  0.50596100  0.81931200  0.99960100  1
  C  133  1  0.42246700  0.81742700  0.00195000  1
  C  134  1  0.38126000  0.74915500  0.99006800  1
  C  135  1  0.42333300  0.68085600  0.97924400  1
  C  136  1  0.50651800  0.67951700  0.98243500  1
  C  151  1  0.74894300  0.38168500  0.47949600  1
  C  152  1  0.82049300  0.42399300  0.47872400  1
  C  153  1  0.82034000  0.50590100  0.48673700  1
  C  154  1  0.74861600  0.54790000  0.48603900  1
  C  155  1  0.67688200  0.50639600  0.48288100  1
  C  156  1  0.67705000  0.42292500  0.48271800  1
  H  25  1  0.96859700  0.08082900  0.87442300  1
  H  26  1  0.96343200  0.10953100  0.94302000  1
  H  27  1  0.96056800  0.11004900  0.02029300  1
  H  28  1  0.95687300  0.08198800  0.08901600  1
  H  29  1  0.95861700  0.84087600  0.06415600  1
  H  30  1  0.96834900  0.83982900  0.89982700  1
  H  31  1  0.79766600  0.87733600  0.97581700  1
  H  32  1  0.75137200  0.63607500  0.98319000  1
  H  33  1  0.88890100  0.61023300  0.98819700  1
  H  34  1  0.12786200  0.88089900  0.97785900  1
  H  35  1  0.04217000  0.61178200  0.98850500  1
  H  36  1  0.17924400  0.64054900  0.98469500  1
  H  42  1  0.99749900  0.88694000  0.83329300  1
  H  43  1  0.93339100  0.88739300  0.13096700  1
  H  44  1  0.26034600  0.82396200  0.95753300  1
  H  45  1  0.66779200  0.80605000  0.94962900  1
  H  70  1  0.08190500  0.95806700  0.37459300  1
  H  71  1  0.11088200  0.96082500  0.44321700  1
  H  72  1  0.11146000  0.96368600  0.52057100  1
  H  73  1  0.08348900  0.96726400  0.58928600  1
  H  74  1  0.84229300  0.96701300  0.56451000  1
  H  75  1  0.84110000  0.96269200  0.40022400  1
  H  76  1  0.88144700  0.12953100  0.48716500  1
  H  77  1  0.64025200  0.17864500  0.48829700  1
  H  78  1  0.61221900  0.04147200  0.48418200  1
  H  79  1  0.88061600  0.79936900  0.47748400  1
  H  80  1  0.61183200  0.88858200  0.48148100  1
  H  81  1  0.63923100  0.75126000  0.47730100  1
  H  87  1  0.88645500  0.93716900  0.33333333  1
  H  88  1  0.88973500  0.99542700  0.63087900  1
  H  89  1  0.81693900  0.66966700  0.45020000  1
  H  90  1  0.81903300  0.25958200  0.51454900  1
  H  98  1  0.12481300  0.86388900  0.19990900  1
  H  99  1  0.08560400  0.89760700  0.16014100  1
  H  101  1  0.06266000  0.85713800  0.29806300  1
  H  102  1  0.09028200  0.82166300  0.25623100  1
  H  104  1  0.85615100  0.06363200  0.16597100  1
  H  105  1  0.82118200  0.09166700  0.20786700  1
  H  107  1  0.89800300  0.08791900  0.30370900  1
  H  108  1  0.86420000  0.12687600  0.26393800  1
  H  118  1  0.86385600  0.81203200  0.70554000  1
  H  119  1  0.90233200  0.84226800  0.66485800  1
  H  121  1  0.84483500  0.89859400  0.79894100  1
  H  122  1  0.81514800  0.86014400  0.75815300  1
  H  124  1  0.07065800  0.06976900  0.66214200  1
  H  125  1  0.09370400  0.11504100  0.70217800  1
  H  127  1  0.07085400  0.06881600  0.80213100  1
  H  128  1  0.11608700  0.09259600  0.76218200  1
  H  138  1  0.40686200  0.92140400  0.03046200  1
  H  139  1  0.32598200  0.87521900  0.02206500  1
  H  141  1  0.60289300  0.88838400  0.00608900  1
  H  142  1  0.52146300  0.93685700  0.00766900  1
  H  144  1  0.32722600  0.61894400  0.96142500  1
  H  145  1  0.40919700  0.57471300  0.95258500  1
  H  147  1  0.60334600  0.60889700  0.98100900  1
  H  148  1  0.52175400  0.56103100  0.97814900  1
  H  158  1  0.93524000  0.51547800  0.50202400  1
  H  159  1  0.88725300  0.59701300  0.50566000  1
  H  161  1  0.88775500  0.33330867  0.45957500  1
  H  162  1  0.93529200  0.41505900  0.46323700  1
  H  164  1  0.60748100  0.60369900  0.47834000  1
  H  165  1  0.56039200  0.52255300  0.47166000  1
  H  167  1  0.60810700  0.32542600  0.48740700  1
  H  168  1  0.56068000  0.40638700  0.49411900  1
  N  97  1  0.08069200  0.88954700  0.18796700  1
  N  100  1  0.06558600  0.86415600  0.27004500  1
  N  103  1  0.86363700  0.06719200  0.19393100  1
  N  106  1  0.89002600  0.08283900  0.27588600  1
  N  109  1  0.98642800  0.97378800  0.31253400  1
  N  110  1  0.97228600  0.98679400  0.15136500  1
  N  117  1  0.89141000  0.85314000  0.69203800  1
  N  120  1  0.85597500  0.88790900  0.77176900  1
  N  123  1  0.06928000  0.07009300  0.69039300  1
  N  126  1  0.07126300  0.06779300  0.77387200  1
  N  129  1  0.95825800  0.98568000  0.81216900  1
  N  130  1  0.98860200  0.95635200  0.65187400  1
  N  137  1  0.38150200  0.87842100  0.01740800  1
  N  140  1  0.54656500  0.88644600  0.00649000  1
  N  143  1  0.38318000  0.61779200  0.96525900  1
  N  146  1  0.54717400  0.61132600  0.97843600  1
  N  149  1  0.62634700  0.74546300  0.99381700  1
  N  150  1  0.30272400  0.74333100  0.99228300  1
  N  157  1  0.88767900  0.54368800  0.49638300  1
  N  160  1  0.88793300  0.38653300  0.46893900  1
  N  163  1  0.60874400  0.54726700  0.47920500  1
  N  166  1  0.60903300  0.38186100  0.48644300  1
  N  169  1  0.74526100  0.30313200  0.47636700  1
  N  170  1  0.74470300  0.62641900  0.48920600  1
