# generated using pymatgen
data_Gd2H15C24(NO4)3
_symmetry_space_group_name_H-M   'P 1'
_cell_length_a   10.56026000
_cell_length_b   11.33656000
_cell_length_c   14.59262252
_cell_angle_alpha   67.55607584
_cell_angle_beta   70.28690627
_cell_angle_gamma   86.29325000
_symmetry_Int_Tables_number   1
_chemical_formula_structural   Gd2H15C24(NO4)3
_chemical_formula_sum   'Gd4 H30 C48 N6 O24'
_cell_volume   1515.89390145
_cell_formula_units_Z   2
loop_
 _symmetry_equiv_pos_site_id
 _symmetry_equiv_pos_as_xyz
  1  'x, y, z'
loop_
 _atom_site_type_symbol
 _atom_site_label
 _atom_site_symmetry_multiplicity
 _atom_site_fract_x
 _atom_site_fract_y
 _atom_site_fract_z
 _atom_site_occupancy
  Gd  Gd1  1  0.30483000  0.40977000  0.07693000  1.0
  Gd  Gd2  1  0.21127000  0.26920000  0.37848000  1.0
  Gd  Gd3  1  0.69518000  0.59023000  0.92307000  1.0
  Gd  Gd4  1  0.78873000  0.73081000  0.62152000  1.0
  H  H1  1  0.91288000  0.38052000  0.97732000  1.0
  H  H2  1  0.75682000  0.32960000  0.99648000  1.0
  H  H3  1  0.13436000  0.65564000  0.49651000  1.0
  H  H4  1  0.16781000  0.54453000  0.43785000  1.0
  H  H5  1  0.59065000  0.35884000  0.57005000  1.0
  H  H6  1  0.49533000  0.31690000  0.50648000  1.0
  H  H7  1  0.52934000  0.28387000  0.35885000  1.0
  H  H8  1  0.72408000  0.26267000  0.42238000  1.0
  H  H9  1  0.99362000  0.35315000  0.10435000  1.0
  H  H10  1  0.35165000  0.79791000  0.07217000  1.0
  H  H11  1  0.35604000  0.02180000  0.06618000  1.0
  H  H12  1  0.19353000  0.87250000  0.40466000  1.0
  H  H13  1  0.04181000  0.25890000  0.72764000  1.0
  H  H14  1  0.05154000  0.29114000  0.88585000  1.0
  H  H15  1  0.48164000  0.36533000  0.74241000  1.0
  H  H16  1  0.08713000  0.61949000  0.02268000  1.0
  H  H17  1  0.24319000  0.67041000  0.00352000  1.0
  H  H18  1  0.86565000  0.34437000  0.50349000  1.0
  H  H19  1  0.83220000  0.45547000  0.56215000  1.0
  H  H20  1  0.40936000  0.64116000  0.42995000  1.0
  H  H21  1  0.50468000  0.68310000  0.49352000  1.0
  H  H22  1  0.47067000  0.71613000  0.64115000  1.0
  H  H23  1  0.27593000  0.73733000  0.57762000  1.0
  H  H24  1  0.00639000  0.64686000  0.89565000  1.0
  H  H25  1  0.64836000  0.20210000  0.92783000  1.0
  H  H26  1  0.64397000  0.97820000  0.93382000  1.0
  H  H27  1  0.80647000  0.12750000  0.59534000  1.0
  H  H28  1  0.95820000  0.74110000  0.27236000  1.0
  H  H29  1  0.94847000  0.70886000  0.11415000  1.0
  H  H30  1  0.51836000  0.63468000  0.25759000  1.0
  C  C1  1  0.53059000  0.35301000  0.16345000  1.0
  C  C2  1  0.65041000  0.33118000  0.19670000  1.0
  C  C3  1  0.63166000  0.29865000  0.30385000  1.0
  C  C4  1  0.73971000  0.28790000  0.33948000  1.0
  C  C5  1  0.87116000  0.31166000  0.26612000  1.0
  C  C6  1  0.98950000  0.30534000  0.30026000  1.0
  C  C7  1  0.89182000  0.34029000  0.16015000  1.0
  C  C8  1  0.78348000  0.34878000  0.12395000  1.0
  C  C9  1  0.25626000  0.58220000  0.23679000  1.0
  C  C10  1  0.26631000  0.70960000  0.24056000  1.0
  C  C11  1  0.31514000  0.81646000  0.14419000  1.0
  C  C12  1  0.31891000  0.94004000  0.14047000  1.0
  C  C13  1  0.27224000  0.95935000  0.23606000  1.0
  C  C14  1  0.27013000  0.09111000  0.23608000  1.0
  C  C15  1  0.22787000  0.85574000  0.33187000  1.0
  C  C16  1  0.22595000  0.72908000  0.33716000  1.0
  C  C17  1  0.24116000  0.26507000  0.55958000  1.0
  C  C18  1  0.25554000  0.29026000  0.64700000  1.0
  C  C19  1  0.13727000  0.28242000  0.73221000  1.0
  C  C20  1  0.14210000  0.30204000  0.81890000  1.0
  C  C21  1  0.26814000  0.33242000  0.82137000  1.0
  C  C22  1  0.27765000  0.35459000  0.91320000  1.0
  C  C23  1  0.38587000  0.34250000  0.73811000  1.0
  C  C24  1  0.38392000  0.32067000  0.64927000  1.0
  C  C25  1  0.46941000  0.64699000  0.83655000  1.0
  C  C26  1  0.34960000  0.66883000  0.80330000  1.0
  C  C27  1  0.36835000  0.70136000  0.69615000  1.0
  C  C28  1  0.26029000  0.71211000  0.66052000  1.0
  C  C29  1  0.12885000  0.68835000  0.73388000  1.0
  C  C30  1  0.01050000  0.69467000  0.69974000  1.0
  C  C31  1  0.10818000  0.65972000  0.83985000  1.0
  C  C32  1  0.21653000  0.65123000  0.87605000  1.0
  C  C33  1  0.74375000  0.41780000  0.76321000  1.0
  C  C34  1  0.73369000  0.29041000  0.75944000  1.0
  C  C35  1  0.68486000  0.18355000  0.85581000  1.0
  C  C36  1  0.68110000  0.05996000  0.85953000  1.0
  C  C37  1  0.72777000  0.04065000  0.76394000  1.0
  C  C38  1  0.72988000  0.90890000  0.76392000  1.0
  C  C39  1  0.77214000  0.14426000  0.66813000  1.0
  C  C40  1  0.77406000  0.27092000  0.66284000  1.0
  C  C41  1  0.75885000  0.73493000  0.44042000  1.0
  C  C42  1  0.74447000  0.70974000  0.35300000  1.0
  C  C43  1  0.86274000  0.71759000  0.26779000  1.0
  C  C44  1  0.85790000  0.69797000  0.18110000  1.0
  C  C45  1  0.73186000  0.66758000  0.17863000  1.0
  C  C46  1  0.72236000  0.64541000  0.08680000  1.0
  C  C47  1  0.61414000  0.65751000  0.26189000  1.0
  C  C48  1  0.61609000  0.67933000  0.35073000  1.0
  N  N1  1  0.81208000  0.38270000  0.01479000  1.0
  N  N2  1  0.19269000  0.63117000  0.43557000  1.0
  N  N3  1  0.50169000  0.32800000  0.57070000  1.0
  N  N4  1  0.18793000  0.61730000  0.98521000  1.0
  N  N5  1  0.80732000  0.36884000  0.56443000  1.0
  N  N6  1  0.49832000  0.67201000  0.42930000  1.0
  O  O1  1  0.54372000  0.39375000  0.06508000  1.0
  O  O2  1  0.41200000  0.33344000  0.23173000  1.0
  O  O3  1  0.10807000  0.34113000  0.23040000  1.0
  O  O4  1  0.97484000  0.26434000  0.39816000  1.0
  O  O5  1  0.28652000  0.57198000  0.14817000  1.0
  O  O6  1  0.21387000  0.48448000  0.32569000  1.0
  O  O7  1  0.30624000  0.18540333  0.14793000  1.0
  O  O8  1  0.23128000  0.10134000  0.32646000  1.0
  O  O9  1  0.12360000  0.24726000  0.55614000  1.0
  O  O10  1  0.34665000  0.26269000  0.48160000  1.0
  O  O11  1  0.39390000  0.37718000  0.91513000  1.0
  O  O12  1  0.17005000  0.35368000  0.98876000  1.0
  O  O13  1  0.45629000  0.60625000  0.93492000  1.0
  O  O14  1  0.58801000  0.66657000  0.76827000  1.0
  O  O15  1  0.89194000  0.65888000  0.76960000  1.0
  O  O16  1  0.02517000  0.73567000  0.60184000  1.0
  O  O17  1  0.71349000  0.42803000  0.85183000  1.0
  O  O18  1  0.78614000  0.51552000  0.67431000  1.0
  O  O19  1  0.69377000  0.81466000  0.85207000  1.0
  O  O20  1  0.76873000  0.89867000  0.67354000  1.0
  O  O21  1  0.87641000  0.75274000  0.44386000  1.0
  O  O22  1  0.65336000  0.73731000  0.51840000  1.0
  O  O23  1  0.60611000  0.62282000  0.08487000  1.0
  O  O24  1  0.82996000  0.64633000  0.01124000  1.0
