# generated using pymatgen
data_SmH7(C5O2)3
_symmetry_space_group_name_H-M   'P 1'
_cell_length_a   13.66270000
_cell_length_b   13.74610000
_cell_length_c   14.18230333
_cell_angle_alpha   118.98768120
_cell_angle_beta   97.99828980
_cell_angle_gamma   90.00000000
_symmetry_Int_Tables_number   1
_chemical_formula_structural   SmH7(C5O2)3
_chemical_formula_sum   'Sm4 H28 C60 O24'
_cell_volume   2300.21516834
_cell_formula_units_Z   4
loop_
 _symmetry_equiv_pos_site_id
 _symmetry_equiv_pos_as_xyz
  1  'x, y, z'
loop_
 _atom_site_type_symbol
 _atom_site_label
 _atom_site_symmetry_multiplicity
 _atom_site_fract_x
 _atom_site_fract_y
 _atom_site_fract_z
 _atom_site_occupancy
  C  C1  1  0.46252000  0.64422000  0.84940000  1.0
  C  C2  1  0.42526000  0.66416000  0.95196000  1.0
  C  C3  1  0.40680000  0.77062000  0.02844000  1.0
  C  C4  1  0.38150000  0.79001000  0.12742000  1.0
  C  C5  1  0.37253000  0.70384000  0.15180000  1.0
  C  C6  1  0.38930000  0.59698000  0.07356000  1.0
  C  C7  1  0.41380000  0.57931000  0.97462000  1.0
  C  C8  1  0.34981000  0.73071000  0.26128000  1.0
  C  C9  1  0.28086000  0.80724000  0.30762000  1.0
  C  C10  1  0.26370000  0.84364000  0.41330000  1.0
  C  C11  1  0.32003000  0.80466000  0.47624000  1.0
  C  C12  1  0.38629000  0.72335000  0.42876000  1.0
  C  C13  1  0.39964000  0.68585000  0.32228000  1.0
  C  C14  1  0.18315000  0.92159000  0.45742000  1.0
  C  C15  1  0.44127000  0.67952000  0.49844000  1.0
  C  C31  1  0.03748000  0.79482000  0.15060000  1.0
  C  C32  1  0.07474000  0.71220000  0.04804000  1.0
  C  C33  1  0.09320000  0.74218000  0.97156000  1.0
  C  C34  1  0.11850000  0.66259000  0.87258000  1.0
  C  C35  1  0.12747000  0.55204000  0.84820000  1.0
  C  C36  1  0.11070000  0.52342000  0.92644000  1.0
  C  C37  1  0.08620000  0.60469000  0.02538000  1.0
  C  C38  1  0.15019000  0.46943000  0.73872000  1.0
  C  C39  1  0.21914000  0.49962000  0.69238000  1.0
  C  C40  1  0.23630000  0.43034000  0.58670000  1.0
  C  C41  1  0.17997000  0.32842000  0.52376000  1.0
  C  C42  1  0.11371000  0.29459000  0.57124000  1.0
  C  C43  1  0.10036000  0.36357000  0.67772000  1.0
  C  C44  1  0.31685000  0.46417000  0.54258000  1.0
  C  C45  1  0.05873000  0.18108000  0.50156000  1.0
  C  C61  1  0.53748000  0.35578000  0.15060000  1.0
  C  C62  1  0.57474000  0.33584000  0.04804000  1.0
  C  C63  1  0.59320000  0.22938000  0.97156000  1.0
  C  C64  1  0.61850000  0.20999000  0.87258000  1.0
  C  C65  1  0.62747000  0.29616000  0.84820000  1.0
  C  C66  1  0.61070000  0.40302000  0.92644000  1.0
  C  C67  1  0.58620000  0.42069000  0.02538000  1.0
  C  C68  1  0.65019000  0.26929000  0.73872000  1.0
  C  C69  1  0.71914000  0.19276000  0.69238000  1.0
  C  C70  1  0.73630000  0.15636000  0.58670000  1.0
  C  C71  1  0.67997000  0.19534000  0.52376000  1.0
  C  C72  1  0.61371000  0.27665000  0.57124000  1.0
  C  C73  1  0.60036000  0.31415000  0.67772000  1.0
  C  C74  1  0.81685000  0.07841000  0.54258000  1.0
  C  C75  1  0.55873000  0.32048000  0.50156000  1.0
  C  C91  1  0.96252000  0.20518000  0.84940000  1.0
  C  C92  1  0.92526000  0.28780000  0.95196000  1.0
  C  C93  1  0.90680000  0.25782000  0.02844000  1.0
  C  C94  1  0.88150000  0.33741000  0.12742000  1.0
  C  C95  1  0.87253000  0.44796000  0.15180000  1.0
  C  C96  1  0.88930000  0.47658000  0.07356000  1.0
  C  C97  1  0.91380000  0.39531000  0.97462000  1.0
  C  C98  1  0.84981000  0.53057000  0.26128000  1.0
  C  C99  1  0.78086000  0.50038000  0.30762000  1.0
  C  C100  1  0.76370000  0.56966000  0.41330000  1.0
  C  C101  1  0.82003000  0.67158000  0.47624000  1.0
  C  C102  1  0.88629000  0.70541000  0.42876000  1.0
  C  C103  1  0.89964000  0.63643000  0.32228000  1.0
  C  C104  1  0.68315000  0.53583000  0.45742000  1.0
  C  C105  1  0.94127000  0.81892000  0.49844000  1.0
  H  H1  1  0.41140000  0.82920000  0.01360000  1.0
  H  H2  1  0.37020000  0.86210000  0.17860000  1.0
  H  H3  1  0.38430000  0.53760000  0.08720000  1.0
  H  H4  1  0.42260000  0.50710000  0.92200000  1.0
  H  H5  1  0.24500000  0.83500000  0.26640000  1.0
  H  H6  1  0.31360000  0.83250000  0.54920000  1.0
  H  H7  1  0.44220000  0.63010000  0.29080000  1.0
  H  H15  1  0.08860000  0.81560000  0.98640000  1.0
  H  H16  1  0.12980000  0.68350000  0.82140000  1.0
  H  H17  1  0.11570000  0.45040000  0.91280000  1.0
  H  H18  1  0.07740000  0.58510000  0.07800000  1.0
  H  H19  1  0.25500000  0.56860000  0.73360000  1.0
  H  H20  1  0.18640000  0.28330000  0.45080000  1.0
  H  H21  1  0.05780000  0.33930000  0.70920000  1.0
  H  H29  1  0.58860000  0.17080000  0.98640000  1.0
  H  H30  1  0.62980000  0.13790000  0.82140000  1.0
  H  H31  1  0.61570000  0.46240000  0.91280000  1.0
  H  H32  1  0.57740000  0.49290000  0.07800000  1.0
  H  H33  1  0.75500000  0.16500000  0.73360000  1.0
  H  H34  1  0.68640000  0.16750000  0.45080000  1.0
  H  H35  1  0.55780000  0.36990000  0.70920000  1.0
  H  H43  1  0.91140000  0.18440000  0.01360000  1.0
  H  H44  1  0.87020000  0.31650000  0.17860000  1.0
  H  H45  1  0.88430000  0.54960000  0.08720000  1.0
  H  H46  1  0.92260000  0.41490000  0.92200000  1.0
  H  H47  1  0.74500000  0.43140000  0.26640000  1.0
  H  H48  1  0.81360000  0.71670000  0.54920000  1.0
  H  H49  1  0.94220000  0.66070000  0.29080000  1.0
  O  O1  1  0.48601000  0.54996000  0.78608000  1.0
  O  O2  1  0.47178000  0.72566000  0.83122000  1.0
  O  O3  1  0.46959000  0.58265000  0.45454000  1.0
  O  O4  1  0.45655000  0.74145000  0.60074000  1.0
  O  O5  1  0.16989000  0.94951000  0.55388000  1.0
  O  O6  1  0.13596000  0.95138000  0.39618000  1.0
  O  O13  1  0.01399000  0.76388000  0.21392000  1.0
  O  O14  1  0.02822000  0.89444000  0.16878000  1.0
  O  O15  1  0.03041000  0.12811000  0.54546000  1.0
  O  O16  1  0.04345000  0.14071000  0.39926000  1.0
  O  O17  1  0.33011000  0.39563000  0.44612000  1.0
  O  O18  1  0.36404000  0.55520000  0.60382000  1.0
  O  O25  1  0.51399000  0.45004000  0.21392000  1.0
  O  O26  1  0.52822000  0.27434000  0.16878000  1.0
  O  O27  1  0.53041000  0.41735000  0.54546000  1.0
  O  O28  1  0.54345000  0.25855000  0.39926000  1.0
  O  O29  1  0.83011000  0.05049000  0.44612000  1.0
  O  O30  1  0.86404000  0.04862000  0.60382000  1.0
  O  O37  1  0.98601000  0.23612000  0.78608000  1.0
  O  O38  1  0.97178000  0.10556000  0.83122000  1.0
  O  O39  1  0.96959000  0.87189000  0.45454000  1.0
  O  O40  1  0.95655000  0.85929000  0.60074000  1.0
  O  O41  1  0.66989000  0.60437000  0.55388000  1.0
  O  O42  1  0.63596000  0.44480000  0.39618000  1.0
  Sm  Sm1  1  0.53896000  0.61429000  0.65954000  1.0
  Sm  Sm3  1  0.96104000  0.95475000  0.34046000  1.0
  Sm  Sm5  1  0.46104000  0.38571000  0.34046000  1.0
  Sm  Sm7  1  0.03896000  0.04525000  0.65954000  1.0
