# generated using pymatgen
data_AgH20(C5N)4
_symmetry_space_group_name_H-M   'P 1'
_cell_length_a   10.73336000
_cell_length_b   10.73315000
_cell_length_c   10.82876000
_cell_angle_alpha   105.92686000
_cell_angle_beta   105.81518000
_cell_angle_gamma   102.40885000
_symmetry_Int_Tables_number   1
_chemical_formula_structural   AgH20(C5N)4
_chemical_formula_sum   'Ag2 H40 C40 N8'
_cell_volume   1096.17585301
_cell_formula_units_Z   2
loop_
 _symmetry_equiv_pos_site_id
 _symmetry_equiv_pos_as_xyz
  1  'x, y, z'
loop_
 _atom_site_type_symbol
 _atom_site_label
 _atom_site_symmetry_multiplicity
 _atom_site_fract_x
 _atom_site_fract_y
 _atom_site_fract_z
 _atom_site_occupancy
  Ag  Ag0  1  0.98288000  0.12373000  0.83142000  1
  Ag  Ag1  1  0.12384000  0.98298000  0.33135000  1
  H  H2  1  0.15684000  0.21230000  0.55245000  1
  H  H3  1  0.07662000  0.29431000  0.66124000  1
  H  H4  1  0.03126000  0.81122000  0.50214000  1
  H  H5  1  0.95149000  0.89351000  0.61140000  1
  H  H6  1  0.51931000  0.47028000  0.60759000  1
  H  H7  1  0.58642000  0.64919000  0.56576000  1
  H  H8  1  0.87528000  0.08959000  0.56383000  1
  H  H9  1  0.91058000  0.13612000  0.42817000  1
  H  H10  1  0.85242000  0.77098000  0.29540000  1
  H  H11  1  0.80308000  0.90791000  0.26031000  1
  H  H12  1  0.19774000  0.96950000  0.73489000  1
  H  H13  1  0.23258000  0.01655000  0.59924000  1
  H  H14  1  0.25333000  0.33302000  0.87106000  1
  H  H15  1  0.30444000  0.19546000  0.90252000  1
  H  H16  1  0.47687000  0.12323000  0.83000000  1
  H  H17  1  0.63196000  0.98495000  0.33040000  1
  H  H18  1  0.34053000  0.43671000  0.71226000  1
  H  H19  1  0.67649000  0.33263000  0.61290000  1
  H  H20  1  0.76401000  0.67428000  0.45849000  1
  H  H21  1  0.43290000  0.79066000  0.55764000  1
  H  H22  1  0.21231000  0.15685000  0.05244000  1
  H  H23  1  0.29416000  0.07659000  0.16097000  1
  H  H24  1  0.81141000  0.03133000  0.00242000  1
  H  H25  1  0.89348000  0.95150000  0.11144000  1
  H  H26  1  0.47048000  0.51916000  0.10757000  1
  H  H27  1  0.64913000  0.58653000  0.06585000  1
  H  H28  1  0.08953000  0.87521000  0.06357000  1
  H  H29  1  0.13612000  0.91039000  0.92786000  1
  H  H30  1  0.77119000  0.85244000  0.79562000  1
  H  H31  1  0.90791000  0.80284000  0.76012000  1
  H  H32  1  0.96953000  0.19798000  0.23520000  1
  H  H33  1  0.01667000  0.23263000  0.09949000  1
  H  H34  1  0.33283000  0.25331000  0.37088000  1
  H  H35  1  0.19549000  0.30469000  0.40275000  1
  H  H36  1  0.12315000  0.47691000  0.33004000  1
  H  H37  1  0.98505000  0.63192000  0.83027000  1
  H  H38  1  0.43685000  0.34053000  0.21226000  1
  H  H39  1  0.33274000  0.67630000  0.11290000  1
  H  H40  1  0.67425000  0.76403000  0.95862000  1
  H  H41  1  0.79068000  0.43305000  0.05756000  1
  C  C42  1  0.08785000  0.19606000  0.60988000  1
  C  C43  1  0.02016000  0.90955000  0.55360000  1
  C  C44  1  0.39362000  0.27336000  0.77310000  1
  C  C45  1  0.71324000  0.83594000  0.39243000  1
  C  C46  1  0.50958000  0.39343000  0.65521000  1
  C  C47  1  0.51929000  0.89657000  0.44117000  1
  C  C48  1  0.59706000  0.72364000  0.51539000  1
  C  C49  1  0.94924000  0.09757000  0.51035000  1
  C  C50  1  0.83013000  0.86456000  0.34098000  1
  C  C51  1  0.15879000  0.00821000  0.65294000  1
  C  C52  1  0.58967000  0.21896000  0.72375000  1
  C  C53  1  0.27677000  0.24081000  0.82363000  1
  C  C54  1  0.48546000  0.19908000  0.78093000  1
  C  C55  1  0.62270000  0.91163000  0.38235000  1
  C  C56  1  0.40807000  0.37431000  0.71338000  1
  C  C57  1  0.68000000  0.14259000  0.73291000  1
  C  C58  1  0.59806000  0.31657000  0.65769000  1
  C  C59  1  0.69792000  0.73810000  0.45574000  1
  C  C60  1  0.42993000  0.97387000  0.43097000  1
  C  C61  1  0.51038000  0.80230000  0.51104000  1
  C  C62  1  0.19599000  0.08782000  0.10974000  1
  C  C63  1  0.90964000  0.02021000  0.05376000  1
  C  C64  1  0.27342000  0.39369000  0.27318000  1
  C  C65  1  0.83593000  0.71318000  0.89238000  1
  C  C66  1  0.39359000  0.50949000  0.15523000  1
  C  C67  1  0.89662000  0.51935000  0.94107000  1
  C  C68  1  0.72360000  0.59713000  0.01541000  1
  C  C69  1  0.09755000  0.94914000  0.01014000  1
  C  C70  1  0.86464000  0.83002000  0.84096000  1
  C  C71  1  0.00826000  0.15890000  0.15317000  1
  C  C72  1  0.21901000  0.58963000  0.22382000  1
  C  C73  1  0.24076000  0.27689000  0.32368000  1
  C  C74  1  0.19908000  0.48550000  0.28100000  1
  C  C75  1  0.91169000  0.62268000  0.88225000  1
  C  C76  1  0.37442000  0.40806000  0.21341000  1
  C  C77  1  0.14258000  0.67991000  0.23290000  1
  C  C78  1  0.31669000  0.59793000  0.15772000  1
  C  C79  1  0.73808000  0.69793000  0.95578000  1
  C  C80  1  0.97398000  0.43002000  0.93092000  1
  C  C81  1  0.80230000  0.51048000  0.01099000  1
  N  N82  1  0.14589000  0.14285000  0.71706000  1
  N  N83  1  0.96163000  0.96257000  0.44644000  1
  N  N84  1  0.35414000  0.03904000  0.41920000  1
  N  N85  1  0.75468000  0.07623000  0.74392000  1
  N  N86  1  0.14277000  0.14595000  0.21710000  1
  N  N87  1  0.96268000  0.96159000  0.94644000  1
  N  N88  1  0.03912000  0.35414000  0.91925000  1
  N  N89  1  0.07622000  0.75466000  0.24383000  1
