# generated using pymatgen
data_DyH12(C4O)6
_symmetry_space_group_name_H-M   'P 1'
_cell_length_a   10.38030000
_cell_length_b   11.35080000
_cell_length_c   12.98940000
_cell_angle_alpha   72.43500000
_cell_angle_beta   89.86700000
_cell_angle_gamma   87.37200000
_symmetry_Int_Tables_number   1
_chemical_formula_structural   DyH12(C4O)6
_chemical_formula_sum   'Dy2 H24 C48 O12'
_cell_volume   1457.47316935
_cell_formula_units_Z   2
loop_
 _symmetry_equiv_pos_site_id
 _symmetry_equiv_pos_as_xyz
  1  'x, y, z'
loop_
 _atom_site_type_symbol
 _atom_site_label
 _atom_site_symmetry_multiplicity
 _atom_site_fract_x
 _atom_site_fract_y
 _atom_site_fract_z
 _atom_site_occupancy
  Dy  Dy1  1  0.47900000  0.04557000  0.33970000  1.0
  Dy  Dy2  1  0.52100000  0.95443000  0.66030000  1.0
  H  H1  1  0.40000000  0.42270000  0.26250000  1.0
  H  H2  1  0.27620000  0.70080000  0.55590000  1.0
  H  H3  1  0.23460000  0.20400000  0.40030000  1.0
  H  H4  1  0.31890000  0.59970000  0.28980000  1.0
  H  H5  1  0.08750000  0.60100000  0.58620000  1.0
  H  H6  1  0.14680000  0.35220000  0.25440000  1.0
  H  H7  1  0.31030000  0.78650000  0.14720000  1.0
  H  H8  1  0.08030000  0.39700000  0.58090000  1.0
  H  H9  1  0.93240000  0.34260000  0.20230000  1.0
  H  H10  1  0.38950000  0.79400000  0.98230000  1.0
  H  H11  1  0.26060000  0.29500000  0.54460000  1.0
  H  H12  1  0.80820000  0.18700000  0.29600000  1.0
  H  H13  1  0.60000000  0.57730000  0.73750000  1.0
  H  H14  1  0.72380000  0.29920000  0.44410000  1.0
  H  H15  1  0.76540000  0.79600000  0.59970000  1.0
  H  H16  1  0.68110000  0.40030000  0.71020000  1.0
  H  H17  1  0.91250000  0.39900000  0.41380000  1.0
  H  H18  1  0.85320000  0.64780000  0.74560000  1.0
  H  H19  1  0.68970000  0.21350000  0.85280000  1.0
  H  H20  1  0.91970000  0.60300000  0.41910000  1.0
  H  H21  1  0.06760000  0.65740000  0.79770000  1.0
  H  H22  1  0.61050000  0.20600000  0.01770000  1.0
  H  H23  1  0.73940000  0.70500000  0.45540000  1.0
  H  H24  1  0.19180000  0.81300000  0.70400000  1.0
  C  C1  1  0.49470000  0.26590000  0.17050000  1.0
  C  C2  1  0.50930000  0.75470000  0.50590000  1.0
  C  C3  1  0.26650000  0.00910000  0.56460000  1.0
  C  C4  1  0.49820000  0.38530000  0.08570000  1.0
  C  C5  1  0.50540000  0.62170000  0.50550000  1.0
  C  C6  1  0.12950000  0.00460000  0.53010000  1.0
  C  C7  1  0.44810000  0.49490000  0.10210000  1.0
  C  C8  1  0.38940000  0.56080000  0.52770000  1.0
  C  C9  1  0.07670000  0.09770000  0.44080000  1.0
  C  C10  1  0.39840000  0.49610000  0.20580000  1.0
  C  C11  1  0.27430000  0.62030000  0.55250000  1.0
  C  C12  1  0.14970000  0.19890000  0.38000000  1.0
  C  C13  1  0.34980000  0.60110000  0.22220000  1.0
  C  C14  1  0.16190000  0.56070000  0.57110000  1.0
  C  C15  1  0.09740000  0.28760000  0.29330000  1.0
  C  C16  1  0.34550000  0.71480000  0.13570000  1.0
  C  C17  1  0.15760000  0.43710000  0.56760000  1.0
  C  C18  1  0.96730000  0.28170000  0.26190000  1.0
  C  C19  1  0.39230000  0.71910000  0.03720000  1.0
  C  C20  1  0.26490000  0.37650000  0.54510000  1.0
  C  C21  1  0.89330000  0.18860000  0.31760000  1.0
  C  C22  1  0.44610000  0.61030000  0.01610000  1.0
  C  C23  1  0.38420000  0.43660000  0.52210000  1.0
  C  C24  1  0.94480000  0.09240000  0.40950000  1.0
  C  C25  1  0.50530000  0.73410000  0.82950000  1.0
  C  C26  1  0.49070000  0.24530000  0.49410000  1.0
  C  C27  1  0.73350000  0.99090000  0.43540000  1.0
  C  C28  1  0.50180000  0.61470000  0.91430000  1.0
  C  C29  1  0.49460000  0.37830000  0.49450000  1.0
  C  C30  1  0.87050000  0.99540000  0.46990000  1.0
  C  C31  1  0.55190000  0.50510000  0.89790000  1.0
  C  C32  1  0.61060000  0.43920000  0.47230000  1.0
  C  C33  1  0.92330000  0.90230000  0.55920000  1.0
  C  C34  1  0.60160000  0.50390000  0.79420000  1.0
  C  C35  1  0.72570000  0.37970000  0.44750000  1.0
  C  C36  1  0.85030000  0.80110000  0.62000000  1.0
  C  C37  1  0.65020000  0.39890000  0.77780000  1.0
  C  C38  1  0.83810000  0.43930000  0.42890000  1.0
  C  C39  1  0.90260000  0.71240000  0.70670000  1.0
  C  C40  1  0.65450000  0.28520000  0.86430000  1.0
  C  C41  1  0.84240000  0.56290000  0.43240000  1.0
  C  C42  1  0.03270000  0.71830000  0.73810000  1.0
  C  C43  1  0.60770000  0.28090000  0.96280000  1.0
  C  C44  1  0.73510000  0.62350000  0.45490000  1.0
  C  C45  1  0.10670000  0.81140000  0.68240000  1.0
  C  C46  1  0.55390000  0.38970000  0.98390000  1.0
  C  C47  1  0.61580000  0.56340000  0.47790000  1.0
  C  C48  1  0.05520000  0.90760000  0.59050000  1.0
  O  O1  1  0.38672000  0.21701000  0.19472000  1.0
  O  O2  1  0.49139000  0.83365000  0.41492000  1.0
  O  O3  1  0.35951000  0.99366000  0.50523000  1.0
  O  O4  1  0.59665000  0.21370000  0.21748000  1.0
  O  O5  1  0.53038000  0.77575000  0.59375000  1.0
  O  O6  1  0.28755000  0.01943000  0.65607000  1.0
  O  O7  1  0.61328000  0.78299000  0.80528000  1.0
  O  O8  1  0.50861000  0.16635000  0.58508000  1.0
  O  O9  1  0.64049000  0.00634000  0.49477000  1.0
  O  O10  1  0.40335000  0.78630000  0.78252000  1.0
  O  O11  1  0.46962000  0.22425000  0.40625000  1.0
  O  O12  1  0.71245000  0.98057000  0.34393000  1.0
