# generated using pymatgen
data_VH8(C2O)5
_symmetry_space_group_name_H-M   'P 1'
_cell_length_a   6.95323000
_cell_length_b   13.08263000
_cell_length_c   16.83938000
_cell_angle_alpha   90.00000000
_cell_angle_beta   90.00000000
_cell_angle_gamma   90.93247000
_symmetry_Int_Tables_number   1
_chemical_formula_structural   VH8(C2O)5
_chemical_formula_sum   'V4 H32 C40 O20'
_cell_volume   1531.61719856
_cell_formula_units_Z   4
loop_
 _symmetry_equiv_pos_site_id
 _symmetry_equiv_pos_as_xyz
  1  'x, y, z'
loop_
 _atom_site_type_symbol
 _atom_site_label
 _atom_site_symmetry_multiplicity
 _atom_site_fract_x
 _atom_site_fract_y
 _atom_site_fract_z
 _atom_site_occupancy
  V  V1  1  0.29669000  0.73029000  0.75000000  1.0
  V  V2  1  0.20290000  0.23081000  0.25000000  1.0
  V  V3  1  0.70330000  0.26971000  0.25000000  1.0
  V  V4  1  0.79710000  0.76919000  0.75000000  1.0
  H  H1  1  0.75062000  0.01458000  0.89723000  1.0
  H  H2  1  0.24204000  0.76873000  0.97587000  1.0
  H  H3  1  0.08425000  0.86215000  0.94076000  1.0
  H  H4  1  0.11003000  0.84312000  0.04504000  1.0
  H  H5  1  0.76075000  0.51378000  0.10699000  1.0
  H  H6  1  0.25139000  0.27059000  0.01829000  1.0
  H  H7  1  0.41043000  0.36393000  0.05684000  1.0
  H  H8  1  0.38804000  0.34923000  0.95187000  1.0
  H  H9  1  0.24938000  0.98542000  0.39723000  1.0
  H  H10  1  0.75796000  0.23128000  0.47587000  1.0
  H  H11  1  0.91575000  0.13785000  0.44076000  1.0
  H  H12  1  0.88997000  0.15688000  0.54504000  1.0
  H  H13  1  0.23924000  0.48622000  0.60698000  1.0
  H  H14  1  0.74861000  0.72941000  0.51829000  1.0
  H  H15  1  0.58956000  0.63608000  0.55684000  1.0
  H  H16  1  0.61196000  0.65078000  0.45187000  1.0
  H  H17  1  0.24938000  0.98542000  0.10277000  1.0
  H  H18  1  0.75796000  0.23128000  0.02413000  1.0
  H  H19  1  0.91575000  0.13785000  0.05924000  1.0
  H  H20  1  0.88997000  0.15688000  0.95496000  1.0
  H  H21  1  0.23924000  0.48622000  0.89301000  1.0
  H  H22  1  0.74861000  0.72941000  0.98171000  1.0
  H  H23  1  0.58956000  0.63608000  0.94316000  1.0
  H  H24  1  0.61196000  0.65078000  0.04813000  1.0
  H  H25  1  0.75062000  0.01458000  0.60277000  1.0
  H  H26  1  0.24204000  0.76873000  0.52413000  1.0
  H  H27  1  0.08425000  0.86215000  0.55924000  1.0
  H  H28  1  0.11003000  0.84312000  0.45496000  1.0
  H  H29  1  0.76075000  0.51378000  0.39301000  1.0
  H  H30  1  0.25139000  0.27059000  0.48171000  1.0
  H  H31  1  0.41043000  0.36393000  0.44316000  1.0
  H  H32  1  0.38804000  0.34923000  0.54813000  1.0
  C  C1  1  0.49449000  0.93507000  0.93406000  1.0
  C  C2  1  0.34753000  0.92452000  0.99172000  1.0
  C  C3  1  0.64178000  0.00893000  0.94342000  1.0
  C  C4  1  0.50222000  0.86921000  0.86200000  1.0
  C  C5  1  0.18736000  0.84537000  0.98828000  1.0
  C  C6  1  0.01007000  0.43613000  0.06628000  1.0
  C  C7  1  0.15080000  0.42583000  0.00629000  1.0
  C  C8  1  0.86465000  0.50887000  0.05892000  1.0
  C  C9  1  0.00302000  0.36957000  0.13794000  1.0
  C  C10  1  0.30887000  0.34824000  0.00824000  1.0
  C  C11  1  0.50550000  0.06494000  0.43406000  1.0
  C  C12  1  0.65246000  0.07548000  0.49172000  1.0
  C  C13  1  0.35822000  0.99107000  0.44342000  1.0
  C  C14  1  0.49777000  0.13080000  0.36201000  1.0
  C  C15  1  0.81263000  0.15463000  0.48828000  1.0
  C  C16  1  0.98992000  0.56388000  0.56628000  1.0
  C  C17  1  0.84919000  0.57417000  0.50629000  1.0
  C  C18  1  0.13534000  0.49113000  0.55892000  1.0
  C  C19  1  0.99698000  0.63043000  0.63794000  1.0
  C  C20  1  0.69112000  0.65177000  0.50824000  1.0
  C  C21  1  0.50550000  0.06494000  0.06593000  1.0
  C  C22  1  0.65246000  0.07548000  0.00828000  1.0
  C  C23  1  0.35822000  0.99107000  0.05657000  1.0
  C  C24  1  0.49777000  0.13080000  0.13799000  1.0
  C  C25  1  0.81263000  0.15463000  0.01172000  1.0
  C  C26  1  0.98992000  0.56388000  0.93372000  1.0
  C  C27  1  0.84919000  0.57417000  0.99371000  1.0
  C  C28  1  0.13534000  0.49113000  0.94107000  1.0
  C  C29  1  0.99698000  0.63043000  0.86206000  1.0
  C  C30  1  0.69112000  0.65177000  0.99176000  1.0
  C  C31  1  0.49449000  0.93507000  0.56593000  1.0
  C  C32  1  0.34753000  0.92452000  0.50828000  1.0
  C  C33  1  0.64178000  0.00893000  0.55657000  1.0
  C  C34  1  0.50222000  0.86921000  0.63799000  1.0
  C  C35  1  0.18736000  0.84537000  0.51172000  1.0
  C  C36  1  0.01007000  0.43613000  0.43372000  1.0
  C  C37  1  0.15080000  0.42583000  0.49371000  1.0
  C  C38  1  0.86465000  0.50887000  0.44107000  1.0
  C  C39  1  0.00302000  0.36957000  0.36206000  1.0
  C  C40  1  0.30887000  0.34824000  0.49176000  1.0
  O  O1  1  0.34333000  0.83347000  0.83435000  1.0
  O  O2  1  0.66855000  0.85285000  0.83301000  1.0
  O  O3  1  0.16045000  0.33326000  0.16428000  1.0
  O  O4  1  0.83633000  0.35294000  0.16750000  1.0
  O  O5  1  0.65666000  0.16653000  0.33435000  1.0
  O  O6  1  0.33145000  0.14715000  0.33301000  1.0
  O  O7  1  0.83954000  0.66675000  0.66428000  1.0
  O  O8  1  0.16366000  0.64706000  0.66750000  1.0
  O  O9  1  0.65666000  0.16653000  0.16565000  1.0
  O  O10  1  0.33145000  0.14715000  0.16699000  1.0
  O  O11  1  0.83954000  0.66675000  0.83572000  1.0
  O  O12  1  0.16366000  0.64706000  0.83249000  1.0
  O  O13  1  0.34333000  0.83347000  0.66565000  1.0
  O  O14  1  0.66855000  0.85285000  0.66699000  1.0
  O  O15  1  0.16045000  0.33326000  0.33572000  1.0
  O  O16  1  0.83633000  0.35294000  0.33249000  1.0
  O  O17  1  0.50791000  0.68094000  0.75000000  1.0
  O  O18  1  0.98960000  0.18062000  0.25000000  1.0
  O  O19  1  0.49209000  0.31906000  0.25000000  1.0
  O  O20  1  0.01039000  0.81938000  0.75000000  1.0
