# generated using pymatgen
data_CdH7C11N3O5
_symmetry_space_group_name_H-M   'P 1'
_cell_length_a   9.07446000
_cell_length_b   10.60013000
_cell_length_c   18.05549000
_cell_angle_alpha   89.95347000
_cell_angle_beta   89.76650000
_cell_angle_gamma   91.81626000
_symmetry_Int_Tables_number   1
_chemical_formula_structural   CdH7C11N3O5
_chemical_formula_sum   'Cd4 H28 C44 N12 O20'
_cell_volume   1735.87808500
_cell_formula_units_Z   4
loop_
 _symmetry_equiv_pos_site_id
 _symmetry_equiv_pos_as_xyz
  1  'x, y, z'
loop_
 _atom_site_type_symbol
 _atom_site_label
 _atom_site_symmetry_multiplicity
 _atom_site_fract_x
 _atom_site_fract_y
 _atom_site_fract_z
 _atom_site_occupancy
  Cd  Cd0  1  0.90605000  0.65614000  0.46031000  1
  Cd  Cd1  1  0.59306000  0.84413000  0.96011000  1
  Cd  Cd2  1  0.09395000  0.34386000  0.53969000  1
  Cd  Cd3  1  0.40694000  0.15587000  0.03990000  1
  H  H4  1  0.71900000  0.79401000  0.21408000  1
  H  H5  1  0.34326000  0.03433000  0.20101000  1
  H  H6  1  0.51486000  0.92438000  0.41315000  1
  H  H7  1  0.23204000  0.16226000  0.42505000  1
  H  H8  1  0.41042000  0.09951000  0.44351000  1
  H  H9  1  0.22979000  0.74202000  0.56472000  1
  H  H10  1  0.05725000  0.91652000  0.37617000  1
  H  H11  1  0.78244000  0.70477000  0.71469000  1
  H  H12  1  0.15859000  0.46542000  0.70033000  1
  H  H13  1  0.98554000  0.57466000  0.91321000  1
  H  H14  1  0.26613000  0.33937000  0.92715000  1
  H  H15  1  0.08702000  0.40217000  0.94301000  1
  H  H16  1  0.26849000  0.75856000  0.06562000  1
  H  H17  1  0.44093000  0.58450000  0.87627000  1
  H  H18  1  0.28100000  0.20599000  0.78592000  1
  H  H19  1  0.65674000  0.96567000  0.79900000  1
  H  H20  1  0.48515000  0.07562000  0.58686000  1
  H  H21  1  0.76796000  0.83774000  0.57496000  1
  H  H22  1  0.58958000  0.90048000  0.55650000  1
  H  H23  1  0.77021000  0.25798000  0.43528000  1
  H  H24  1  0.94276000  0.08348000  0.62383000  1
  H  H25  1  0.21757000  0.29523000  0.28532000  1
  H  H26  1  0.84141000  0.53458000  0.29967000  1
  H  H27  1  0.01446000  0.42534000  0.08679000  1
  H  H28  1  0.73387000  0.66063000  0.07285000  1
  H  H29  1  0.91298000  0.59783000  0.05700000  1
  H  H30  1  0.73151000  0.24144000  0.93438000  1
  H  H31  1  0.55907000  0.41550000  0.12373000  1
  C  C32  1  0.62548000  0.85294000  0.31799000  1
  C  C33  1  0.63396000  0.84807000  0.24072000  1
  C  C34  1  0.52990000  0.91156000  0.19827000  1
  C  C35  1  0.42190000  0.98215000  0.23304000  1
  C  C36  1  0.41882000  0.99028000  0.31017000  1
  C  C37  1  0.51663000  0.92317000  0.35311000  1
  C  C38  1  0.73185000  0.78412000  0.36523000  1
  C  C39  1  0.53359000  0.90591000  0.11570000  1
  C  C40  1  0.30377000  0.08263000  0.41613000  1
  C  C41  1  0.21316000  0.80964000  0.52079000  1
  C  C42  1  0.12197000  0.89662000  0.42489000  1
  C  C43  1  0.87554000  0.64602000  0.81825000  1
  C  C44  1  0.86715000  0.65038000  0.74102000  1
  C  C45  1  0.97110000  0.58660000  0.69834000  1
  C  C46  1  0.07955000  0.51662000  0.73294000  1
  C  C47  1  0.08299000  0.50906000  0.81014000  1
  C  C48  1  0.98428000  0.57585000  0.85316000  1
  C  C49  1  0.76895000  0.71554000  0.86554000  1
  C  C50  1  0.96734000  0.59271000  0.61569000  1
  C  C51  1  0.19518000  0.41884000  0.91676000  1
  C  C52  1  0.28462000  0.69159000  0.02130000  1
  C  C53  1  0.37618000  0.60483000  0.92515000  1
  C  C54  1  0.37452000  0.14706000  0.68201000  1
  C  C55  1  0.36605000  0.15193000  0.75928000  1
  C  C56  1  0.47010000  0.08844000  0.80174000  1
  C  C57  1  0.57810000  0.01785000  0.76696000  1
  C  C58  1  0.58119000  0.00972000  0.68983000  1
  C  C59  1  0.48337000  0.07683000  0.64689000  1
  C  C60  1  0.26815000  0.21588000  0.63477000  1
  C  C61  1  0.46641000  0.09409000  0.88430000  1
  C  C62  1  0.69623000  0.91737000  0.58388000  1
  C  C63  1  0.78684000  0.19036000  0.47921000  1
  C  C64  1  0.87803000  0.10338000  0.57512000  1
  C  C65  1  0.12446000  0.35398000  0.18175000  1
  C  C66  1  0.13286000  0.34962000  0.25898000  1
  C  C67  1  0.02890000  0.41340000  0.30167000  1
  C  C68  1  0.92046000  0.48338000  0.26707000  1
  C  C69  1  0.91701000  0.49094000  0.18986000  1
  C  C70  1  0.01572000  0.42415000  0.14685000  1
  C  C71  1  0.23105000  0.28446000  0.13446000  1
  C  C72  1  0.03266000  0.40729000  0.38431000  1
  C  C73  1  0.80483000  0.58116000  0.08325000  1
  C  C74  1  0.71538000  0.30841000  0.97870000  1
  C  C75  1  0.62382000  0.39517000  0.07486000  1
  N  N76  1  0.23766000  0.96710000  0.44961000  1
  N  N77  1  0.29797000  0.91262000  0.51059000  1
  N  N78  1  0.10368000  0.79577000  0.46903000  1
  N  N79  1  0.25983000  0.53479000  0.94996000  1
  N  N80  1  0.19917000  0.58908000  0.01105000  1
  N  N81  1  0.39463000  0.70534000  0.96936000  1
  N  N82  1  0.76234000  0.03290000  0.55039000  1
  N  N83  1  0.70203000  0.08738000  0.48941000  1
  N  N84  1  0.89633000  0.20423000  0.53097000  1
  N  N85  1  0.74017000  0.46521000  0.05004000  1
  N  N86  1  0.80083000  0.41092000  0.98895000  1
  N  N87  1  0.60537000  0.29466000  0.03064000  1
  O  O88  1  0.69641000  0.76246000  0.43331000  1
  O  O89  1  0.85299000  0.74946000  0.33726000  1
  O  O90  1  0.63799000  0.84771000  0.08465000  1
  O  O91  1  0.43008000  0.95580000  0.07788000  1
  O  O92  1  0.31239000  0.06879000  0.33847000  1
  O  O93  1  0.80055000  0.73148000  0.93434000  1
  O  O94  1  0.65141000  0.75643000  0.83719000  1
  O  O95  1  0.86196000  0.64991000  0.58511000  1
  O  O96  1  0.07207000  0.54433000  0.57762000  1
  O  O97  1  0.19016000  0.43185000  0.83893000  1
  O  O98  1  0.30359000  0.23754000  0.56669000  1
  O  O99  1  0.14701000  0.25054000  0.66274000  1
  O  O100  1  0.36201000  0.15229000  0.91536000  1
  O  O101  1  0.56992000  0.04420000  0.92212000  1
  O  O102  1  0.68761000  0.93121000  0.66153000  1
  O  O103  1  0.19945000  0.26852000  0.06566000  1
  O  O104  1  0.34860000  0.24357000  0.16282000  1
  O  O105  1  0.13805000  0.35009000  0.41489000  1
  O  O106  1  0.92793000  0.45567000  0.42238000  1
  O  O107  1  0.80984000  0.56815000  0.16107000  1
