# generated using pymatgen
data_SiH26C40(N3O4)2
_symmetry_space_group_name_H-M   'P 1'
_cell_length_a   26.60040000
_cell_length_b   26.60040000
_cell_length_c   35.35430000
_cell_angle_alpha   90.00000000
_cell_angle_beta   90.00000000
_cell_angle_gamma   120.00000000
_symmetry_Int_Tables_number   1
_chemical_formula_structural   SiH26C40(N3O4)2
_chemical_formula_sum   'Si6 H156 C240 N36 O48'
_cell_volume   21664.52688095
_cell_formula_units_Z   6
loop_
 _symmetry_equiv_pos_site_id
 _symmetry_equiv_pos_as_xyz
  1  'x, y, z'
loop_
 _atom_site_type_symbol
 _atom_site_label
 _atom_site_symmetry_multiplicity
 _atom_site_fract_x
 _atom_site_fract_y
 _atom_site_fract_z
 _atom_site_occupancy
  C  1  1  0.69117400  0.60846900  0.08481200  1
  C  2  1  0.67411100  0.63975500  0.06105900  1
  C  3  1  0.63711900  0.61208800  0.03023900  1
  C  4  1  0.61611500  0.55250600  0.02228500  1
  C  5  1  0.62984100  0.52062600  0.04821100  1
  C  6  1  0.66819600  0.54850700  0.07835800  1
  C  8  1  0.50495200  0.48834200  0.01281300  1
  C  9  1  0.47971350  0.43016050  0.02573600  1
  C  10  1  0.43243650  0.40648450  0.05075100  1
  C  11  1  0.40887000  0.44028300  0.06407700  1
  C  12  1  0.43440250  0.49865450  0.05194500  1
  C  13  1  0.48239150  0.52259450  0.02737700  1
  C  14  1  0.57539400  0.56556000  0.95474400  1
  C  15  1  0.57011800  0.46705500  0.96400700  1
  C  16  1  0.52300900  0.43280300  0.93955600  1
  C  17  1  0.51810850  0.38348650  0.92193500  1
  C  18  1  0.56046200  0.36704200  0.92763800  1
  C  19  1  0.61043600  0.40421900  0.94890200  1
  C  20  1  0.61518400  0.45362700  0.96697500  1
  C  21  1  0.63104500  0.59907000  0.93816600  1
  C  22  1  0.64144550  0.64142950  0.91084100  1
  C  23  1  0.59606650  0.65016950  0.89821000  1
  C  24  1  0.53957950  0.61392350  0.91265900  1
  C  25  1  0.52936900  0.57229900  0.94064150  1
  C  41  1  0.55410150  0.31639550  0.90995200  1
  C  42  1  0.60719600  0.69463400  0.87182650  1
  C  43  1  0.36537300  0.41819600  0.09240400  1
  C  45  1  0.72932250  0.63573050  0.11538000  1
  C  50  1  0.00623050  0.40070950  0.42151600  1
  C  51  1  0.05436400  0.41386000  0.39834400  1
  C  52  1  0.07180600  0.45664300  0.37018400  1
  C  53  1  0.04181100  0.48761600  0.36425800  1
  C  54  1  0.99703700  0.47771000  0.39005400  1
  C  55  1  0.97851400  0.43392700  0.41757800  1
  C  57  1  0.09143700  0.60016800  0.35749800  1
  C  58  1  0.06028250  0.62972950  0.36451500  1
  C  59  1  0.07984300  0.67499500  0.39094800  1
  C  60  1  0.13143300  0.69245700  0.41136700  1
  C  61  1  0.16271250  0.66317550  0.40485450  1
  C  62  1  0.14239900  0.61708600  0.37891800  1
  C  63  1  0.10657400  0.53379200  0.30060950  1
  C  64  1  0.01083350  0.53712750  0.30433900  1
  C  65  1  0.02617400  0.58338800  0.27857400  1
  C  66  1  0.98333800  0.59001500  0.25998050  1
  C  67  1  0.92389100  0.55016900  0.26606600  1
  C  68  1  0.90864500  0.50035200  0.28820200  1
  C  69  1  0.95161400  0.49383700  0.30708950  1
  C  70  1  0.08417400  0.48184800  0.27932900  1
  C  71  1  0.11983650  0.47205650  0.25484600  1
  C  72  1  0.17921750  0.51384050  0.25054100  1
  C  73  1  0.20060200  0.56734800  0.26980300  1
  C  74  1  0.16485050  0.57734850  0.29432000  1
  C  90  1  0.88087700  0.55978000  0.24963400  1
  C  91  1  0.21602000  0.50349500  0.22655500  1
  C  92  1  0.14680000  0.73257800  0.44142000  1
  C  94  1  0.98407000  0.35339100  0.44698600  1
  C  99  1  0.45824950  0.11136750  0.72180800  1
  C  100  1  0.42561350  0.05687150  0.70409350  1
  C  101  1  0.45323550  0.03183350  0.68418800  1
  C  102  1  0.51459500  0.06056700  0.68073200  1
  C  103  1  0.54703700  0.11584800  0.69780350  1
  C  104  1  0.51938450  0.14100450  0.71766750  1
  C  106  1  0.57661350  0.01531250  0.70401300  1
  C  107  1  0.63727000  0.04359100  0.71082100  1
  C  108  1  0.65973450  0.03041650  0.74288800  1
  C  109  1  0.62192900  0.98929800  0.76938950  1
  C  110  1  0.56147850  0.96530250  0.76481350  1
  C  111  1  0.53922050  0.97928450  0.73303850  1
  C  112  1  0.50161700  0.96663300  0.64184300  1
  C  113  1  0.59953300  0.06199200  0.63241800  1
  C  114  1  0.63208500  0.03678600  0.61883000  1
  C  115  1  0.67452200  0.06420400  0.59073700  1
  C  116  1  0.68454550  0.11683450  0.57437700  1
  C  117  1  0.65050850  0.14090150  0.58674000  1
  C  118  1  0.60877450  0.11405650  0.61539600  1
  C  119  1  0.47352700  0.97341500  0.60980100  1
  C  120  1  0.42550600  0.92550500  0.59356500  1
  C  121  1  0.40450500  0.86938600  0.60864400  1
  C  122  1  0.43638900  0.86122800  0.63744550  1
  C  123  1  0.48466400  0.90948200  0.65383000  1
  C  139  1  0.72658400  0.14406600  0.54546550  1
  C  140  1  0.35176950  0.82298350  0.59503100  1
  C  141  1  0.64306050  0.96421650  0.79563150  1
  C  143  1  0.43073250  0.13018550  0.74814400  1
  C  148  1  0.48375150  0.24186150  0.87150950  1
  C  149  1  0.44625900  0.25227500  0.84866500  1
  C  150  1  0.43479250  0.23318350  0.81068350  1
  C  151  1  0.45964050  0.20105050  0.79611000  1
  C  152  1  0.49554600  0.18888700  0.81938350  1
  C  154  1  0.50752250  0.20908750  0.85676950  1
  C  164  1  0.86081300  0.62684900  0.21932200  1
  C  165  1  0.89335200  0.65674500  0.18710700  1
  C  166  1  0.86555450  0.66060950  0.15407400  1
  C  167  1  0.80444800  0.63647900  0.15415900  1
  C  168  1  0.77253700  0.60974100  0.18739100  1
  C  170  1  0.80041400  0.60478900  0.21967900  1
  C  180  1  0.82189750  0.18049450  0.52166800  1
  C  181  1  0.81564600  0.16992500  0.48238500  1
  C  182  1  0.85326950  0.21267050  0.45643900  1
  C  183  1  0.89869300  0.26646300  0.47023700  1
  C  184  1  0.90707650  0.27511550  0.50974300  1
  C  186  1  0.86931100  0.23241000  0.53523750  1
  C  196  1  0.65967000  0.79412200  0.85428200  1
  C  197  1  0.66287600  0.79426800  0.81447300  1
  C  198  1  0.65561750  0.83480350  0.79277650  1
  C  199  1  0.64607750  0.87657850  0.81145150  1
  C  200  1  0.64696500  0.87874300  0.85141950  1
  C  202  1  0.65411450  0.83814150  0.87266000  1
  C  212  1  0.23504000  0.43896600  0.19080800  1
  C  213  1  0.20384550  0.41151750  0.15766100  1
  C  214  1  0.23271950  0.40767850  0.12513000  1
  C  215  1  0.29341600  0.42947500  0.12666150  1
  C  216  1  0.32400150  0.45490350  0.16052900  1
  C  218  1  0.29515950  0.45971650  0.19230700  1
  C  228  1  0.27300900  0.81501900  0.55910900  1
  C  229  1  0.28017100  0.85868400  0.53327000  1
  C  230  1  0.25559850  0.84446050  0.49667050  1
  C  231  1  0.22082200  0.78528400  0.48677200  1
  C  232  1  0.21160850  0.74157250  0.51323000  1
  C  234  1  0.23753900  0.75627300  0.54909300  1
  C  973  1  0.65358000  0.57087500  0.71710600  1
  C  974  1  0.63651700  0.60216100  0.69335300  1
  C  975  1  0.59952500  0.57449400  0.66253300  1
  C  976  1  0.57852100  0.51491200  0.65457900  1
  C  977  1  0.59224700  0.48303200  0.68050500  1
  C  978  1  0.63060200  0.51091300  0.71065200  1
  C  980  1  0.46735800  0.45074800  0.64510700  1
  C  981  1  0.44211950  0.39256650  0.65803000  1
  C  982  1  0.39484250  0.36889050  0.68304500  1
  C  983  1  0.37127600  0.40268900  0.69637100  1
  C  984  1  0.39680850  0.46106050  0.68423900  1
  C  985  1  0.44479750  0.48500050  0.65967100  1
  C  986  1  0.53780000  0.52796600  0.58703800  1
  C  987  1  0.53252400  0.42946100  0.59630100  1
  C  988  1  0.48541500  0.39520900  0.57185000  1
  C  989  1  0.48051450  0.34589250  0.55422900  1
  C  990  1  0.52286800  0.32944800  0.55993200  1
  C  991  1  0.57284200  0.36662500  0.58119600  1
  C  992  1  0.57759000  0.41603300  0.59926900  1
  C  993  1  0.59345100  0.56147600  0.57046000  1
  C  994  1  0.60385150  0.60383550  0.54313500  1
  C  995  1  0.55847250  0.61257550  0.53050400  1
  C  996  1  0.50198550  0.57632950  0.54495300  1
  C  997  1  0.49177500  0.53470500  0.57293550  1
  C  1013  1  0.51650750  0.27880150  0.54224600  1
  C  1014  1  0.56960200  0.65704000  0.50412050  1
  C  1015  1  0.32777900  0.38060200  0.72469800  1
  C  1017  1  0.69172850  0.59813650  0.74767400  1
  C  1022  1  0.96863680  0.36311580  0.05381000  1
  C  1023  1  0.01677000  0.37626600  0.03063800  1
  C  1024  1  0.03421200  0.41904900  0.00247800  1
  C  1025  1  0.00421700  0.45002200  0.99655167  1
  C  1026  1  0.95944330  0.44011630  0.02234800  1
  C  1027  1  0.94092030  0.39633330  0.04987200  1
  C  1029  1  0.05384300  0.56257400  0.98979170  1
  C  1030  1  0.02268850  0.59213550  0.99680867  1
  C  1031  1  0.04224900  0.63740100  0.02324200  1
  C  1032  1  0.09383900  0.65486300  0.04366100  1
  C  1033  1  0.12511850  0.62558150  0.03714850  1
  C  1034  1  0.10480500  0.57949200  0.01121200  1
  C  1035  1  0.06898000  0.49619800  0.93290320  1
  C  1036  1  0.97323980  0.49953380  0.93663270  1
  C  1037  1  0.98858029  0.54579429  0.91086770  1
  C  1038  1  0.94574430  0.55242130  0.89227450  1
  C  1039  1  0.88629730  0.51257530  0.89836000  1
  C  1040  1  0.87105130  0.46275830  0.92049570  1
  C  1041  1  0.91402030  0.45624330  0.93938320  1
  C  1042  1  0.04658000  0.44425400  0.91162270  1
  C  1043  1  0.08224250  0.43446250  0.88714000  1
  C  1044  1  0.14162350  0.47624650  0.88283500  1
  C  1045  1  0.16300800  0.52975400  0.90209670  1
  C  1046  1  0.12725650  0.53975450  0.92661370  1
  C  1062  1  0.84328330  0.52218630  0.88192800  1
  C  1063  1  0.17842600  0.46590100  0.85884900  1
  C  1064  1  0.10920600  0.69498400  0.07371400  1
  C  1066  1  0.94647630  0.31579730  0.07928000  1
  C  1071  1  0.42065550  0.07377350  0.35410200  1
  C  1072  1  0.38801950  0.01927750  0.33638750  1
  C  1073  1  0.41564150  0.99423950  0.31648200  1
  C  1074  1  0.47700100  0.02297300  0.31302600  1
  C  1075  1  0.50944300  0.07825400  0.33009750  1
  C  1076  1  0.48179050  0.10341050  0.34996150  1
  C  1078  1  0.53901950  0.97771850  0.33630700  1
  C  1079  1  0.59967600  0.00599700  0.34311500  1
  C  1080  1  0.62214050  0.99282250  0.37518200  1
  C  1081  1  0.58433500  0.95170400  0.40168350  1
  C  1082  1  0.52388450  0.92770850  0.39710750  1
  C  1083  1  0.50162650  0.94169050  0.36533250  1
  C  1084  1  0.46402300  0.92903900  0.27413700  1
  C  1085  1  0.56193900  0.02439800  0.26471200  1
  C  1086  1  0.59449100  0.99919200  0.25112400  1
  C  1087  1  0.63692800  0.02661000  0.22303100  1
  C  1088  1  0.64695150  0.07924050  0.20667100  1
  C  1089  1  0.61291450  0.10330750  0.21903400  1
  C  1090  1  0.57118050  0.07646250  0.24769000  1
  C  1091  1  0.43593300  0.93582100  0.24209500  1
  C  1092  1  0.38791200  0.88791100  0.22585900  1
  C  1093  1  0.36691100  0.83179200  0.24093800  1
  C  1094  1  0.39879500  0.82363400  0.26973950  1
  C  1095  1  0.44707000  0.87188800  0.28612400  1
  C  1111  1  0.68899000  0.10647200  0.17775950  1
  C  1112  1  0.31417550  0.78538950  0.22732500  1
  C  1113  1  0.60546650  0.92662250  0.42792550  1
  C  1115  1  0.39313850  0.09259150  0.38043800  1
  C  1120  1  0.44615750  0.20426750  0.50380350  1
  C  1121  1  0.40866500  0.21468100  0.48095900  1
  C  1122  1  0.39719850  0.19558950  0.44297750  1
  C  1123  1  0.42204650  0.16345650  0.42840400  1
  C  1124  1  0.45795200  0.15129300  0.45167750  1
  C  1126  1  0.46992850  0.17149350  0.48906350  1
  C  1136  1  0.82321930  0.58925530  0.85161600  1
  C  1137  1  0.85575830  0.61915130  0.81940100  1
  C  1138  1  0.82796080  0.62301580  0.78636800  1
  C  1139  1  0.76685400  0.59888500  0.78645300  1
  C  1140  1  0.73494300  0.57214700  0.81968500  1
  C  1142  1  0.76282000  0.56719500  0.85197300  1
  C  1152  1  0.78430350  0.14290050  0.15396200  1
  C  1153  1  0.77805200  0.13233100  0.11467900  1
  C  1154  1  0.81567580  0.17507680  0.08873300  1
  C  1155  1  0.86109930  0.22886930  0.10253100  1
  C  1156  1  0.86948280  0.23752180  0.14203700  1
  C  1158  1  0.83171730  0.19481630  0.16753150  1
  C  1168  1  0.62207600  0.75652800  0.48657600  1
  C  1169  1  0.62528200  0.75667400  0.44676700  1
  C  1170  1  0.61802350  0.79720950  0.42507050  1
  C  1171  1  0.60848350  0.83898450  0.44374550  1
  C  1172  1  0.60937100  0.84114900  0.48371350  1
  C  1174  1  0.61652050  0.80054750  0.50495400  1
  C  1184  1  0.19744600  0.40137200  0.82310200  1
  C  1185  1  0.16625150  0.37392350  0.78995500  1
  C  1186  1  0.19512550  0.37008450  0.75742400  1
  C  1187  1  0.25582200  0.39188100  0.75895550  1
  C  1188  1  0.28640750  0.41730950  0.79282300  1
  C  1190  1  0.25756550  0.42212250  0.82460100  1
  C  1200  1  0.23541500  0.77742500  0.19140300  1
  C  1201  1  0.24257700  0.82109000  0.16556400  1
  C  1202  1  0.21800450  0.80686650  0.12896450  1
  C  1203  1  0.18322800  0.74769000  0.11906600  1
  C  1204  1  0.17401450  0.70397850  0.14552400  1
  C  1206  1  0.19994500  0.71867900  0.18138700  1
  H  26  1  0.48277600  0.35959700  0.90506000  1
  H  27  1  0.48977950  0.44129850  0.93556750  1
  H  28  1  0.64277100  0.39443200  0.95255900  1
  H  29  1  0.65152650  0.47879550  0.98266200  1
  H  30  1  0.66553000  0.59471500  0.94665950  1
  H  31  1  0.68254400  0.66566900  0.90016300  1
  H  32  1  0.50559800  0.61886200  0.90394000  1
  H  33  1  0.48787000  0.54721300  0.95034000  1
  H  34  1  0.50150550  0.56593050  0.02122200  1
  H  35  1  0.42091500  0.52557600  0.06287200  1
  H  36  1  0.41629400  0.36462700  0.05983400  1
  H  37  1  0.49656850  0.40431850  0.01852450  1
  H  38  1  0.61220800  0.47664800  0.04569400  1
  H  39  1  0.62519500  0.63644000  0.01421000  1
  H  40  1  0.68913100  0.68298900  0.06562700  1
  H  44  1  0.67767550  0.52415750  0.09630700  1
  H  75  1  0.99625050  0.62519850  0.24264750  1
  H  76  1  0.06854200  0.61535800  0.27488800  1
  H  77  1  0.86594600  0.46994900  0.29247300  1
  H  78  1  0.93843050  0.45815650  0.32386100  1
  H  79  1  0.04183100  0.44935000  0.28211200  1
  H  80  1  0.10132200  0.43395500  0.24002700  1
  H  81  1  0.24307650  0.59925650  0.26697000  1
  H  82  1  0.18252850  0.61661850  0.30764300  1
  H  83  1  0.16446050  0.59477050  0.37703400  1
  H  84  1  0.19820300  0.67207000  0.42095300  1
  H  85  1  0.05503850  0.69384650  0.39599700  1
  H  86  1  0.02089650  0.61699450  0.35229750  1
  H  87  1  0.97585800  0.50091300  0.38848400  1
  H  88  1  0.10703050  0.46442650  0.35424200  1
  H  89  1  0.07559000  0.39078700  0.40065300  1
  H  93  1  0.94446400  0.42649200  0.43475000  1
  H  124  1  0.69681150  0.04434350  0.58161200  1
  H  125  1  0.62580800  0.99817500  0.62941400  1
  H  126  1  0.65622950  0.17876650  0.57528900  1
  H  127  1  0.58469500  0.13272400  0.62284900  1
  H  128  1  0.48440150  0.01366650  0.59955300  1
  H  129  1  0.40430800  0.93257500  0.57187600  1
  H  130  1  0.42256600  0.82071700  0.64833400  1
  H  131  1  0.50511700  0.90198700  0.67569850  1
  H  132  1  0.49501350  0.95937550  0.73032250  1
  H  133  1  0.53304700  0.93499200  0.78351350  1
  H  134  1  0.70373900  0.04788000  0.74520000  1
  H  135  1  0.66651750  0.07277250  0.69206300  1
  H  136  1  0.59151750  0.13725450  0.69792100  1
  H  137  1  0.42730300  0.99029900  0.67485700  1
  H  138  1  0.38150150  0.03308350  0.70753200  1
  H  142  1  0.54510900  0.17891000  0.73183300  1
  H  153  1  0.42981300  0.27707000  0.85893100  1
  H  155  1  0.51516100  0.16722900  0.80869650  1
  H  156  1  0.53542150  0.20184050  0.87267200  1
  H  161  1  0.46916200  0.26576700  0.92151050  1
  H  163  1  0.48328950  0.21631550  0.74229800  1
  H  169  1  0.93700000  0.67135800  0.18641300  1
  H  171  1  0.72814800  0.58898300  0.18722200  1
  H  172  1  0.77611100  0.58165800  0.24245700  1
  H  177  1  0.92236050  0.64665450  0.25774800  1
  H  179  1  0.78547200  0.60920800  0.10078500  1
  H  185  1  0.78088250  0.13255650  0.47243050  1
  H  187  1  0.93738750  0.31463850  0.52028300  1
  H  188  1  0.87316000  0.24171200  0.56354100  1
  H  193  1  0.79005100  0.13367200  0.56884250  1
  H  195  1  0.90258200  0.31664800  0.42698900  1
  H  201  1  0.66670933  0.76224633  0.80102800  1
  H  203  1  0.63731950  0.90658350  0.86534850  1
  H  204  1  0.64986650  0.83754750  0.90145450  1
  H  209  1  0.67902700  0.75799000  0.89725700  1
  H  211  1  0.59802400  0.88533300  0.77157850  1
  H  217  1  0.16037400  0.39757300  0.15629200  1
  H  219  1  0.36820400  0.47337000  0.16155600  1
  H  220  1  0.31851800  0.48064900  0.21592800  1
  H  225  1  0.17468250  0.41549750  0.23063300  1
  H  227  1  0.31852450  0.45360750  0.07319750  1
  H  233  1  0.30684200  0.90142500  0.54007600  1
  H  235  1  0.18866000  0.69869500  0.50572600  1
  H  236  1  0.23263250  0.72409750  0.56718250  1
  H  241  1  0.30634600  0.86325400  0.60519600  1
  H  243  1  0.23342450  0.77541750  0.43257950  1
  H  998  1  0.44518200  0.32200300  0.53735400  1
  H  999  1  0.45218550  0.40370450  0.56786150  1
  H  1000  1  0.60517700  0.35683800  0.58485300  1
  H  1001  1  0.61393250  0.44120150  0.61495600  1
  H  1002  1  0.62793600  0.55712100  0.57895350  1
  H  1003  1  0.64495000  0.62807500  0.53245700  1
  H  1004  1  0.46800400  0.58126800  0.53623400  1
  H  1005  1  0.45027600  0.50961900  0.58263400  1
  H  1006  1  0.46391150  0.52833650  0.65351600  1
  H  1007  1  0.38332100  0.48798200  0.69516600  1
  H  1008  1  0.37870000  0.32703300  0.69212800  1
  H  1009  1  0.45897450  0.36672450  0.65081850  1
  H  1010  1  0.57461400  0.43905400  0.67798800  1
  H  1011  1  0.58760100  0.59884600  0.64650400  1
  H  1012  1  0.65153700  0.64539500  0.69792100  1
  H  1016  1  0.64008150  0.48656350  0.72860100  1
  H  1047  1  0.95865680  0.58760480  0.87494150  1
  H  1048  1  0.03094800  0.57776400  0.90718170  1
  H  1049  1  0.82835230  0.43235530  0.92476670  1
  H  1050  1  0.90083680  0.42056280  0.95615470  1
  H  1051  1  0.00423700  0.41175600  0.91440570  1
  H  1052  1  0.06372800  0.39636100  0.87232100  1
  H  1053  1  0.20548250  0.56166250  0.89926400  1
  H  1054  1  0.14493450  0.57902450  0.93993670  1
  H  1055  1  0.12686650  0.55717650  0.00932800  1
  H  1056  1  0.16060900  0.63447600  0.05324700  1
  H  1057  1  0.01744450  0.65625250  0.02829100  1
  H  1058  1  0.98330279  0.57940079  0.98459120  1
  H  1059  1  0.93826430  0.46331930  0.02077800  1
  H  1060  1  0.06943650  0.42683250  0.98653570  1
  H  1061  1  0.03799600  0.35319300  0.03294700  1
  H  1065  1  0.90687030  0.38889830  0.06704400  1
  H  1096  1  0.65921750  0.00674950  0.21390600  1
  H  1097  1  0.58821400  0.96058100  0.26170800  1
  H  1098  1  0.61863550  0.14117250  0.20758300  1
  H  1099  1  0.54710100  0.09513000  0.25514300  1
  H  1100  1  0.44680750  0.97607250  0.23184700  1
  H  1101  1  0.36671400  0.89498100  0.20417000  1
  H  1102  1  0.38497200  0.78312300  0.28062800  1
  H  1103  1  0.46752300  0.86439300  0.30799250  1
  H  1104  1  0.45741950  0.92178150  0.36261650  1
  H  1105  1  0.49545300  0.89739800  0.41580750  1
  H  1106  1  0.66614500  0.01028600  0.37749400  1
  H  1107  1  0.62892350  0.03517850  0.32435700  1
  H  1108  1  0.55392350  0.09966050  0.33021500  1
  H  1109  1  0.38970900  0.95270500  0.30715100  1
  H  1110  1  0.34390750  0.99548950  0.33982600  1
  H  1114  1  0.50751500  0.14131600  0.36412700  1
  H  1125  1  0.39221900  0.23947600  0.49122500  1
  H  1127  1  0.47756700  0.12963500  0.44099050  1
  H  1128  1  0.49782750  0.16424650  0.50496600  1
  H  1133  1  0.43156800  0.22817300  0.55380450  1
  H  1135  1  0.44569550  0.17872150  0.37459200  1
  H  1141  1  0.89940630  0.63376430  0.81870700  1
  H  1143  1  0.69055400  0.55138900  0.81951600  1
  H  1144  1  0.73851700  0.54406400  0.87475100  1
  H  1149  1  0.88476680  0.60906080  0.89004200  1
  H  1151  1  0.74787800  0.57161400  0.73307900  1
  H  1157  1  0.74328850  0.09496250  0.10472450  1
  H  1159  1  0.89979380  0.27704480  0.15257700  1
  H  1160  1  0.83556630  0.20411830  0.19583500  1
  H  1165  1  0.75245700  0.09607800  0.20113650  1
  H  1167  1  0.86498830  0.27905430  0.05928300  1
  H  1173  1  0.62915750  0.72469450  0.43332200  1
  H  1175  1  0.59972550  0.86898950  0.49764250  1
  H  1176  1  0.61227250  0.79995350  0.53374850  1
  H  1181  1  0.64143300  0.72039600  0.52955100  1
  H  1183  1  0.56043000  0.84773900  0.40387250  1
  H  1189  1  0.12278000  0.35997900  0.78858600  1
  H  1191  1  0.33061000  0.43577600  0.79385000  1
  H  1192  1  0.28092400  0.44305500  0.84822200  1
  H  1197  1  0.13708850  0.37790350  0.86292700  1
  H  1199  1  0.28093050  0.41601350  0.70549150  1
  H  1205  1  0.26924800  0.86383100  0.17237000  1
  H  1207  1  0.15106600  0.66110100  0.13802000  1
  H  1208  1  0.19503850  0.68650350  0.19947650  1
  H  1213  1  0.26875200  0.82566000  0.23749000  1
  H  1215  1  0.19583050  0.73782350  0.06487350  1
  N  157  1  0.40030300  0.24626000  0.78670200  1
  N  160  1  0.50060000  0.26829000  0.90583650  1
  N  162  1  0.45436650  0.18662450  0.75882600  1
  N  173  1  0.89707950  0.68620550  0.12050800  1
  N  176  1  0.88726500  0.61390700  0.24744300  1
  N  178  1  0.77560000  0.62810700  0.12081100  1
  N  189  1  0.84539700  0.20359100  0.41690800  1
  N  192  1  0.77848950  0.14527050  0.54575800  1
  N  194  1  0.92677850  0.31248050  0.44610100  1
  N  205  1  0.65617850  0.83358950  0.75273750  1
  N  208  1  0.65521250  0.74850550  0.87451400  1
  N  210  1  0.62651800  0.90717300  0.79127250  1
  N  221  1  0.20261300  0.38318300  0.09098400  1
  N  224  1  0.20776950  0.44940950  0.21962200  1
  N  226  1  0.32392900  0.43369600  0.09463900  1
  N  237  1  0.26571450  0.88758450  0.46950250  1
  N  240  1  0.30485450  0.83056950  0.59150100  1
  N  242  1  0.20310200  0.76984700  0.45043000  1
  N  1129  1  0.36270900  0.20866600  0.41899600  1
  N  1132  1  0.46300600  0.23069600  0.53813050  1
  N  1134  1  0.41677250  0.14903050  0.39112000  1
  N  1145  1  0.85948580  0.64861180  0.75280200  1
  N  1148  1  0.84967130  0.57631330  0.87973700  1
  N  1150  1  0.73800600  0.59051300  0.75310500  1
  N  1161  1  0.80780330  0.16599730  0.04920200  1
  N  1164  1  0.74089550  0.10767650  0.17805200  1
  N  1166  1  0.88918480  0.27488680  0.07839500  1
  N  1177  1  0.61858450  0.79599550  0.38503150  1
  N  1180  1  0.61761850  0.71091150  0.50680800  1
  N  1182  1  0.58892400  0.86957900  0.42356650  1
  N  1193  1  0.16501900  0.34558900  0.72327800  1
  N  1196  1  0.17017550  0.41181550  0.85191600  1
  N  1198  1  0.28633500  0.39610200  0.72693300  1
  N  1209  1  0.22812050  0.84999050  0.10179650  1
  N  1212  1  0.26726050  0.79297550  0.22379500  1
  N  1214  1  0.16550800  0.73225300  0.08272400  1
  O  46  1  0.56481800  0.68414400  0.84644200  1
  O  47  1  0.59900100  0.32440000  0.88770150  1
  O  48  1  0.36850700  0.38398500  0.11963700  1
  O  49  1  0.71734850  0.66751750  0.13984100  1
  O  95  1  0.26022600  0.55009200  0.20916800  1
  O  96  1  0.83452650  0.51341450  0.23371400  1
  O  97  1  0.10405450  0.72553350  0.46546200  1
  O  98  1  0.02196700  0.34429000  0.46729800  1
  O  144  1  0.35670250  0.78300050  0.57413400  1
  O  145  1  0.71515600  0.17304800  0.51834400  1
  O  146  1  0.69115750  0.99980250  0.81586200  1
  O  147  1  0.38977550  0.08882950  0.77080750  1
  O  158  1  0.42205150  0.30015550  0.78282400  1
  O  159  1  0.34975100  0.22573600  0.79956000  1
  O  174  1  0.92212450  0.65986650  0.10857200  1
  O  175  1  0.93455550  0.73857050  0.12567900  1
  O  190  1  0.79652050  0.19505850  0.40660900  1
  O  191  1  0.85041050  0.16103250  0.40676500  1
  O  206  1  0.61666300  0.78602900  0.73997600  1
  O  207  1  0.70416750  0.84216250  0.74045400  1
  O  222  1  0.17918700  0.41077800  0.07850200  1
  O  223  1  0.16397100  0.33106800  0.09552250  1
  O  238  1  0.31885500  0.91801300  0.46200450  1
  O  239  1  0.24768300  0.92047200  0.48095850  1
  O  1018  1  0.52722400  0.64655000  0.47873600  1
  O  1019  1  0.56140700  0.28680600  0.51999550  1
  O  1020  1  0.33091300  0.34639100  0.75193100  1
  O  1021  1  0.67975450  0.62992350  0.77213500  1
  O  1067  1  0.22263200  0.51249800  0.84146200  1
  O  1068  1  0.79693250  0.47582050  0.86600800  1
  O  1069  1  0.06646050  0.68793950  0.09775600  1
  O  1070  1  0.98437329  0.30669629  0.09959200  1
  O  1116  1  0.31910850  0.74540650  0.20642800  1
  O  1117  1  0.67756200  0.13545400  0.15063800  1
  O  1118  1  0.65356350  0.96220850  0.44815600  1
  O  1119  1  0.35218150  0.05123550  0.40310150  1
  O  1130  1  0.38445750  0.26256150  0.41511800  1
  O  1131  1  0.31215700  0.18814200  0.43185400  1
  O  1146  1  0.88453080  0.62227280  0.74086600  1
  O  1147  1  0.89696180  0.70097680  0.75797300  1
  O  1162  1  0.75892650  0.15746450  0.03890300  1
  O  1163  1  0.81281680  0.12343880  0.03905900  1
  O  1178  1  0.57906900  0.74843500  0.37227000  1
  O  1179  1  0.66662033  0.80461533  0.37274800  1
  O  1194  1  0.14159300  0.37318400  0.71079600  1
  O  1195  1  0.12637700  0.29347400  0.72781650  1
  O  1210  1  0.28126100  0.88041900  0.09429850  1
  O  1211  1  0.21008900  0.88287800  0.11325250  1
  Si  7  1  0.56695250  0.51863250  0.98858050  1
  Si  56  1  0.06291700  0.53965300  0.33171300  1
  Si  105  1  0.54864150  0.02644750  0.66488400  1
  Si  979  1  0.52935850  0.48103850  0.62087450  1
  Si  1028  1  0.02532300  0.50205900  0.96400670  1
  Si  1077  1  0.51104750  0.98885350  0.29717800  1
