# generated using pymatgen
data_H4C5N
_symmetry_space_group_name_H-M   'P 1'
_cell_length_a   9.86786667
_cell_length_b   42.14810000
_cell_length_c   53.59110000
_cell_angle_alpha   90.00000000
_cell_angle_beta   90.00000000
_cell_angle_gamma   90.00000000
_symmetry_Int_Tables_number   1
_chemical_formula_structural   H4C5N
_chemical_formula_sum   'H288 C360 N72'
_cell_volume   22289.17252916
_cell_formula_units_Z   72
loop_
 _symmetry_equiv_pos_site_id
 _symmetry_equiv_pos_as_xyz
  1  'x, y, z'
loop_
 _atom_site_type_symbol
 _atom_site_label
 _atom_site_symmetry_multiplicity
 _atom_site_fract_x
 _atom_site_fract_y
 _atom_site_fract_z
 _atom_site_occupancy
  C  1  1  0.00356300  0.41812600  0.07101100  1
  C  3  1  0.03494300  0.46829400  0.05099200  1
  C  5  1  0.03295300  0.46481100  0.09542300  1
  C  7  1  0.00185800  0.59511200  0.94201900  1
  C  9  1  0.02930100  0.54526800  0.96255600  1
  C  11  1  0.03186300  0.54795200  0.91817500  1
  C  13  1  0.03657500  0.09526600  0.57100400  1
  C  15  1  0.00522500  0.04510000  0.55097800  1
  C  17  1  0.00718900  0.04857400  0.59540700  1
  C  19  1  0.03825900  0.91826800  0.44201600  1
  C  21  1  0.01086700  0.96811800  0.46254700  1
  C  23  1  0.00818200  0.96542000  0.41816700  1
  C  25  1  0.99910200  0.40451700  0.45745300  1
  C  27  1  0.02975700  0.38642300  0.49934300  1
  C  29  1  0.02591600  0.44196600  0.49044000  1
  C  31  1  0.00533500  0.60887300  0.55596800  1
  C  33  1  0.03893500  0.62762100  0.51437100  1
  C  35  1  0.03866300  0.57177200  0.52277700  1
  C  37  1  0.04099300  0.10886800  0.95745600  1
  C  39  1  0.01039200  0.12695800  0.99934800  1
  C  41  1  0.01417200  0.07141700  0.99044100  1
  C  43  1  0.03482400  0.90450200  0.05595700  1
  C  45  1  0.00124100  0.88575800  0.01436000  1
  C  47  1  0.00150600  0.94160400  0.02276800  1
  C  49  1  0.00334800  0.28382300  0.08148000  1
  C  51  1  0.00655100  0.22923300  0.06989100  1
  C  53  1  0.03167000  0.24397300  0.11258100  1
  C  55  1  0.00458600  0.72946900  0.93160700  1
  C  57  1  0.00901400  0.78391500  0.94350200  1
  C  59  1  0.03238900  0.76960800  0.90071000  1
  C  61  1  0.03707200  0.22956500  0.58148700  1
  C  63  1  0.03379000  0.28415100  0.56988800  1
  C  65  1  0.00863100  0.26942200  0.61258000  1
  C  67  1  0.03585700  0.78390800  0.43162400  1
  C  69  1  0.03121600  0.72945900  0.44351200  1
  C  71  1  0.00789000  0.74378300  0.40072200  1
  C  73  1  0.03573500  0.34866600  0.31698200  1
  C  75  1  0.00028900  0.38221000  0.35213900  1
  C  77  1  0.02585900  0.40449800  0.31155800  1
  C  79  1  0.03298700  0.66462100  0.69651700  1
  C  81  1  0.99847000  0.63100200  0.66135100  1
  C  83  1  0.02313800  0.60879200  0.70199200  1
  C  85  1  0.00435300  0.16471900  0.81698100  1
  C  87  1  0.03982900  0.13118700  0.85214600  1
  C  89  1  0.01433400  0.10888600  0.81156800  1
  C  91  1  0.00696600  0.84876300  0.19650500  1
  C  93  1  0.04160300  0.88238200  0.16134100  1
  C  95  1  0.01688000  0.90459000  0.20198100  1
  C  97  1  0.04254500  0.23699600  0.25828200  1
  C  99  1  0.04607100  0.18133000  0.25208300  1
  C  101  1  0.04714600  0.21611000  0.21701900  1
  C  103  1  0.04098400  0.77649800  0.75501800  1
  C  105  1  0.04442000  0.83218500  0.76113100  1
  C  107  1  0.04604200  0.79749800  0.79625000  1
  C  109  1  0.99753200  0.27638300  0.75827600  1
  C  111  1  0.99408600  0.33205100  0.75208600  1
  C  113  1  0.99297100  0.29728500  0.71701900  1
  C  115  1  0.99910900  0.73690900  0.25502800  1
  C  117  1  0.99575900  0.68122000  0.26114100  1
  C  119  1  0.99403400  0.71590700  0.29626000  1
  C  121  1  0.00226500  0.01464000  0.31921200  1
  C  123  1  0.03423500  0.05479300  0.28859300  1
  C  125  1  0.00955000  0.00114700  0.27610400  1
  C  127  1  0.99935600  0.99909700  0.69429500  1
  C  129  1  0.03122700  0.95878700  0.72479200  1
  C  131  1  0.00662300  0.01237300  0.73744000  1
  C  133  1  0.03787900  0.49873900  0.81922100  1
  C  135  1  0.00597400  0.45858300  0.78860000  1
  C  137  1  0.03061800  0.51223200  0.77611300  1
  C  139  1  0.04087200  0.51431800  0.19430100  1
  C  141  1  0.00897400  0.55461600  0.22480400  1
  C  143  1  0.03358700  0.50102900  0.23744400  1
  C  145  1  0.04769500  0.48730400  0.02883600  1
  C  146  1  0.94882800  0.48319400  0.01005300  1
  C  147  1  0.94666000  0.50225800  0.98856400  1
  C  148  1  0.04196700  0.52679500  0.98488400  1
  C  149  1  0.14653800  0.53090000  0.00311100  1
  C  152  1  0.15055000  0.51081300  0.02490100  1
  C  153  1  0.25584300  0.55515500  0.99916300  1
  C  157  1  0.26746600  0.51361300  0.04269000  1
  C  161  1  0.99246600  0.02609200  0.52881900  1
  C  162  1  0.09135000  0.03019600  0.51004000  1
  C  163  1  0.09352600  0.01113000  0.48855200  1
  C  164  1  0.99818900  0.98659800  0.48487000  1
  C  165  1  0.89361800  0.98249400  0.50309900  1
  C  168  1  0.88960700  0.00258200  0.52488400  1
  C  169  1  0.78430400  0.95824100  0.49914800  1
  C  173  1  0.77268200  0.99979000  0.54267100  1
  C  177  1  0.98349500  0.38451100  0.07071000  1
  C  178  1  0.08481300  0.36561100  0.05952300  1
  C  179  1  0.08501700  0.33241900  0.06215600  1
  C  180  1  0.98393400  0.31672200  0.07610400  1
  C  181  1  0.87552100  0.33508100  0.08640300  1
  C  184  1  0.87522500  0.36904900  0.08366700  1
  C  185  1  0.76060100  0.31903000  0.09972400  1
  C  189  1  0.75941100  0.38804900  0.09397900  1
  C  193  1  0.98322200  0.62875700  0.94206200  1
  C  194  1  0.08470200  0.64752200  0.95334000  1
  C  195  1  0.08555300  0.68071500  0.95075900  1
  C  196  1  0.98484600  0.69654000  0.93681100  1
  C  197  1  0.87623800  0.67831800  0.92642900  1
  C  200  1  0.87542900  0.64433800  0.92906300  1
  C  201  1  0.76148300  0.69452500  0.91317800  1
  C  205  1  0.75955300  0.62547100  0.91862500  1
  C  209  1  0.05666200  0.12888000  0.57071100  1
  C  210  1  0.95546500  0.14779300  0.55950200  1
  C  211  1  0.95532400  0.18098500  0.56213800  1
  C  212  1  0.05634800  0.19666200  0.57611300  1
  C  213  1  0.16472900  0.17829300  0.58641500  1
  C  216  1  0.16497400  0.14432500  0.58367000  1
  C  217  1  0.27965800  0.19432600  0.59974500  1
  C  221  1  0.28075000  0.12531200  0.59398300  1
  C  225  1  0.05698500  0.88462400  0.44206400  1
  C  226  1  0.95551800  0.86585000  0.45333700  1
  C  227  1  0.95476900  0.83265500  0.45076400  1
  C  228  1  0.05560600  0.81683000  0.43684300  1
  C  229  1  0.16410100  0.83507500  0.42644600  1
  C  232  1  0.16482100  0.86905500  0.42907200  1
  C  233  1  0.27887800  0.81888000  0.41319200  1
  C  237  1  0.28065000  0.88793600  0.41863100  1
  C  241  1  0.05090700  0.47883300  0.11938600  1
  C  242  1  0.95058100  0.50021300  0.12766100  1
  C  243  1  0.95283300  0.51248400  0.15201100  1
  C  244  1  0.05605300  0.50410400  0.16902500  1
  C  245  1  0.16399000  0.48412200  0.16055900  1
  C  248  1  0.16070700  0.47115600  0.13572600  1
  C  249  1  0.28342600  0.47747400  0.17710000  1
  C  253  1  0.27449900  0.45032700  0.12692800  1
  C  257  1  0.05003500  0.53368800  0.89429600  1
  C  258  1  0.94882900  0.51256200  0.88597000  1
  C  259  1  0.95035800  0.50045200  0.86156500  1
  C  260  1  0.05354100  0.50878500  0.84452900  1
  C  261  1  0.16233800  0.52848200  0.85303600  1
  C  264  1  0.15980500  0.54128500  0.87792400  1
  C  265  1  0.28172300  0.53504000  0.83646200  1
  C  269  1  0.27426500  0.56189100  0.88674500  1
  C  273  1  0.98923100  0.03454900  0.61937000  1
  C  274  1  0.08958500  0.01317600  0.62764800  1
  C  275  1  0.08737600  0.00091700  0.65200000  1
  C  276  1  0.98422800  0.00932300  0.66902000  1
  C  277  1  0.87621800  0.02928400  0.66055200  1
  C  280  1  0.87946200  0.04223700  0.63571400  1
  C  281  1  0.75680000  0.03593300  0.67709400  1
  C  285  1  0.76564900  0.06305700  0.62691600  1
  C  289  1  0.99004400  0.97968200  0.39428600  1
  C  290  1  0.09124300  0.00081000  0.38596400  1
  C  291  1  0.08973700  0.01292500  0.36156000  1
  C  292  1  0.98654800  0.00459700  0.34452200  1
  C  293  1  0.87778100  0.98488700  0.35302200  1
  C  296  1  0.88030300  0.97208000  0.37790800  1
  C  297  1  0.75842200  0.97832700  0.33644400  1
  C  301  1  0.76586000  0.95146200  0.38672100  1
  C  305  1  0.04812800  0.53932500  0.51464400  1
  C  306  1  0.94305300  0.51850300  0.52195300  1
  C  307  1  0.94004200  0.48667700  0.51419600  1
  C  308  1  0.04088200  0.47417600  0.49834400  1
  C  309  1  0.15091800  0.49428800  0.49111700  1
  C  312  1  0.15592200  0.52665300  0.49976800  1
  C  313  1  0.26436500  0.48149800  0.47539600  1
  C  317  1  0.27842000  0.54643100  0.49424800  1
  C  321  1  0.99202000  0.97405400  0.01463700  1
  C  322  1  0.09707700  0.99487800  0.02194700  1
  C  323  1  0.10007400  0.02670600  0.01419400  1
  C  324  1  0.99922500  0.03920500  0.99834200  1
  C  325  1  0.88920600  0.01908900  0.99111100  1
  C  328  1  0.88421600  0.98672100  0.99976000  1
  C  329  1  0.77575300  0.03187800  0.97539000  1
  C  333  1  0.76173600  0.96694100  0.99423800  1
  C  337  1  0.98342500  0.38675600  0.37844200  1
  C  338  1  0.08011900  0.37249200  0.39429100  1
  C  339  1  0.07998000  0.37801700  0.42011100  1
  C  340  1  0.98333200  0.39814200  0.43137200  1
  C  341  1  0.87981600  0.41170100  0.41598500  1
  C  344  1  0.87970500  0.40594000  0.38947500  1
  C  345  1  0.76771600  0.43087900  0.42742900  1
  C  349  1  0.76701600  0.41903700  0.37373200  1
  C  353  1  0.98324500  0.62640100  0.63500500  1
  C  354  1  0.07992100  0.64101600  0.61935300  1
  C  355  1  0.08175100  0.63550700  0.59353500  1
  C  356  1  0.98728800  0.61502000  0.58204700  1
  C  357  1  0.88382100  0.60105300  0.59722100  1
  C  360  1  0.88160000  0.60682700  0.62373300  1
  C  361  1  0.77392600  0.58143600  0.58552900  1
  C  365  1  0.76871400  0.59334900  0.63922400  1
  C  369  1  0.05672300  0.12665100  0.87844900  1
  C  370  1  0.96001800  0.14091100  0.89429600  1
  C  371  1  0.96013800  0.13537900  0.92011600  1
  C  372  1  0.05677100  0.11524900  0.93137700  1
  C  373  1  0.16032000  0.10170100  0.91599000  1
  C  376  1  0.16045000  0.10746900  0.88948200  1
  C  377  1  0.27241200  0.08252200  0.92743400  1
  C  381  1  0.27316100  0.09438100  0.87373900  1
  C  385  1  0.05683400  0.88698500  0.13499500  1
  C  386  1  0.96020900  0.87235600  0.11933900  1
  C  387  1  0.95841500  0.87786200  0.09352200  1
  C  388  1  0.05288100  0.89835000  0.08203400  1
  C  389  1  0.15630900  0.91232200  0.09721100  1
  C  392  1  0.15850700  0.90655400  0.12372500  1
  C  393  1  0.26621000  0.93194300  0.08552300  1
  C  397  1  0.27136900  0.92003500  0.13921900  1
  C  401  1  0.04775400  0.30893500  0.55182100  1
  C  402  1  0.94798800  0.31103700  0.53305300  1
  C  403  1  0.94642600  0.33633600  0.51599300  1
  C  404  1  0.04483600  0.36069300  0.51670700  1
  C  405  1  0.15190900  0.35813300  0.53466000  1
  C  408  1  0.15238000  0.33245900  0.55244500  1
  C  409  1  0.26778100  0.38120100  0.53441700  1
  C  413  1  0.26594700  0.32985100  0.57098100  1
  C  417  1  0.04653900  0.70491500  0.46169600  1
  C  418  1  0.94171900  0.70103300  0.47933000  1
  C  419  1  0.94326100  0.67586700  0.49653200  1
  C  420  1  0.05060100  0.65368800  0.49723200  1
  C  421  1  0.16243800  0.65839300  0.48061700  1
  C  424  1  0.15893400  0.68348100  0.46237000  1
  C  425  1  0.28671100  0.63820500  0.48296700  1
  C  429  1  0.27558400  0.68758300  0.44468200  1
  C  433  1  0.99253600  0.20444600  0.05182900  1
  C  434  1  0.09228100  0.20233800  0.03305700  1
  C  435  1  0.09380100  0.17703700  0.01599700  1
  C  436  1  0.99536300  0.15268800  0.01671500  1
  C  437  1  0.88831000  0.15525500  0.03467100  1
  C  440  1  0.88788200  0.18092900  0.05245400  1
  C  441  1  0.77241700  0.13219200  0.03443400  1
  C  445  1  0.77433100  0.18354500  0.07099400  1
  C  449  1  0.99365000  0.80845200  0.96168800  1
  C  450  1  0.09848300  0.81234300  0.97932000  1
  C  451  1  0.09693400  0.83751200  0.99652100  1
  C  452  1  0.98958900  0.85969100  0.99721800  1
  C  453  1  0.87774800  0.85498100  0.98060600  1
  C  456  1  0.88125600  0.82988900  0.96236000  1
  C  457  1  0.75346800  0.87516500  0.98295300  1
  C  461  1  0.76460400  0.82578200  0.94467200  1
  C  465  1  0.04545400  0.23564400  0.13827300  1
  C  466  1  0.94456100  0.24695800  0.15468900  1
  C  467  1  0.94819100  0.24003700  0.18026200  1
  C  468  1  0.05357900  0.22173000  0.19072200  1
  C  469  1  0.16017900  0.21097400  0.17468700  1
  C  472  1  0.15527300  0.21754100  0.14832000  1
  C  473  1  0.28133000  0.19437700  0.18533700  1
  C  477  1  0.26927900  0.20674100  0.13183600  1
  C  481  1  0.04539100  0.77809000  0.87503000  1
  C  482  1  0.94438000  0.76672300  0.85865400  1
  C  483  1  0.94764100  0.77361600  0.83307500  1
  C  484  1  0.05273000  0.79196500  0.82255900  1
  C  485  1  0.15938800  0.80280300  0.83855000  1
  C  488  1  0.15487000  0.79625200  0.86492600  1
  C  489  1  0.28023400  0.81946300  0.82784700  1
  C  493  1  0.26900600  0.80712400  0.88135000  1
  C  497  1  0.99480500  0.27775700  0.63827100  1
  C  498  1  0.09563700  0.26643000  0.65469500  1
  C  499  1  0.09196700  0.27335100  0.68026800  1
  C  500  1  0.98660700  0.29167600  0.69072000  1
  C  501  1  0.88005000  0.30243900  0.67467600  1
  C  504  1  0.88499600  0.29586600  0.64831000  1
  C  505  1  0.75891900  0.31905100  0.68531800  1
  C  509  1  0.77102900  0.30667100  0.63181800  1
  C  513  1  0.99482200  0.73530500  0.37504000  1
  C  514  1  0.09579700  0.74667500  0.35866100  1
  C  515  1  0.09249400  0.73978700  0.33308200  1
  C  516  1  0.98737700  0.72144200  0.32256900  1
  C  517  1  0.88079000  0.71058500  0.33856800  1
  C  520  1  0.88533800  0.71713600  0.36494100  1
  C  521  1  0.75996300  0.69390800  0.32787200  1
  C  525  1  0.77123300  0.70626300  0.38137300  1
  C  529  1  0.05552700  0.31870500  0.30534000  1
  C  530  1  0.94631500  0.29713800  0.30587200  1
  C  531  1  0.94664900  0.26991000  0.29080800  1
  C  532  1  0.05552500  0.26347400  0.27451600  1
  C  533  1  0.17123600  0.28388300  0.27468200  1
  C  536  1  0.17103300  0.31170600  0.29017500  1
  C  537  1  0.29387000  0.27625700  0.25922800  1
  C  541  1  0.29333900  0.33287900  0.29077400  1
  C  545  1  0.05297400  0.69460400  0.70812700  1
  C  546  1  0.94399600  0.71623200  0.70755500  1
  C  547  1  0.94467200  0.74351700  0.72256100  1
  C  548  1  0.05367300  0.74996300  0.73882300  1
  C  549  1  0.16919900  0.72949000  0.73867500  1
  C  552  1  0.16866000  0.70160800  0.72324700  1
  C  553  1  0.29202000  0.73712000  0.75407900  1
  C  557  1  0.29078400  0.68037500  0.72267500  1
  C  561  1  0.98460200  0.19467700  0.80532800  1
  C  562  1  0.09373100  0.21626400  0.80588800  1
  C  563  1  0.09336600  0.24349400  0.79082600  1
  C  564  1  0.98453900  0.24991400  0.77451900  1
  C  565  1  0.86887100  0.22948900  0.77467400  1
  C  568  1  0.86908500  0.20166500  0.79016200  1
  C  569  1  0.74626200  0.23710300  0.75920700  1
  C  573  1  0.74681100  0.18048100  0.79075100  1
  C  577  1  0.98700800  0.81877800  0.20811500  1
  C  578  1  0.09600300  0.79715600  0.20754600  1
  C  579  1  0.09536300  0.76987600  0.22255600  1
  C  580  1  0.98636500  0.76342800  0.23882000  1
  C  581  1  0.87082000  0.78389400  0.23866900  1
  C  584  1  0.87133400  0.81177400  0.22323700  1
  C  585  1  0.74801600  0.77626100  0.25407600  1
  C  589  1  0.74919200  0.83299900  0.22266200  1
  C  593  1  0.03353000  0.43056300  0.29478200  1
  C  594  1  0.93804500  0.43081900  0.27517600  1
  C  595  1  0.94156300  0.45410400  0.25658200  1
  C  596  1  0.04111500  0.47806700  0.25679500  1
  C  597  1  0.14114600  0.47815000  0.27611900  1
  C  600  1  0.13742800  0.45419900  0.29524900  1
  C  601  1  0.25406100  0.50199700  0.27588200  1
  C  605  1  0.24641300  0.45336100  0.31475200  1
  C  609  1  0.03090700  0.58275500  0.71879900  1
  C  610  1  0.93532200  0.58248500  0.73839200  1
  C  611  1  0.93879600  0.55920200  0.75699200  1
  C  612  1  0.03839100  0.53524900  0.75680200  1
  C  613  1  0.13857300  0.53518900  0.73750200  1
  C  616  1  0.13493500  0.55914500  0.71837200  1
  C  617  1  0.25153700  0.51135700  0.73776300  1
  C  621  1  0.24414000  0.56001400  0.69891100  1
  C  625  1  0.00672500  0.08281400  0.79480000  1
  C  626  1  0.10218400  0.08256700  0.77518900  1
  C  627  1  0.09866500  0.05928900  0.75658900  1
  C  628  1  0.99910200  0.03532800  0.75679400  1
  C  629  1  0.89904200  0.03524500  0.77611400  1
  C  632  1  0.90277200  0.05918900  0.79525000  1
  C  633  1  0.78609800  0.01140600  0.77586600  1
  C  637  1  0.79376100  0.06002800  0.81474800  1
  C  641  1  0.00916600  0.93062900  0.21878800  1
  C  642  1  0.10474800  0.93089000  0.23837900  1
  C  643  1  0.10131100  0.95417000  0.25698100  1
  C  644  1  0.00174700  0.97813300  0.25679300  1
  C  645  1  0.90156400  0.97819700  0.23749300  1
  C  648  1  0.90517100  0.95424500  0.21836100  1
  C  649  1  0.78862100  0.00203900  0.23775600  1
  C  653  1  0.79596800  0.95338700  0.19890100  1
  C  657  1  0.05663000  0.15026000  0.26231800  1
  C  658  1  0.94501800  0.13887500  0.27610900  1
  C  659  1  0.94327500  0.10785400  0.28557700  1
  C  660  1  0.05240600  0.08693200  0.28132300  1
  C  661  1  0.16904600  0.09813000  0.26817000  1
  C  664  1  0.17245100  0.13026800  0.25921700  1
  C  665  1  0.28937700  0.07692600  0.26425700  1
  C  669  1  0.29912300  0.14298900  0.24749300  1
  C  673  1  0.05472600  0.86325000  0.75087100  1
  C  674  1  0.94284800  0.87462100  0.73714700  1
  C  675  1  0.94074200  0.90566900  0.72772800  1
  C  676  1  0.04977100  0.92662400  0.73196700  1
  C  677  1  0.16670600  0.91543500  0.74503500  1
  C  680  1  0.17045400  0.88327900  0.75394100  1
  C  681  1  0.28694400  0.93667600  0.74892100  1
  C  685  1  0.29736400  0.87058100  0.76559400  1
  C  689  1  0.98351700  0.36311500  0.76233200  1
  C  690  1  0.09513100  0.37449900  0.77612400  1
  C  691  1  0.09690100  0.40552000  0.78559200  1
  C  692  1  0.98778400  0.42644400  0.78132800  1
  C  693  1  0.87112100  0.41525000  0.76818200  1
  C  696  1  0.86770700  0.38311100  0.75923100  1
  C  697  1  0.75080200  0.43645700  0.76426900  1
  C  701  1  0.74103300  0.37039200  0.74750500  1
  C  705  1  0.98545300  0.65015600  0.25088000  1
  C  706  1  0.09733700  0.63878600  0.23715500  1
  C  707  1  0.09945600  0.60773800  0.22773800  1
  C  708  1  0.99045400  0.58677900  0.23198600  1
  C  709  1  0.87349300  0.59796800  0.24504600  1
  C  712  1  0.86973100  0.63012600  0.25394900  1
  C  713  1  0.75325300  0.57672600  0.24893100  1
  C  717  1  0.74280600  0.64282400  0.26559800  1
  H  150  1  0.87079600  0.49858300  0.97582900  1
  H  151  1  0.87365600  0.46664100  0.01214900  1
  H  154  1  0.24606200  0.56903900  0.98217300  1
  H  155  1  0.35436600  0.54354600  0.99798400  1
  H  156  1  0.25663500  0.57187400  0.01470800  1
  H  158  1  0.27109500  0.49534700  0.05698900  1
  H  159  1  0.26398100  0.53658700  0.05205400  1
  H  160  1  0.36319900  0.51147100  0.03268600  1
  H  166  1  0.16939900  0.01480000  0.47581800  1
  H  167  1  0.16654300  0.04674600  0.51213800  1
  H  170  1  0.79408900  0.94435400  0.48216100  1
  H  171  1  0.68578500  0.96985000  0.49796900  1
  H  172  1  0.78350300  0.94152400  0.51469400  1
  H  174  1  0.76904500  0.01806000  0.55697000  1
  H  175  1  0.77614800  0.97681600  0.55203800  1
  H  176  1  0.67695400  0.00193200  0.53266700  1
  H  182  1  0.16514300  0.31993400  0.05498200  1
  H  183  1  0.16504500  0.37603400  0.05057600  1
  H  186  1  0.76604500  0.29324200  0.09982900  1
  H  187  1  0.66469500  0.32488100  0.09073100  1
  H  188  1  0.75740800  0.32687600  0.11911900  1
  H  190  1  0.76365700  0.41326900  0.08969400  1
  H  191  1  0.75635600  0.38566700  0.11424700  1
  H  192  1  0.66386500  0.37964300  0.08618900  1
  H  198  1  0.16569300  0.69310700  0.95802200  1
  H  199  1  0.16444400  0.63699700  0.96236600  1
  H  202  1  0.76711700  0.72031100  0.91320800  1
  H  203  1  0.66550500  0.68864100  0.92212900  1
  H  204  1  0.75829100  0.68684100  0.89374200  1
  H  206  1  0.76364200  0.60020500  0.92273800  1
  H  207  1  0.75655800  0.62805700  0.89837400  1
  H  208  1  0.66404600  0.63383200  0.92646000  1
  H  214  1  0.87526700  0.19348100  0.55495400  1
  H  215  1  0.87524800  0.13738000  0.55054100  1
  H  218  1  0.27425600  0.22011500  0.59985900  1
  H  219  1  0.37556400  0.18847100  0.59075500  1
  H  220  1  0.28281400  0.18647000  0.61913900  1
  H  222  1  0.27647600  0.10009400  0.58969000  1
  H  223  1  0.28378100  0.12768200  0.61425200  1
  H  224  1  0.37631300  0.13371300  0.58620000  1
  H  230  1  0.87463600  0.82025600  0.45802000  1
  H  231  1  0.87572300  0.87636500  0.46235100  1
  H  234  1  0.27330900  0.79309200  0.41322600  1
  H  235  1  0.37485500  0.82478000  0.42213900  1
  H  236  1  0.28202800  0.82656000  0.39375600  1
  H  238  1  0.27649600  0.91320200  0.42273800  1
  H  239  1  0.28365100  0.88534600  0.39838000  1
  H  240  1  0.37618100  0.87959000  0.42646700  1
  H  246  1  0.87370700  0.52654400  0.15757800  1
  H  247  1  0.87030700  0.50588800  0.11638100  1
  H  250  1  0.28325700  0.49046400  0.19463900  1
  H  251  1  0.37711400  0.48430700  0.16775600  1
  H  252  1  0.28736000  0.45221800  0.18151800  1
  H  254  1  0.26536800  0.44227400  0.10771700  1
  H  255  1  0.28071100  0.42922000  0.13866400  1
  H  256  1  0.37029400  0.46315500  0.12792200  1
  H  262  1  0.87064500  0.48659400  0.85596700  1
  H  263  1  0.86835600  0.50702200  0.89724300  1
  H  266  1  0.28079300  0.52221600  0.81884900  1
  H  267  1  0.37530200  0.52793400  0.84571700  1
  H  268  1  0.28651600  0.56032700  0.83218300  1
  H  270  1  0.26572400  0.56977500  0.90601300  1
  H  271  1  0.28067100  0.58309700  0.87512200  1
  H  272  1  0.36975700  0.54896200  0.88560700  1
  H  278  1  0.16650300  0.98685900  0.65756700  1
  H  279  1  0.16983500  0.00749600  0.61636200  1
  H  282  1  0.75699600  0.02295500  0.69464000  1
  H  283  1  0.66310900  0.02908700  0.66775700  1
  H  284  1  0.75283000  0.06119200  0.68150200  1
  H  286  1  0.77474400  0.07109800  0.60770000  1
  H  287  1  0.75945600  0.08417100  0.63864200  1
  H  288  1  0.66986300  0.05023000  0.62792000  1
  H  294  1  0.16944300  0.02678500  0.35596600  1
  H  295  1  0.17171000  0.00635000  0.39724000  1
  H  298  1  0.75934400  0.99116100  0.31883300  1
  H  299  1  0.66482600  0.98542100  0.34569800  1
  H  300  1  0.75367100  0.95304300  0.33215800  1
  H  302  1  0.77439500  0.94357400  0.40598700  1
  H  303  1  0.75948700  0.93026300  0.37509400  1
  H  304  1  0.67035800  0.96438800  0.38558300  1
  H  310  1  0.85987500  0.47287300  0.51966500  1
  H  311  1  0.86448500  0.52657000  0.53271900  1
  H  314  1  0.25205500  0.45697200  0.46953500  1
  H  315  1  0.35932200  0.48234200  0.48577100  1
  H  316  1  0.27442900  0.49570000  0.45847400  1
  H  318  1  0.28168400  0.56858800  0.50452800  1
  H  319  1  0.28240500  0.55190900  0.47436300  1
  H  320  1  0.37059800  0.53392000  0.49958100  1
  H  326  1  0.18022500  0.04051100  0.01966400  1
  H  327  1  0.17565300  0.98681400  0.03271500  1
  H  330  1  0.78804600  0.05640300  0.96953100  1
  H  331  1  0.68079700  0.03102800  0.98576500  1
  H  332  1  0.76569900  0.01767400  0.95846800  1
  H  334  1  0.75848200  0.94478400  0.00452000  1
  H  335  1  0.75775900  0.96146300  0.97435500  1
  H  336  1  0.66954800  0.97944900  0.99957100  1
  H  342  1  0.15603500  0.36810900  0.43054200  1
  H  343  1  0.15640900  0.35883700  0.38701400  1
  H  346  1  0.77117200  0.43252300  0.44766200  1
  H  347  1  0.66980400  0.42024700  0.42310000  1
  H  348  1  0.77032200  0.45501700  0.42008700  1
  H  350  1  0.76941700  0.41169900  0.35428900  1
  H  351  1  0.76996600  0.44491500  0.37410500  1
  H  352  1  0.66931400  0.41101300  0.38081700  1
  H  358  1  0.15775600  0.64573100  0.58328200  1
  H  359  1  0.15484800  0.65495300  0.62678000  1
  H  362  1  0.77895400  0.57979400  0.56530700  1
  H  363  1  0.67498000  0.59168800  0.58962100  1
  H  364  1  0.77773700  0.55731400  0.59289200  1
  H  366  1  0.76922600  0.60075800  0.65865500  1
  H  367  1  0.77345700  0.56748500  0.63890500  1
  H  368  1  0.67098700  0.60098800  0.63189100  1
  H  374  1  0.88407400  0.14528400  0.93054700  1
  H  375  1  0.88372300  0.15456400  0.88701900  1
  H  378  1  0.26893000  0.08086900  0.94766700  1
  H  379  1  0.37032500  0.09316000  0.92311300  1
  H  380  1  0.26983800  0.05838600  0.92008400  1
  H  382  1  0.27078100  0.10173100  0.85429900  1
  H  383  1  0.27021400  0.06850400  0.87410500  1
  H  384  1  0.37085400  0.10240400  0.88083000  1
  H  390  1  0.88242300  0.86763400  0.08326600  1
  H  391  1  0.88527800  0.85841900  0.12676300  1
  H  394  1  0.26121200  0.93357800  0.06530100  1
  H  395  1  0.36515800  0.92169600  0.08962000  1
  H  396  1  0.26237000  0.95606500  0.09288200  1
  H  398  1  0.27084100  0.91263000  0.15865100  1
  H  399  1  0.26662500  0.94589900  0.13889700  1
  H  400  1  0.36911000  0.91239500  0.13189000  1
  H  406  1  0.86847700  0.33730600  0.50338800  1
  H  407  1  0.87121400  0.29470200  0.53222500  1
  H  410  1  0.26625000  0.39804200  0.51906800  1
  H  411  1  0.36363900  0.36856700  0.53256100  1
  H  412  1  0.26861100  0.39476300  0.55176000  1
  H  414  1  0.26066800  0.30924300  0.58314800  1
  H  415  1  0.26722500  0.35082300  0.58292000  1
  H  416  1  0.36276500  0.32798700  0.56129500  1
  H  422  1  0.86178900  0.67337600  0.50822100  1
  H  423  1  0.85945600  0.71586700  0.47916600  1
  H  426  1  0.28769800  0.62347300  0.49959300  1
  H  427  1  0.37709400  0.65293900  0.48444100  1
  H  428  1  0.29601300  0.62280000  0.46669300  1
  H  430  1  0.26396100  0.70687900  0.43138000  1
  H  431  1  0.28981000  0.66589100  0.43388000  1
  H  432  1  0.36812500  0.69267500  0.45505000  1
  H  438  1  0.17173200  0.17606300  0.00338700  1
  H  439  1  0.16907200  0.21866900  0.03222500  1
  H  442  1  0.77391900  0.11534800  0.01908800  1
  H  443  1  0.67657100  0.14483000  0.03257800  1
  H  444  1  0.77158600  0.11863300  0.05177800  1
  H  446  1  0.77963400  0.20415900  0.08315700  1
  H  447  1  0.77303700  0.16257900  0.08293600  1
  H  448  1  0.67750500  0.18541400  0.06130900  1
  H  454  1  0.17841000  0.84000800  0.00820700  1
  H  455  1  0.18076000  0.79751200  0.97915400  1
  H  458  1  0.75248300  0.88990100  0.99957500  1
  H  459  1  0.66309300  0.86043100  0.98443100  1
  H  460  1  0.74415500  0.89056800  0.96667800  1
  H  462  1  0.77622800  0.80648100  0.93137500  1
  H  463  1  0.75038600  0.84747200  0.93386600  1
  H  464  1  0.67206700  0.82069500  0.95504200  1
  H  470  1  0.87085700  0.24835100  0.19122800  1
  H  471  1  0.86466700  0.26002100  0.14806800  1
  H  474  1  0.28222000  0.19326100  0.20554200  1
  H  475  1  0.37402500  0.20684900  0.18024000  1
  H  476  1  0.28609100  0.17012200  0.17828800  1
  H  478  1  0.25888500  0.21316900  0.11229400  1
  H  479  1  0.27780400  0.18095000  0.13262500  1
  H  480  1  0.36444800  0.21727200  0.13801400  1
  H  486  1  0.87028900  0.76523600  0.82214600  1
  H  487  1  0.86475800  0.75359600  0.86530800  1
  H  490  1  0.28087400  0.82057100  0.80764200  1
  H  491  1  0.37312100  0.80704500  0.83290700  1
  H  492  1  0.28482500  0.84372300  0.83488500  1
  H  494  1  0.25894400  0.80072500  0.90090200  1
  H  495  1  0.27731600  0.83291800  0.88053700  1
  H  496  1  0.36418000  0.79662700  0.87513800  1
  H  502  1  0.16925900  0.26502500  0.69123800  1
  H  503  1  0.17551200  0.25335400  0.64808000  1
  H  506  1  0.75801900  0.32018600  0.70552100  1
  H  507  1  0.66621400  0.30658300  0.68022300  1
  H  508  1  0.75419700  0.34330400  0.67825700  1
  H  510  1  0.78142200  0.30023200  0.61227900  1
  H  511  1  0.76254900  0.33246400  0.63260000  1
  H  512  1  0.67583000  0.29615400  0.63799600  1
  H  518  1  0.16981700  0.74817200  0.32214700  1
  H  519  1  0.17543000  0.75980200  0.36531100  1
  H  522  1  0.75930700  0.69278900  0.30766700  1
  H  523  1  0.66705600  0.70631900  0.33293200  1
  H  524  1  0.75541500  0.66965100  0.33492000  1
  H  526  1  0.78128500  0.71267600  0.40092100  1
  H  527  1  0.76297300  0.68046500  0.38056900  1
  H  528  1  0.67603400  0.71674500  0.37516000  1
  H  534  1  0.86258900  0.25563500  0.29091400  1
  H  535  1  0.86128200  0.30198800  0.31616500  1
  H  538  1  0.28752200  0.25408500  0.24890900  1
  H  539  1  0.38276900  0.27404100  0.27118300  1
  H  540  1  0.31126400  0.29514000  0.24567200  1
  H  542  1  0.28718800  0.35215600  0.30424500  1
  H  543  1  0.30917200  0.34343900  0.27241300  1
  H  544  1  0.38299200  0.31926300  0.29593600  1
  H  550  1  0.86074500  0.75783600  0.72243600  1
  H  551  1  0.85889200  0.71139200  0.69728000  1
  H  554  1  0.28595900  0.75934400  0.76433600  1
  H  555  1  0.38085500  0.73923700  0.74209800  1
  H  556  1  0.30932100  0.71828900  0.76768400  1
  H  558  1  0.28437900  0.66103900  0.70925800  1
  H  559  1  0.30667600  0.66989100  0.74106000  1
  H  560  1  0.38050900  0.69393000  0.71745000  1
  H  566  1  0.17738800  0.25778200  0.79094200  1
  H  567  1  0.17873200  0.21142500  0.81619200  1
  H  570  1  0.75258500  0.25927900  0.74889300  1
  H  571  1  0.65732200  0.23930400  0.77115500  1
  H  572  1  0.72895400  0.21822100  0.74564700  1
  H  574  1  0.75296000  0.16120100  0.80422000  1
  H  575  1  0.73103200  0.16992100  0.77238800  1
  H  576  1  0.65712600  0.19408800  0.79590900  1
  H  582  1  0.17931100  0.75556300  0.22243400  1
  H  583  1  0.18110700  0.80199900  0.19727200  1
  H  586  1  0.75409500  0.75403900  0.26433300  1
  H  587  1  0.65917200  0.77414000  0.24209400  1
  H  588  1  0.73070600  0.79509500  0.26767900  1
  H  590  1  0.75558500  0.85233600  0.20924800  1
  H  591  1  0.73329100  0.84348600  0.24104800  1
  H  592  1  0.65947600  0.81944200  0.21743900  1
  H  598  1  0.86881100  0.45350400  0.24293600  1
  H  599  1  0.86353100  0.41391200  0.27422300  1
  H  602  1  0.25299400  0.51810900  0.26003400  1
  H  603  1  0.35168400  0.48990900  0.27517100  1
  H  604  1  0.24950100  0.51649100  0.29273000  1
  H  606  1  0.23727900  0.43413400  0.32815700  1
  H  607  1  0.24566900  0.47545500  0.32535600  1
  H  608  1  0.34522900  0.45047400  0.30592600  1
  H  614  1  0.86591500  0.55977900  0.77061500  1
  H  615  1  0.86071400  0.59937000  0.73932100  1
  H  618  1  0.25037500  0.49523700  0.75360700  1
  H  619  1  0.34913500  0.52345500  0.73850600  1
  H  620  1  0.24714800  0.49687000  0.72090900  1
  H  622  1  0.23516900  0.57926300  0.68551900  1
  H  623  1  0.24354000  0.53793500  0.68828800  1
  H  624  1  0.34285300  0.56289700  0.70777700  1
  H  630  1  0.17141800  0.05989100  0.74294300  1
  H  631  1  0.17670800  0.09947200  0.77424100  1
  H  634  1  0.78716400  0.99530100  0.76001500  1
  H  635  1  0.68849100  0.02350300  0.77515500  1
  H  636  1  0.79062000  0.99690500  0.79271000  1
  H  638  1  0.80292200  0.07924500  0.82816400  1
  H  639  1  0.79443900  0.03792600  0.82534300  1
  H  640  1  0.69496500  0.06293300  0.80591800  1
  H  646  1  0.17418900  0.95358600  0.27060500  1
  H  647  1  0.17933200  0.91399700  0.23930900  1
  H  650  1  0.78979700  0.01815400  0.25360400  1
  H  651  1  0.69101400  0.98994600  0.23849700  1
  H  652  1  0.79303100  0.01652900  0.22090600  1
  H  654  1  0.80492700  0.93414500  0.18550400  1
  H  655  1  0.79659800  0.97547100  0.18828100  1
  H  656  1  0.69724600  0.95050900  0.20776400  1
  H  662  1  0.85775700  0.10020100  0.29460700  1
  H  663  1  0.86110900  0.15280800  0.27872900  1
  H  666  1  0.27822900  0.05312700  0.27184600  1
  H  667  1  0.37847400  0.08700500  0.27330100  1
  H  668  1  0.30934000  0.07443300  0.24432400  1
  H  670  1  0.29702600  0.16845400  0.24433200  1
  H  671  1  0.31675300  0.13130600  0.22961700  1
  H  672  1  0.38598200  0.13893000  0.25963800  1
  H  678  1  0.85502100  0.91331600  0.71876200  1
  H  679  1  0.85897000  0.86066800  0.73455900  1
  H  682  1  0.27553800  0.96048500  0.74136400  1
  H  683  1  0.37599100  0.92664800  0.73982300  1
  H  684  1  0.30715900  0.93913900  0.76884800  1
  H  686  1  0.29548100  0.84510900  0.76872300  1
  H  687  1  0.31515500  0.88223700  0.78347800  1
  H  688  1  0.38403600  0.87469700  0.75341500  1
  H  694  1  0.18242200  0.41317200  0.79462100  1
  H  695  1  0.17904000  0.36056200  0.77874500  1
  H  698  1  0.76196000  0.46025600  0.77185800  1
  H  699  1  0.66169500  0.42638000  0.77331500  1
  H  700  1  0.73083700  0.43895000  0.74433700  1
  H  702  1  0.74312200  0.34492700  0.74434400  1
  H  703  1  0.72340300  0.38207700  0.72962900  1
  H  704  1  0.65417600  0.37445100  0.75965300  1
  H  710  1  0.18517900  0.60009200  0.21877000  1
  H  711  1  0.18120500  0.65274200  0.23456500  1
  H  714  1  0.76467100  0.55291500  0.24137800  1
  H  715  1  0.66421300  0.58675100  0.23982900  1
  H  716  1  0.73301700  0.57426800  0.26885600  1
  H  718  1  0.74468600  0.66829600  0.26872600  1
  H  719  1  0.72500700  0.63117000  0.28348200  1
  H  720  1  0.65615000  0.63870500  0.25341500  1
  N  2  1  0.01542100  0.43616000  0.04994100  1
  N  4  1  0.04166200  0.48207000  0.07402400  1
  N  6  1  0.01454600  0.43296600  0.09346200  1
  N  8  1  0.01135500  0.57743300  0.96328600  1
  N  10  1  0.03867300  0.53096400  0.93976500  1
  N  12  1  0.01392700  0.57986500  0.91976000  1
  N  14  1  0.02474100  0.07723500  0.54992900  1
  N  16  1  0.99849600  0.03131800  0.57400800  1
  N  18  1  0.02558800  0.08042000  0.59345200  1
  N  20  1  0.02881300  0.93595300  0.46328100  1
  N  22  1  0.00143200  0.98241500  0.43975200  1
  N  24  1  0.02616000  0.93350900  0.41975500  1
  N  26  1  0.01161900  0.38066000  0.47450100  1
  N  28  1  0.03518800  0.41736900  0.50687900  1
  N  30  1  0.00882100  0.43494300  0.46584800  1
  N  32  1  0.01743400  0.63299000  0.53915000  1
  N  34  1  0.04864400  0.59678400  0.50663300  1
  N  36  1  0.01719100  0.57858600  0.54732300  1
  N  38  1  0.02850900  0.13272200  0.97450600  1
  N  40  1  0.00493900  0.09601000  0.00688300  1
  N  42  1  0.03126600  0.07844100  0.96584800  1
  N  44  1  0.02274200  0.88038700  0.03913700  1
  N  46  1  0.99152400  0.91659500  0.00662100  1
  N  48  1  0.02296700  0.93479000  0.04731300  1
  N  50  1  0.99727800  0.26063400  0.06369800  1
  N  52  1  0.02303600  0.22151700  0.09440200  1
  N  54  1  0.01951300  0.27489800  0.10570800  1
  N  56  1  0.99911200  0.75248800  0.94953000  1
  N  58  1  0.02430400  0.79191300  0.91902300  1
  N  60  1  0.02029100  0.73862500  0.90742400  1
  N  62  1  0.04306100  0.25274900  0.56369800  1
  N  64  1  0.01727200  0.29187300  0.59439800  1
  N  66  1  0.02082700  0.23849700  0.60571300  1
  N  68  1  0.04121700  0.76088700  0.44954300  1
  N  70  1  0.01590400  0.72147100  0.41903300  1
  N  72  1  0.02008000  0.77476200  0.40743900  1
  N  74  1  0.01614700  0.35267800  0.34198100  1
  N  76  1  0.00726100  0.40781700  0.33659000  1
  N  78  1  0.03911100  0.37478800  0.30221500  1
  N  80  1  0.01411800  0.66055000  0.67150600  1
  N  82  1  0.00523500  0.60543000  0.67694300  1
  N  84  1  0.03612000  0.63852300  0.71131300  1
  N  86  1  0.02395900  0.16071700  0.84198200  1
  N  88  1  0.03291900  0.10557500  0.83660000  1
  N  90  1  0.00104000  0.13859300  0.80222000  1
  N  92  1  0.02590500  0.85283400  0.17149400  1
  N  94  1  0.03483100  0.90795200  0.17693400  1
  N  96  1  0.00386400  0.87485900  0.21130000  1
  N  98  1  0.04403900  0.20695400  0.26751100  1
  N  100  1  0.04916400  0.18628400  0.22691800  1
  N  102  1  0.04461300  0.24112400  0.23308500  1
  N  104  1  0.04225100  0.80652100  0.74574000  1
  N  106  1  0.04781500  0.82729500  0.78630100  1
  N  108  1  0.04336600  0.77244400  0.78022100  1
  N  110  1  0.99606200  0.30642200  0.76751200  1
  N  112  1  0.99099600  0.32710900  0.72692200  1
  N  114  1  0.99548500  0.27226600  0.73307900  1
  N  116  1  0.99787800  0.70688700  0.24575200  1
  N  118  1  0.99233200  0.68611000  0.28631100  1
  N  120  1  0.99670200  0.74096200  0.28023100  1
  N  122  1  0.02044300  0.04573400  0.31290100  1
  N  124  1  0.02755700  0.03226100  0.27050200  1
  N  126  1  0.99871900  0.99272600  0.30052000  1
  N  128  1  0.01755700  0.96796900  0.70050900  1
  N  130  1  0.02460700  0.98123100  0.74295200  1
  N  132  1  0.99589200  0.02091200  0.71305200  1
  N  134  1  0.01971400  0.46764400  0.81291000  1
  N  136  1  0.01263200  0.48111600  0.77051100  1
  N  138  1  0.04142100  0.52065000  0.80052900  1
  N  140  1  0.02266300  0.54544400  0.20052000  1
  N  142  1  0.01558900  0.53216700  0.24296000  1
  N  144  1  0.04433800  0.49249700  0.21305400  1
