# generated using pymatgen
data_AgH12C17N6
_symmetry_space_group_name_H-M   'P 1'
_cell_length_a   7.19232000
_cell_length_b   23.10601887
_cell_length_c   23.10651924
_cell_angle_alpha   88.68187022
_cell_angle_beta   81.27674990
_cell_angle_gamma   81.27284564
_symmetry_Int_Tables_number   1
_chemical_formula_structural   AgH12C17N6
_chemical_formula_sum   'Ag8 H96 C136 N48'
_cell_volume   3751.61341084
_cell_formula_units_Z   8
loop_
 _symmetry_equiv_pos_site_id
 _symmetry_equiv_pos_as_xyz
  1  'x, y, z'
loop_
 _atom_site_type_symbol
 _atom_site_label
 _atom_site_symmetry_multiplicity
 _atom_site_fract_x
 _atom_site_fract_y
 _atom_site_fract_z
 _atom_site_occupancy
  Ag  Ag0  1  0.24541000  0.60258000  0.02358000  1
  Ag  Ag1  1  0.87120000  0.89859000  0.47627000  1
  Ag  Ag2  1  0.84663000  0.02316000  0.89839000  1
  Ag  Ag3  1  0.77053000  0.47586000  0.60236000  1
  Ag  Ag4  1  0.75458000  0.39743000  0.97642000  1
  Ag  Ag5  1  0.12881000  0.10141000  0.52373000  1
  Ag  Ag6  1  0.15337000  0.97684000  0.10161000  1
  Ag  Ag7  1  0.22948000  0.52414000  0.39764000  1
  H  H8  1  0.97275000  0.51868000  0.13776000  1
  H  H9  1  0.88764000  0.42950000  0.09607000  1
  H  H10  1  0.62375000  0.52851000  0.97053000  1
  H  H11  1  0.70891000  0.61923000  0.00339000  1
  H  H12  1  0.83965000  0.80134000  0.21895000  1
  H  H13  1  0.93209000  0.89965000  0.20981000  1
  H  H14  1  0.15559000  0.87408000  0.03430000  1
  H  H15  1  0.07427000  0.77516000  0.03508000  1
  H  H16  1  0.63157000  0.77087000  0.04393000  1
  H  H17  1  0.64856000  0.80106000  0.93781000  1
  H  H18  1  0.91416000  0.74954000  0.86374000  1
  H  H19  1  0.14554000  0.66962000  0.89930000  1
  H  H20  1  0.62698000  0.98227000  0.36307000  1
  H  H21  1  0.41029000  0.07039000  0.40489000  1
  H  H22  1  0.12444000  0.96964000  0.52966000  1
  H  H23  1  0.33396000  0.87978000  0.49650000  1
  H  H24  1  0.85896000  0.69991000  0.28109000  1
  H  H25  1  0.04180000  0.60223000  0.28953000  1
  H  H26  1  0.06329000  0.62640000  0.46579000  1
  H  H27  1  0.88260000  0.72473000  0.46562000  1
  H  H28  1  0.44720000  0.72896000  0.45592000  1
  H  H29  1  0.38789000  0.69900000  0.56200000  1
  H  H30  1  0.52874000  0.75091000  0.63648000  1
  H  H31  1  0.71670000  0.83090000  0.60112000  1
  H  H32  1  0.49167000  0.13767000  0.98126000  1
  H  H33  1  0.31712000  0.09613000  0.06982000  1
  H  H34  1  0.15384000  0.97032000  0.97009000  1
  H  H35  1  0.32997000  0.00310000  0.87990000  1
  H  H36  1  0.64231000  0.21869000  0.69852000  1
  H  H37  1  0.83379000  0.20956000  0.60081000  1
  H  H38  1  0.02988000  0.03385000  0.62661000  1
  H  H39  1  0.84859000  0.03465000  0.72497000  1
  H  H40  1  0.40210000  0.04365000  0.72861000  1
  H  H41  1  0.44849000  0.93750000  0.69854000  1
  H  H42  1  0.66325000  0.86342000  0.75023000  1
  H  H43  1  0.81517000  0.89902000  0.83056000  1
  H  H44  1  0.60907000  0.36291000  0.51771000  1
  H  H45  1  0.48142000  0.40491000  0.42894000  1
  H  H46  1  0.09412000  0.52943000  0.52893000  1
  H  H47  1  0.21290000  0.49619000  0.61933000  1
  H  H48  1  0.55782000  0.28083000  0.79998000  1
  H  H49  1  0.64170000  0.28933000  0.89825000  1
  H  H50  1  0.68914000  0.46538000  0.87422000  1
  H  H51  1  0.60824000  0.46519000  0.77533000  1
  H  H52  1  0.17710000  0.45567000  0.77053000  1
  H  H53  1  0.08866000  0.56174000  0.80059000  1
  H  H54  1  0.28073000  0.63617000  0.74884000  1
  H  H55  1  0.54769000  0.60079000  0.66925000  1
  H  H56  1  0.02725000  0.48132000  0.86224000  1
  H  H57  1  0.11235000  0.57050000  0.90394000  1
  H  H58  1  0.37624000  0.47149000  0.02948000  1
  H  H59  1  0.29108000  0.38077000  0.99662000  1
  H  H60  1  0.16035000  0.19866000  0.78105000  1
  H  H61  1  0.06792000  0.10035000  0.79019000  1
  H  H62  1  0.84442000  0.12592000  0.96570000  1
  H  H63  1  0.92574000  0.22484000  0.96492000  1
  H  H64  1  0.36842000  0.22913000  0.95608000  1
  H  H65  1  0.35145000  0.19894000  0.06219000  1
  H  H66  1  0.08583000  0.25046000  0.13627000  1
  H  H67  1  0.85447000  0.33038000  0.10070000  1
  H  H68  1  0.37301000  0.01773000  0.63694000  1
  H  H69  1  0.58970000  0.92962000  0.59512000  1
  H  H70  1  0.87556000  0.03036000  0.47035000  1
  H  H71  1  0.66604000  0.12022000  0.50350000  1
  H  H72  1  0.14102000  0.30010000  0.71892000  1
  H  H73  1  0.95820000  0.39777000  0.71048000  1
  H  H74  1  0.93671000  0.37361000  0.53421000  1
  H  H75  1  0.11740000  0.27527000  0.53438000  1
  H  H76  1  0.55279000  0.27104000  0.54409000  1
  H  H77  1  0.61212000  0.30100000  0.43800000  1
  H  H78  1  0.47127000  0.24909000  0.36352000  1
  H  H79  1  0.28330000  0.16910000  0.39888000  1
  H  H80  1  0.50832000  0.86233000  0.01875000  1
  H  H81  1  0.68287000  0.90387000  0.93019000  1
  H  H82  1  0.84617000  0.02968000  0.02991000  1
  H  H83  1  0.67002000  0.99690000  0.12011000  1
  H  H84  1  0.35769000  0.78131000  0.30149000  1
  H  H85  1  0.16621000  0.79044000  0.39919000  1
  H  H86  1  0.97012000  0.96615000  0.37339000  1
  H  H87  1  0.15141000  0.96535000  0.27504000  1
  H  H88  1  0.59790000  0.95635000  0.27139000  1
  H  H89  1  0.55152000  0.06250000  0.30146000  1
  H  H90  1  0.33676000  0.13658000  0.24977000  1
  H  H91  1  0.18484000  0.10098000  0.16944000  1
  H  H92  1  0.39094000  0.63709000  0.48229000  1
  H  H93  1  0.51857000  0.59509000  0.57107000  1
  H  H94  1  0.90589000  0.47057000  0.47107000  1
  H  H95  1  0.78711000  0.50381000  0.38067000  1
  H  H96  1  0.44216000  0.71918000  0.20003000  1
  H  H97  1  0.35831000  0.71067000  0.10175000  1
  H  H98  1  0.31085000  0.53462000  0.12579000  1
  H  H99  1  0.39177000  0.53481000  0.22467000  1
  H  H100  1  0.82290000  0.54433000  0.22947000  1
  H  H101  1  0.91134000  0.43826000  0.19942000  1
  H  H102  1  0.71926000  0.36383000  0.25117000  1
  H  H103  1  0.45231000  0.39921000  0.33076000  1
  C  C104  1  0.89360000  0.52189000  0.10104000  1
  C  C105  1  0.84627000  0.47262000  0.07806000  1
  C  C106  1  0.70363000  0.52747000  0.00703000  1
  C  C107  1  0.75086000  0.57877000  0.02602000  1
  C  C108  1  0.84318000  0.57808000  0.07642000  1
  C  C109  1  0.87082000  0.62902000  0.10644000  1
  C  C110  1  0.89705000  0.71981000  0.13101000  1
  C  C111  1  0.94220000  0.77874000  0.12702000  1
  C  C112  1  0.90675000  0.81560000  0.17666000  1
  C  C113  1  0.95897000  0.87102000  0.17179000  1
  C  C114  1  0.08306000  0.85673000  0.07419000  1
  C  C115  1  0.03459000  0.80113000  0.07478000  1
  C  C116  1  0.87466000  0.70338000  0.02501000  1
  C  C117  1  0.73955000  0.74911000  0.00975000  1
  C  C118  1  0.75202000  0.76601000  0.95118000  1
  C  C119  1  0.89901000  0.73731000  0.90978000  1
  C  C120  1  0.02734000  0.69262000  0.92934000  1
  C  C121  1  0.51516000  0.97830000  0.39956000  1
  C  C122  1  0.39508000  0.02709000  0.42263000  1
  C  C123  1  0.23879000  0.97133000  0.49326000  1
  C  C124  1  0.35695000  0.92048000  0.47416000  1
  C  C125  1  0.49770000  0.92189000  0.42386000  1
  C  C126  1  0.60597000  0.87128000  0.39376000  1
  C  C127  1  0.74675000  0.78067000  0.36930000  1
  C  C128  1  0.84668000  0.72191000  0.37330000  1
  C  C129  1  0.89826000  0.68551000  0.32339000  1
  C  C130  1  0.00164000  0.63032000  0.32791000  1
  C  C131  1  0.01337000  0.64390000  0.42586000  1
  C  C132  1  0.90923000  0.69924000  0.42558000  1
  C  C133  1  0.60394000  0.79687000  0.47517000  1
  C  C134  1  0.49915000  0.75097000  0.49026000  1
  C  C135  1  0.47002000  0.73414000  0.54882000  1
  C  C136  1  0.54721000  0.76306000  0.59041000  1
  C  C137  1  0.65104000  0.80778000  0.57097000  1
  C  C138  1  0.41625000  0.10090000  0.97765000  1
  C  C139  1  0.31944000  0.07798000  0.02667000  1
  C  C140  1  0.23258000  0.00680000  0.97146000  1
  C  C141  1  0.33135000  0.02576000  0.92040000  1
  C  C142  1  0.42266000  0.07621000  0.92139000  1
  C  C143  1  0.50079000  0.10626000  0.87061000  1
  C  C144  1  0.61719000  0.13072000  0.77996000  1
  C  C145  1  0.72116000  0.12668000  0.72123000  1
  C  C146  1  0.72334000  0.17634000  0.68444000  1
  C  C147  1  0.83137000  0.17147000  0.62930000  1
  C  C148  1  0.94020000  0.07378000  0.64372000  1
  C  C149  1  0.83555000  0.07438000  0.69902000  1
  C  C150  1  0.57835000  0.02475000  0.79635000  1
  C  C151  1  0.48842000  0.00945000  0.75051000  1
  C  C152  1  0.51749000  0.95086000  0.73366000  1
  C  C153  1  0.63592000  0.90946000  0.76254000  1
  C  C154  1  0.72009000  0.92906000  0.80734000  1
  C  C155  1  0.49331000  0.39942000  0.52125000  1
  C  C156  1  0.42253000  0.42253000  0.47220000  1
  C  C157  1  0.21001000  0.49304000  0.52757000  1
  C  C158  1  0.27680000  0.47390000  0.57868000  1
  C  C159  1  0.41884000  0.42362000  0.57759000  1
  C  C160  1  0.47661000  0.39354000  0.62837000  1
  C  C161  1  0.52732000  0.36900000  0.71911000  1
  C  C162  1  0.56851000  0.37297000  0.77805000  1
  C  C163  1  0.58292000  0.32309000  0.81454000  1
  C  C164  1  0.63050000  0.32761000  0.86999000  1
  C  C165  1  0.65672000  0.42549000  0.85650000  1
  C  C166  1  0.60870000  0.42521000  0.80088000  1
  C  C167  1  0.40082000  0.47490000  0.70285000  1
  C  C168  1  0.25089000  0.48997000  0.74864000  1
  C  C169  1  0.20528000  0.54853000  0.76553000  1
  C  C170  1  0.31116000  0.59008000  0.73678000  1
  C  C171  1  0.45899000  0.57067000  0.69216000  1
  C  C172  1  0.10639000  0.47811000  0.89897000  1
  C  C173  1  0.15373000  0.52738000  0.92194000  1
  C  C174  1  0.29636000  0.47253000  0.99298000  1
  C  C175  1  0.24914000  0.42123000  0.97399000  1
  C  C176  1  0.15682000  0.42192000  0.92358000  1
  C  C177  1  0.12919000  0.37098000  0.89356000  1
  C  C178  1  0.10295000  0.28019000  0.86899000  1
  C  C179  1  0.05781000  0.22126000  0.87298000  1
  C  C180  1  0.09324000  0.18440000  0.82335000  1
  C  C181  1  0.04103000  0.12898000  0.82821000  1
  C  C182  1  0.91694000  0.14327000  0.92582000  1
  C  C183  1  0.96540000  0.19887000  0.92523000  1
  C  C184  1  0.12535000  0.29662000  0.97499000  1
  C  C185  1  0.26045000  0.25090000  0.99025000  1
  C  C186  1  0.24798000  0.23399000  0.04882000  1
  C  C187  1  0.10098000  0.26270000  0.09022000  1
  C  C188  1  0.97265000  0.30738000  0.07067000  1
  C  C189  1  0.48484000  0.02170000  0.60044000  1
  C  C190  1  0.60491000  0.97291000  0.57738000  1
  C  C191  1  0.76121000  0.02867000  0.50674000  1
  C  C192  1  0.64305000  0.07952000  0.52584000  1
  C  C193  1  0.50230000  0.07811000  0.57614000  1
  C  C194  1  0.39402000  0.12872000  0.60625000  1
  C  C195  1  0.25325000  0.21933000  0.63070000  1
  C  C196  1  0.15333000  0.27809000  0.62670000  1
  C  C197  1  0.10174000  0.31449000  0.67661000  1
  C  C198  1  0.99836000  0.36968000  0.67210000  1
  C  C199  1  0.98663000  0.35610000  0.57415000  1
  C  C200  1  0.09077000  0.30076000  0.57442000  1
  C  C201  1  0.39606000  0.20313000  0.52483000  1
  C  C202  1  0.50084000  0.24903000  0.50975000  1
  C  C203  1  0.52998000  0.26586000  0.45118000  1
  C  C204  1  0.45280000  0.23694000  0.40959000  1
  C  C205  1  0.34896000  0.19222000  0.42903000  1
  C  C206  1  0.58376000  0.89910000  0.02235000  1
  C  C207  1  0.68056000  0.92202000  0.97333000  1
  C  C208  1  0.76741000  0.99320000  0.02855000  1
  C  C209  1  0.66865000  0.97424000  0.07960000  1
  C  C210  1  0.57733000  0.92380000  0.07861000  1
  C  C211  1  0.49922000  0.89374000  0.12939000  1
  C  C212  1  0.38280000  0.86928000  0.22005000  1
  C  C213  1  0.27884000  0.87332000  0.27877000  1
  C  C214  1  0.27667000  0.82366000  0.31556000  1
  C  C215  1  0.16863000  0.82853000  0.37070000  1
  C  C216  1  0.05980000  0.92622000  0.35628000  1
  C  C217  1  0.16446000  0.92562000  0.30098000  1
  C  C218  1  0.42165000  0.97525000  0.20366000  1
  C  C219  1  0.51158000  0.99056000  0.24949000  1
  C  C220  1  0.48251000  0.04914000  0.26635000  1
  C  C221  1  0.36408000  0.09054000  0.23746000  1
  C  C222  1  0.27991000  0.07094000  0.19267000  1
  C  C223  1  0.50669000  0.60058000  0.47875000  1
  C  C224  1  0.57745000  0.57748000  0.52781000  1
  C  C225  1  0.78999000  0.50696000  0.47243000  1
  C  C226  1  0.72319000  0.52610000  0.42133000  1
  C  C227  1  0.58116000  0.57638000  0.42241000  1
  C  C228  1  0.52340000  0.60646000  0.37163000  1
  C  C229  1  0.47269000  0.63100000  0.28089000  1
  C  C230  1  0.43148000  0.62704000  0.22195000  1
  C  C231  1  0.41707000  0.67692000  0.18546000  1
  C  C232  1  0.36950000  0.67239000  0.13001000  1
  C  C233  1  0.34329000  0.57451000  0.14350000  1
  C  C234  1  0.39131000  0.57479000  0.19912000  1
  C  C235  1  0.59919000  0.52510000  0.29715000  1
  C  C236  1  0.74910000  0.51003000  0.25137000  1
  C  C237  1  0.79471000  0.45147000  0.23448000  1
  C  C238  1  0.68884000  0.40992000  0.26323000  1
  C  C239  1  0.54101000  0.42933000  0.30784000  1
  N  N240  1  0.74418000  0.47403000  0.03246000  1
  N  N241  1  0.88688000  0.63029000  0.16383000  1
  N  N242  1  0.90014000  0.68577000  0.17857000  1
  N  N243  1  0.87278000  0.68570000  0.08396000  1
  N  N244  1  0.04533000  0.89265000  0.12136000  1
  N  N245  1  0.01772000  0.67531000  0.98567000  1
  N  N246  1  0.24971000  0.02494000  0.46800000  1
  N  N247  1  0.67998000  0.87014000  0.33644000  1
  N  N248  1  0.76281000  0.81475000  0.32175000  1
  N  N249  1  0.64236000  0.81464000  0.41627000  1
  N  N250  1  0.05937000  0.60844000  0.37834000  1
  N  N251  1  0.68013000  0.82510000  0.51465000  1
  N  N252  1  0.21919000  0.03232000  0.02494000  1
  N  N253  1  0.51803000  0.16365000  0.86937000  1
  N  N254  1  0.58649000  0.17831000  0.81397000  1
  N  N255  1  0.55898000  0.08371000  0.81399000  1
  N  N256  1  0.93907000  0.12101000  0.60787000  1
  N  N257  1  0.69344000  0.98542000  0.82462000  1
  N  N258  1  0.27499000  0.46786000  0.47400000  1
  N  N259  1  0.54971000  0.33624000  0.62954000  1
  N  N260  1  0.57739000  0.32148000  0.68501000  1
  N  N261  1  0.45664000  0.41599000  0.68507000  1
  N  N262  1  0.66651000  0.37802000  0.89203000  1
  N  N263  1  0.50505000  0.51436000  0.67481000  1
  N  N264  1  0.25581000  0.52597000  0.96755000  1
  N  N265  1  0.11311000  0.36971000  0.83618000  1
  N  N266  1  0.09985000  0.31423000  0.82144000  1
  N  N267  1  0.12721000  0.31430000  0.91605000  1
  N  N268  1  0.95468000  0.10735000  0.87864000  1
  N  N269  1  0.98228000  0.32469000  0.01433000  1
  N  N270  1  0.75029000  0.97506000  0.53200000  1
  N  N271  1  0.32001000  0.12986000  0.66357000  1
  N  N272  1  0.23719000  0.18525000  0.67825000  1
  N  N273  1  0.35763000  0.18536000  0.58374000  1
  N  N274  1  0.94062000  0.39156000  0.62167000  1
  N  N275  1  0.31986000  0.17490000  0.48536000  1
  N  N276  1  0.78081000  0.96768000  0.97507000  1
  N  N277  1  0.48197000  0.83635000  0.13063000  1
  N  N278  1  0.41350000  0.82169000  0.18604000  1
  N  N279  1  0.44102000  0.91629000  0.18601000  1
  N  N280  1  0.06092000  0.87900000  0.39213000  1
  N  N281  1  0.30655000  0.01459000  0.17539000  1
  N  N282  1  0.72501000  0.53214000  0.52600000  1
  N  N283  1  0.45030000  0.66376000  0.37046000  1
  N  N284  1  0.42261000  0.67852000  0.31499000  1
  N  N285  1  0.54337000  0.58401000  0.31493000  1
  N  N286  1  0.33349000  0.62198000  0.10797000  1
  N  N287  1  0.49494000  0.48565000  0.32519000  1
