# generated using pymatgen
data_Zn3H14C30(N3O4)3
_symmetry_space_group_name_H-M   'P 1'
_cell_length_a   12.87597000
_cell_length_b   12.87837000
_cell_length_c   14.69266000
_cell_angle_alpha   88.53255000
_cell_angle_beta   88.52885000
_cell_angle_gamma   89.31995000
_symmetry_Int_Tables_number   1
_chemical_formula_structural   Zn3H14C30(N3O4)3
_chemical_formula_sum   'Zn6 H28 C60 N18 O24'
_cell_volume   2434.60392862
_cell_formula_units_Z   2
loop_
 _symmetry_equiv_pos_site_id
 _symmetry_equiv_pos_as_xyz
  1  'x, y, z'
loop_
 _atom_site_type_symbol
 _atom_site_label
 _atom_site_symmetry_multiplicity
 _atom_site_fract_x
 _atom_site_fract_y
 _atom_site_fract_z
 _atom_site_occupancy
  Zn  Zn0  1  0.95126000  0.39398000  0.77462000  1
  Zn  Zn1  1  0.60599000  0.04886000  0.72537000  1
  Zn  Zn2  1  0.04873000  0.60602000  0.22538000  1
  Zn  Zn3  1  0.39401000  0.95115000  0.27463000  1
  Zn  Zn4  1  0.38345000  0.61647000  0.75057000  1
  Zn  Zn5  1  0.61655000  0.38354000  0.24943000  1
  H  H6  1  0.98549000  0.64823000  0.88478000  1
  H  H7  1  0.27826000  0.49693000  0.94430000  1
  H  H8  1  0.95483000  0.66458000  0.05300000  1
  H  H9  1  0.23491000  0.51690000  0.10886000  1
  H  H10  1  0.55502000  0.54585000  0.62097000  1
  H  H11  1  0.69860000  0.41715000  0.61783000  1
  H  H12  1  0.16416000  0.45820000  0.51466000  1
  H  H13  1  0.35173000  0.01450000  0.61526000  1
  H  H14  1  0.50309000  0.72180000  0.55575000  1
  H  H15  1  0.33542000  0.04515000  0.44703000  1
  H  H16  1  0.48314000  0.76514000  0.39118000  1
  H  H17  1  0.45406000  0.44483000  0.87899000  1
  H  H18  1  0.58284000  0.30135000  0.88212000  1
  H  H19  1  0.54196000  0.83601000  0.98536000  1
  H  H20  1  0.01451000  0.35178000  0.11522000  1
  H  H21  1  0.72174000  0.50308000  0.05570000  1
  H  H22  1  0.04517000  0.33543000  0.94700000  1
  H  H23  1  0.76508000  0.48311000  0.89113000  1
  H  H24  1  0.44498000  0.45416000  0.37903000  1
  H  H25  1  0.30139000  0.58285000  0.38217000  1
  H  H26  1  0.83584000  0.54181000  0.48534000  1
  H  H27  1  0.64827000  0.98551000  0.38474000  1
  H  H28  1  0.49691000  0.27821000  0.44425000  1
  H  H29  1  0.66458000  0.95485000  0.55297000  1
  H  H30  1  0.51685000  0.23487000  0.60882000  1
  H  H31  1  0.54594000  0.55518000  0.12101000  1
  H  H32  1  0.41716000  0.69865000  0.11788000  1
  H  H33  1  0.45804000  0.16400000  0.01464000  1
  C  C34  1  0.14650000  0.54661000  0.80348000  1
  C  C35  1  0.13297000  0.56739000  0.90070000  1
  C  C36  1  0.04202000  0.61741000  0.93246000  1
  C  C37  1  0.20531000  0.53343000  0.96512000  1
  C  C38  1  0.02439000  0.62658000  0.02552000  1
  C  C39  1  0.18145000  0.54466000  0.05718000  1
  C  C40  1  0.10991000  0.49378000  0.66857000  1
  C  C41  1  0.20991000  0.53352000  0.66525000  1
  C  C42  1  0.28658000  0.54474000  0.58896000  1
  C  C43  1  0.04868000  0.43916000  0.60220000  1
  C  C44  1  0.99845000  0.18109000  0.76535000  1
  C  C45  1  0.88565000  0.18952000  0.75419000  1
  C  C46  1  0.56638000  0.49280000  0.67871000  1
  C  C47  1  0.64589000  0.41879000  0.67700000  1
  C  C48  1  0.45338000  0.85351000  0.69658000  1
  C  C49  1  0.43259000  0.86704000  0.59935000  1
  C  C50  1  0.38257000  0.95798000  0.56759000  1
  C  C51  1  0.46659000  0.79473000  0.53492000  1
  C  C52  1  0.37342000  0.97561000  0.47452000  1
  C  C53  1  0.45538000  0.81860000  0.44286000  1
  C  C54  1  0.50628000  0.89020000  0.83145000  1
  C  C55  1  0.46661000  0.79019000  0.83481000  1
  C  C56  1  0.45550000  0.71355000  0.91112000  1
  C  C57  1  0.56085000  0.95148000  0.89780000  1
  C  C58  1  0.81889000  0.00158000  0.73464000  1
  C  C59  1  0.81047000  0.11436000  0.74578000  1
  C  C60  1  0.50714000  0.43350000  0.82126000  1
  C  C61  1  0.58117000  0.35404000  0.82295000  1
  C  C62  1  0.85350000  0.45340000  0.19652000  1
  C  C63  1  0.86702000  0.43262000  0.09930000  1
  C  C64  1  0.95798000  0.38260000  0.06754000  1
  C  C65  1  0.79469000  0.46658000  0.03488000  1
  C  C66  1  0.97560000  0.37343000  0.97448000  1
  C  C67  1  0.81855000  0.45535000  0.94282000  1
  C  C68  1  0.89008000  0.50623000  0.33143000  1
  C  C69  1  0.79009000  0.46649000  0.33475000  1
  C  C70  1  0.71342000  0.45526000  0.41104000  1
  C  C71  1  0.95132000  0.56084000  0.39780000  1
  C  C72  1  0.00155000  0.81892000  0.23465000  1
  C  C73  1  0.11435000  0.81049000  0.24580000  1
  C  C74  1  0.43361000  0.50721000  0.32129000  1
  C  C75  1  0.35411000  0.58122000  0.32299000  1
  C  C76  1  0.54661000  0.14650000  0.30342000  1
  C  C77  1  0.56741000  0.13297000  0.40065000  1
  C  C78  1  0.61743000  0.04203000  0.43241000  1
  C  C79  1  0.53341000  0.20527000  0.46508000  1
  C  C80  1  0.62657000  0.02440000  0.52548000  1
  C  C81  1  0.54462000  0.18141000  0.55714000  1
  C  C82  1  0.49372000  0.10981000  0.16855000  1
  C  C83  1  0.53339000  0.20982000  0.16519000  1
  C  C84  1  0.54450000  0.28646000  0.08888000  1
  C  C85  1  0.43914000  0.04853000  0.10219000  1
  C  C86  1  0.18110000  0.99843000  0.26535000  1
  C  C87  1  0.18952000  0.88565000  0.25422000  1
  C  C88  1  0.49286000  0.56650000  0.17874000  1
  C  C89  1  0.41882000  0.64597000  0.17705000  1
  C  C90  1  0.73424000  0.26577000  0.74997000  1
  C  C91  1  0.65302000  0.34696000  0.74997000  1
  C  C92  1  0.26576000  0.73424000  0.25002000  1
  C  C93  1  0.34698000  0.65305000  0.25003000  1
  N  N94  1  0.09156000  0.58824000  0.08743000  1
  N  N95  1  0.06984000  0.50345000  0.75545000  1
  N  N96  1  0.23285000  0.56585000  0.75073000  1
  N  N97  1  0.83714000  0.28475000  0.75529000  1
  N  N98  1  0.41179000  0.90845000  0.41260000  1
  N  N99  1  0.49654000  0.93021000  0.74457000  1
  N  N100  1  0.43421000  0.76718000  0.74936000  1
  N  N101  1  0.71524000  0.16288000  0.74467000  1
  N  N102  1  0.90843000  0.41177000  0.91256000  1
  N  N103  1  0.93015000  0.49656000  0.24455000  1
  N  N104  1  0.76715000  0.43416000  0.24926000  1
  N  N105  1  0.16286000  0.71526000  0.24471000  1
  N  N106  1  0.58821000  0.09155000  0.58740000  1
  N  N107  1  0.50346000  0.06980000  0.25542000  1
  N  N108  1  0.56579000  0.23283000  0.25063000  1
  N  N109  1  0.28476000  0.83712000  0.25533000  1
  N  N110  1  0.49850000  0.50141000  0.75001000  1
  N  N111  1  0.50149000  0.49860000  0.24999000  1
  O  O112  1  0.26467000  0.50609000  0.51287000  1
  O  O113  1  0.37023000  0.59231000  0.60516000  1
  O  O114  1  0.08909000  0.42329000  0.52113000  1
  O  O115  1  0.96066000  0.40671000  0.62687000  1
  O  O116  1  0.04795000  0.26484000  0.78210000  1
  O  O117  1  0.04339000  0.09387000  0.75908000  1
  O  O118  1  0.49432000  0.73533000  0.98713000  1
  O  O119  1  0.40779000  0.62988000  0.89501000  1
  O  O120  1  0.57674000  0.91106000  0.97887000  1
  O  O121  1  0.59325000  0.03951000  0.87315000  1
  O  O122  1  0.73513000  0.95209000  0.71791000  1
  O  O123  1  0.90612000  0.95664000  0.74092000  1
  O  O124  1  0.73532000  0.49392000  0.48713000  1
  O  O125  1  0.62977000  0.40770000  0.39484000  1
  O  O126  1  0.91090000  0.57672000  0.47886000  1
  O  O127  1  0.03934000  0.59329000  0.37313000  1
  O  O128  1  0.95205000  0.73517000  0.21790000  1
  O  O129  1  0.95661000  0.90614000  0.24092000  1
  O  O130  1  0.50567000  0.26467000  0.01287000  1
  O  O131  1  0.59221000  0.37013000  0.10498000  1
  O  O132  1  0.42325000  0.08894000  0.02113000  1
  O  O133  1  0.40675000  0.96050000  0.12685000  1
  O  O134  1  0.26487000  0.04792000  0.28209000  1
  O  O135  1  0.09388000  0.04336000  0.25908000  1
