# generated using pymatgen
data_H9C14N2O
_symmetry_space_group_name_H-M   'P 1'
_cell_length_a   15.67680000
_cell_length_b   27.15301410
_cell_length_c   94.06070000
_cell_angle_alpha   90.00000000
_cell_angle_beta   90.00000000
_cell_angle_gamma   90.00000000
_symmetry_Int_Tables_number   1
_chemical_formula_structural   H9C14N2O
_chemical_formula_sum   'H216 C336 N48 O24'
_cell_volume   40039.04122872
_cell_formula_units_Z   24
loop_
 _symmetry_equiv_pos_site_id
 _symmetry_equiv_pos_as_xyz
  1  'x, y, z'
loop_
 _atom_site_type_symbol
 _atom_site_label
 _atom_site_symmetry_multiplicity
 _atom_site_fract_x
 _atom_site_fract_y
 _atom_site_fract_z
 _atom_site_occupancy
  C  1  1  0.05115100  0.01038600  0.08338700  1
  C  2  1  0.53052700  0.50755600  0.06851000  1
  C  3  1  0.59253500  0.50539400  0.05755100  1
  C  6  1  0.97396800  0.04708700  0.72455500  1
  C  9  1  0.04643700  0.01943600  0.42956700  1
  C  10  1  0.07293700  0.03766900  0.45536400  1
  C  11  1  0.03965600  0.00761000  0.44439200  1
  C  13  1  0.00198900  0.02931200  0.59551100  1
  C  14  1  0.93010100  0.09128900  0.61734000  1
  C  15  1  0.92322500  0.10525400  0.60301400  1
  C  16  1  0.95906600  0.07448300  0.59244900  1
  C  18  1  0.53222400  0.49750200  0.58471900  1
  C  19  1  0.58037600  0.45400800  0.58761100  1
  C  20  1  0.61128700  0.42218400  0.57688700  1
  C  21  1  0.59574500  0.43401000  0.56259200  1
  C  26  1  0.55262800  0.50256200  0.92866100  1
  C  27  1  0.02749200  0.00743900  0.94347700  1
  C  28  1  0.08997400  0.00816800  0.95437600  1
  C  29  1  0.64185200  0.49979600  0.92571700  1
  C  33  1  0.01389200  0.01972600  0.25020600  1
  C  34  1  0.05460200  0.06560100  0.25320600  1
  C  35  1  0.03909700  0.03898000  0.22440500  1
  C  38  1  0.02011900  0.01308400  0.02123500  1
  C  39  1  0.01876600  0.05473500  0.01218500  1
  C  40  1  0.01848500  0.04949600  0.99726800  1
  C  43  1  0.01308900  0.01798900  0.03594900  1
  C  45  1  0.01480600  0.01311300  0.65771000  1
  C  46  1  0.07577200  0.03580200  0.66676600  1
  C  47  1  0.06760400  0.03274400  0.68171200  1
  C  48  1  0.02512100  0.01129000  0.64299000  1
  C  51  1  0.81648000  0.21879500  0.58915300  1
  C  52  1  0.79416800  0.24414700  0.57648300  1
  C  53  1  0.74866900  0.28892600  0.57707500  1
  C  57  1  0.86085600  0.17352400  0.58860300  1
  C  59  1  0.51639100  0.51255400  0.15744000  1
  C  60  1  0.57799900  0.48909000  0.16613700  1
  C  61  1  0.56815100  0.48632800  0.18101800  1
  C  64  1  0.52763700  0.51523500  0.14265600  1
  C  66  1  0.99405400  0.04694700  0.83355500  1
  C  67  1  0.99970600  0.04279000  0.84847400  1
  C  71  1  0.06165600  0.01665900  0.52197300  1
  C  72  1  0.12035500  0.04679800  0.51441800  1
  C  73  1  0.13204200  0.04086800  0.49961100  1
  C  74  1  0.04530300  0.02320000  0.53647600  1
  C  76  1  0.55109400  0.51038800  0.08335500  1
  C  77  1  0.03058700  0.00752000  0.06854200  1
  C  78  1  0.09260300  0.00533800  0.05758400  1
  C  81  1  0.47387000  0.54695800  0.72483300  1
  C  84  1  0.53817500  0.52205900  0.42931500  1
  C  85  1  0.56290700  0.54126900  0.45515700  1
  C  86  1  0.53092300  0.51065700  0.44416700  1
  C  88  1  0.49949400  0.52852600  0.59598600  1
  C  89  1  0.43016300  0.59035000  0.61803600  1
  C  90  1  0.42370900  0.60505500  0.60376800  1
  C  91  1  0.45892500  0.57451300  0.59310400  1
  C  93  1  0.03667400  0.99821500  0.58439300  1
  C  94  1  0.08075500  0.95347600  0.58755100  1
  C  95  1  0.11383900  0.92160100  0.57704400  1
  C  96  1  0.10399000  0.93413400  0.56268100  1
  C  101  1  0.04756600  0.00358500  0.92863900  1
  C  102  1  0.53191600  0.50635500  0.94347100  1
  C  103  1  0.59391300  0.50733100  0.95444800  1
  C  104  1  0.13660300  0.00063800  0.92557100  1
  C  108  1  0.51391600  0.51980500  0.25010400  1
  C  109  1  0.55457400  0.56568600  0.25311700  1
  C  110  1  0.53918900  0.53912900  0.22431500  1
  C  113  1  0.52001200  0.51302900  0.02119900  1
  C  114  1  0.51895800  0.55468500  0.01214800  1
  C  115  1  0.51927400  0.54945900  0.99723000  1
  C  118  1  0.51286000  0.51791600  0.03591200  1
  C  120  1  0.51509800  0.51173200  0.65809300  1
  C  121  1  0.57588300  0.53485300  0.66709000  1
  C  122  1  0.56783500  0.53208400  0.68204100  1
  C  123  1  0.52504700  0.50983200  0.64337100  1
  C  126  1  0.31698000  0.71846400  0.58990300  1
  C  127  1  0.29483700  0.74355100  0.57718300  1
  C  128  1  0.24839400  0.78798800  0.57769500  1
  C  132  1  0.36215500  0.67348900  0.58942400  1
  C  134  1  0.01629200  0.01250200  0.15749400  1
  C  135  1  0.07794200  0.98911100  0.16620100  1
  C  136  1  0.06808200  0.98637100  0.18108300  1
  C  139  1  0.02756200  0.01515300  0.14270700  1
  C  141  1  0.50206100  0.54799300  0.83348500  1
  C  142  1  0.51076400  0.54472700  0.84837700  1
  C  146  1  0.52490000  0.51596400  0.52259600  1
  C  147  1  0.59176600  0.53585100  0.51419000  1
  C  148  1  0.59087400  0.53059600  0.49923800  1
  C  149  1  0.52132200  0.52231300  0.53729400  1
  C  151  1  0.50827400  0.51319100  0.10944600  1
  C  152  1  0.93058400  0.09033100  0.72838100  1
  C  154  1  0.00683200  0.01769500  0.61038000  1
  C  155  1  0.97249900  0.04785100  0.62127900  1
  C  156  1  0.55044100  0.47668300  0.55885400  1
  C  157  1  0.51876600  0.50717700  0.56989200  1
  C  160  1  0.51999900  0.50235900  0.99079900  1
  C  161  1  0.72550400  0.31057100  0.59021100  1
  C  162  1  0.74874800  0.28554300  0.60280300  1
  C  163  1  0.79299900  0.24050700  0.60228500  1
  C  166  1  0.68043200  0.35547700  0.59103500  1
  C  169  1  0.10016000  0.99891900  0.47741100  1
  C  170  1  0.00831100  0.01318800  0.10948000  1
  C  171  1  0.43060100  0.59023200  0.72865800  1
  C  173  1  0.50410700  0.51603400  0.61078200  1
  C  174  1  0.06329800  0.97799300  0.55866700  1
  C  175  1  0.03004900  0.00897600  0.56947900  1
  C  177  1  0.01892000  0.00238800  0.99084200  1
  C  178  1  0.22389900  0.80943300  0.59079200  1
  C  179  1  0.24676500  0.78460000  0.60343000  1
  C  180  1  0.29222700  0.73997200  0.60299400  1
  C  183  1  0.17827000  0.85414300  0.59152000  1
  C  185  1  0.52405700  0.50546800  0.49211700  1
  C  186  1  0.52273700  0.49968600  0.47730300  1
  C  187  1  0.14050500  0.01131200  0.08633000  1
  C  188  1  0.08968700  0.06469700  0.42671000  1
  C  191  1  0.64044900  0.51129800  0.08629800  1
  C  192  1  0.58134100  0.56726900  0.42637900  1
  C  197  1  0.07987700  0.08303100  0.22824500  1
  C  200  1  0.57993300  0.58318300  0.22816400  1
  C  201  1  0.17915100  0.00522300  0.06140700  1
  C  202  1  0.20415600  0.00868400  0.07570300  1
  C  204  1  0.12296400  0.09582600  0.43742200  1
  C  205  1  0.11359500  0.08194400  0.45171300  1
  C  207  1  0.68048400  0.50569600  0.95064100  1
  C  208  1  0.70553800  0.50178100  0.93635100  1
  C  210  1  0.08802800  0.09687700  0.24255800  1
  C  218  1  0.67908600  0.50526500  0.06137500  1
  C  219  1  0.70410300  0.50869000  0.07567200  1
  C  221  1  0.61495900  0.59842200  0.43703500  1
  C  222  1  0.60507000  0.58493200  0.45134000  1
  C  224  1  0.17631000  0.00624000  0.95047100  1
  C  225  1  0.20060300  0.00231000  0.93615400  1
  C  227  1  0.58804200  0.59699300  0.24248100  1
  C  238  1  0.33764600  0.01199200  0.09007000  1
  C  240  1  0.18368000  0.16495300  0.42319800  1
  C  242  1  0.83904800  0.49819800  0.92197600  1
  C  244  1  0.15150300  0.16524900  0.25678900  1
  C  249  1  0.83758100  0.51198300  0.09004800  1
  C  251  1  0.67999700  0.66629700  0.42277900  1
  C  253  1  0.33408500  0.99817500  0.92177800  1
  C  255  1  0.65146500  0.66527700  0.25675000  1
  C  257  1  0.08700200  0.00445400  0.49192600  1
  C  262  1  0.53021300  0.49671400  0.86992500  1
  C  264  1  0.02138400  0.99980200  0.40346600  1
  C  267  1  0.19581200  0.21040500  0.25597600  1
  C  269  1  0.69581900  0.71042800  0.25597400  1
  C  270  1  0.56196300  0.45794500  0.32894300  1
  C  272  1  0.06194700  0.95777400  0.32903600  1
  C  276  1  0.01867900  0.99355600  0.86988300  1
  C  277  1  0.47128100  0.54629200  0.62179100  1
  C  280  1  0.98781000  0.01201000  0.09460500  1
  C  281  1  0.89847300  0.01236700  0.09161300  1
  C  282  1  0.83482000  0.01363200  0.10224300  1
  C  283  1  0.85969700  0.01488700  0.11656400  1
  C  284  1  0.44615500  0.51459000  0.12040100  1
  C  290  1  0.98719100  0.02387500  0.75036600  1
  C  291  1  0.00190200  0.01504800  0.73551900  1
  C  293  1  0.91283300  0.10109300  0.74267600  1
  C  294  1  0.94083500  0.06798700  0.75330200  1
  C  297  1  0.51622700  0.49117500  0.76184400  1
  C  298  1  0.56011400  0.44625500  0.75883900  1
  C  299  1  0.59000600  0.41374000  0.76945900  1
  C  300  1  0.57576900  0.42554300  0.78378300  1
  C  301  1  0.53318300  0.46898900  0.78766200  1
  C  302  1  0.50438200  0.50085300  0.77672100  1
  C  309  1  0.50530600  0.49081000  0.41808400  1
  C  310  1  0.51555900  0.50119900  0.40322900  1
  C  311  1  0.48483600  0.47043300  0.39221100  1
  C  312  1  0.43957300  0.42758700  0.39602900  1
  C  313  1  0.42703200  0.41491100  0.41035100  1
  C  314  1  0.45966600  0.44643600  0.42101000  1
  C  330  1  0.48934200  0.50188800  0.91745000  1
  C  331  1  0.40011800  0.49923600  0.92041700  1
  C  332  1  0.33654200  0.49987700  0.90975600  1
  C  333  1  0.36159700  0.50226400  0.89544500  1
  C  334  1  0.94097600  0.00543300  0.89177100  1
  C  335  1  0.00368700  0.00560700  0.90264000  1
  C  340  1  0.48241800  0.48800000  0.26128200  1
  C  341  1  0.49820600  0.49626100  0.27611900  1
  C  342  1  0.46784000  0.46471700  0.28701300  1
  C  343  1  0.42137900  0.42262300  0.28312100  1
  C  344  1  0.40351800  0.41225200  0.26881500  1
  C  345  1  0.43313100  0.44504700  0.25824200  1
  C  348  1  0.00781400  0.00801400  0.23536400  1
  C  353  1  0.52233200  0.46042700  0.99982400  1
  C  354  1  0.52195500  0.46593300  0.01477100  1
  C  358  1  0.51257800  0.49823800  0.97608500  1
  C  360  1  0.49911900  0.50674900  0.68849200  1
  C  361  1  0.43796400  0.48452000  0.67946600  1
  C  362  1  0.44562100  0.48712400  0.66454600  1
  C  365  1  0.49551600  0.50086400  0.70321300  1
  C  367  1  0.51218400  0.46994700  0.35354400  1
  C  368  1  0.56427800  0.44548600  0.34347000  1
  C  369  1  0.00631400  0.99482700  0.32394500  1
  C  370  1  0.95452500  0.01976100  0.33405600  1
  C  371  1  0.95849500  0.00744600  0.34867000  1
  C  375  1  0.51103600  0.45401100  0.36767800  1
  C  377  1  0.00451600  0.00558400  0.30940300  1
  C  379  1  0.11076300  0.51237300  0.08867500  1
  C  380  1  0.06202100  0.51024800  0.07605100  1
  C  381  1  0.97233300  0.51008600  0.07648900  1
  C  382  1  0.42772200  0.01229400  0.08958800  1
  C  383  1  0.47647300  0.01498300  0.10228800  1
  C  386  1  0.56638900  0.01454100  0.10177800  1
  C  390  1  0.20066600  0.51217400  0.08793200  1
  C  392  1  0.70379100  0.30242700  0.75583800  1
  C  393  1  0.73124000  0.27922000  0.74319200  1
  C  394  1  0.77635100  0.23446100  0.74358700  1
  C  395  1  0.79554200  0.21093300  0.75664700  1
  C  396  1  0.76728000  0.23386800  0.76937200  1
  C  399  1  0.72293400  0.27903800  0.76890500  1
  C  403  1  0.65909800  0.34747200  0.75513500  1
  C  405  1  0.84108400  0.16605800  0.75708200  1
  C  407  1  0.22735500  0.21035700  0.42382800  1
  C  408  1  0.24829700  0.23545400  0.41113200  1
  C  409  1  0.29232200  0.28059400  0.41143300  1
  C  410  1  0.31723400  0.30254600  0.42445200  1
  C  411  1  0.29659600  0.27734600  0.43723100  1
  C  414  1  0.25189000  0.23226700  0.43685400  1
  C  418  1  0.36160900  0.34784000  0.42479800  1
  C  427  1  0.60708800  0.99715800  0.92361500  1
  C  428  1  0.55766100  0.99736400  0.93617600  1
  C  429  1  0.46800900  0.99771400  0.93558300  1
  C  430  1  0.92916200  0.49771900  0.92243300  1
  C  431  1  0.97787700  0.49661400  0.90970600  1
  C  434  1  0.06781900  0.49713400  0.91020000  1
  C  437  1  0.69693600  0.99763300  0.92446900  1
  C  439  1  0.22031100  0.23497100  0.26857500  1
  C  440  1  0.26512900  0.27981600  0.26806800  1
  C  441  1  0.28670900  0.30218200  0.25493700  1
  C  442  1  0.26128400  0.27791600  0.24225500  1
  C  445  1  0.21748700  0.23258000  0.24284100  1
  C  449  1  0.33209500  0.34710700  0.25439800  1
  C  451  1  0.99639600  0.00731800  0.18791800  1
  C  452  1  0.93500600  0.03173000  0.17934800  1
  C  453  1  0.94518400  0.03410300  0.16442800  1
  C  457  1  0.98701100  0.00246100  0.20259500  1
  C  459  1  0.99694500  0.00493600  0.82463200  1
  C  460  1  0.51806400  0.49858500  0.85524600  1
  C  461  1  0.51543000  0.45553200  0.84669200  1
  C  462  1  0.50719400  0.45914900  0.83176000  1
  C  466  1  0.99203900  0.00988900  0.80979600  1
  C  470  1  0.03021500  0.97366500  0.49948900  1
  C  471  1  0.01722800  0.98000400  0.51421100  1
  C  477  1  0.48775300  0.51200500  0.09457200  1
  C  478  1  0.39841600  0.51235100  0.09158400  1
  C  479  1  0.33477300  0.51361800  0.10221700  1
  C  480  1  0.35967100  0.51487400  0.11653700  1
  C  481  1  0.94617500  0.01459500  0.12043400  1
  C  487  1  0.48702000  0.52370100  0.75063500  1
  C  488  1  0.50170900  0.51489600  0.73579200  1
  C  490  1  0.41291100  0.60100400  0.74295400  1
  C  491  1  0.44084200  0.56787700  0.75358200  1
  C  494  1  0.01646400  0.99149000  0.76160700  1
  C  495  1  0.06027400  0.94652700  0.75863400  1
  C  496  1  0.09008200  0.91409200  0.76928500  1
  C  497  1  0.07583800  0.92603500  0.78360000  1
  C  498  1  0.03332900  0.96953700  0.78745200  1
  C  499  1  0.00466900  0.00132300  0.77648200  1
  C  506  1  0.01178700  0.98896400  0.41830800  1
  C  508  1  0.98848000  0.96992400  0.39241600  1
  C  509  1  0.94176600  0.92756400  0.39619800  1
  C  510  1  0.93002200  0.91440900  0.41050100  1
  C  511  1  0.96480000  0.94502800  0.42119300  1
  C  527  1  0.98379000  0.00299500  0.91751300  1
  C  528  1  0.89481200  0.00000900  0.92063800  1
  C  529  1  0.83071800  0.00078600  0.91007900  1
  C  530  1  0.85472100  0.00374700  0.89573200  1
  C  531  1  0.44812700  0.50393900  0.89163000  1
  C  532  1  0.51010400  0.50425600  0.90261100  1
  C  537  1  0.98242000  0.98796200  0.26140000  1
  C  538  1  0.99815600  0.99626700  0.27624000  1
  C  539  1  0.96783900  0.96472000  0.28713900  1
  C  540  1  0.92146900  0.92258500  0.28324900  1
  C  541  1  0.90360200  0.91219200  0.26894200  1
  C  542  1  0.93317900  0.94499100  0.25836700  1
  C  545  1  0.50790200  0.50812300  0.23526300  1
  C  550  1  0.02189200  0.96046600  0.99986500  1
  C  551  1  0.02205300  0.96597900  0.01481000  1
  C  555  1  0.01055100  0.99824800  0.97614400  1
  C  557  1  0.99862900  0.00749300  0.68811700  1
  C  558  1  0.93734600  0.98564600  0.67903200  1
  C  559  1  0.94509800  0.98856200  0.66411300  1
  C  562  1  0.99491000  0.00129000  0.70283600  1
  C  564  1  0.01327300  0.96982800  0.35369700  1
  C  565  1  0.06477800  0.94527800  0.34355800  1
  C  566  1  0.50632100  0.49488700  0.32378700  1
  C  567  1  0.45396200  0.51973500  0.33383000  1
  C  568  1  0.45740200  0.50744900  0.34844700  1
  C  572  1  0.01249100  0.95376300  0.36781900  1
  C  574  1  0.50495200  0.50556700  0.30924500  1
  C  576  1  0.61082500  0.01237300  0.08869100  1
  C  577  1  0.56207900  0.01024400  0.07606700  1
  C  578  1  0.47239000  0.01008400  0.07650600  1
  C  579  1  0.92765800  0.51228800  0.08957000  1
  C  580  1  0.97640500  0.51498100  0.10227100  1
  C  583  1  0.06632600  0.51453900  0.10176100  1
  C  587  1  0.70073000  0.01217600  0.08795000  1
  C  589  1  0.20361200  0.80245100  0.75582100  1
  C  590  1  0.23122700  0.77903200  0.74321700  1
  C  591  1  0.27639000  0.73429600  0.74369100  1
  C  592  1  0.29545000  0.71098000  0.75679000  1
  C  593  1  0.26696800  0.73411200  0.76947100  1
  C  596  1  0.22258900  0.77926400  0.76892500  1
  C  600  1  0.15898000  0.84750700  0.75504300  1
  C  602  1  0.34104400  0.66612700  0.75730300  1
  C  604  1  0.72547800  0.71109800  0.42350100  1
  C  605  1  0.74815100  0.73602700  0.41086000  1
  C  606  1  0.79326100  0.78080300  0.41127500  1
  C  607  1  0.81780700  0.80247700  0.42435300  1
  C  608  1  0.79586500  0.77729700  0.43707400  1
  C  611  1  0.74990800  0.73265800  0.43658300  1
  C  615  1  0.86310200  0.84745900  0.42481900  1
  C  624  1  0.11238200  0.49764200  0.92329000  1
  C  625  1  0.06367400  0.49809800  0.93593400  1
  C  626  1  0.97396200  0.49833000  0.93551700  1
  C  627  1  0.42410600  0.99739400  0.92240800  1
  C  628  1  0.47355900  0.99633700  0.90977100  1
  C  631  1  0.56340500  0.99680500  0.91044000  1
  C  634  1  0.20232400  0.49791100  0.92401700  1
  C  636  1  0.72026800  0.73488200  0.26859500  1
  C  637  1  0.76513800  0.77971700  0.26812600  1
  C  638  1  0.78681800  0.80217800  0.25501400  1
  C  639  1  0.76143700  0.77802300  0.24231000  1
  C  642  1  0.71759000  0.73269800  0.24285800  1
  C  646  1  0.83224200  0.84709400  0.25451000  1
  C  648  1  0.49651500  0.50731700  0.18785500  1
  C  649  1  0.43516000  0.53179600  0.17929500  1
  C  650  1  0.44533200  0.53419800  0.16437700  1
  C  654  1  0.48719500  0.50248500  0.20252900  1
  C  656  1  0.50107200  0.50535700  0.82480300  1
  C  657  1  0.00760500  0.99632900  0.85516100  1
  C  658  1  0.00830600  0.95387000  0.84634000  1
  C  659  1  0.00319000  0.95838200  0.83138800  1
  C  663  1  0.49255800  0.50939700  0.81000200  1
  C  667  1  0.45861300  0.48494000  0.50065200  1
  C  668  1  0.45875500  0.49026100  0.51556500  1
  H  4  1  0.56981000  0.51290000  0.11279700  1
  H  8  1  0.05505500  0.02970600  0.40017400  1
  H  17  1  0.95291200  0.08638700  0.58228900  1
  H  22  1  0.59562700  0.44473800  0.59774100  1
  H  23  1  0.61786000  0.41105900  0.55474900  1
  H  30  1  0.06487900  0.00968700  0.89927000  1
  H  32  1  0.03528000  0.02476300  0.27954000  1
  H  36  1  0.05950000  0.07798100  0.26335100  1
  H  41  1  0.01504800  0.08058700  0.99112900  1
  H  42  1  0.01608600  0.08946900  0.01639900  1
  H  44  1  0.98355500  0.04782300  0.03960800  1
  H  49  1  0.08451400  0.00708500  0.63947600  1
  H  50  1  0.60088000  0.43911400  0.32208700  1
  H  54  1  0.73296300  0.30577300  0.56770100  1
  H  56  1  0.86890200  0.23902900  0.56079500  1
  H  58  1  0.87745500  0.15911300  0.57895900  1
  H  62  1  0.61373000  0.46828600  0.18682800  1
  H  63  1  0.63076900  0.47312900  0.16167400  1
  H  65  1  0.58116600  0.50160800  0.13859200  1
  H  68  1  0.99954000  0.07436400  0.85443200  1
  H  69  1  0.98931000  0.08144900  0.82923200  1
  H  70  1  0.98406400  0.04340300  0.80575100  1
  H  75  1  0.05760000  0.05611700  0.54059900  1
  H  79  1  0.06984700  0.01288300  0.11283300  1
  H  83  1  0.54795800  0.53153100  0.39990500  1
  H  92  1  0.45537000  0.58752100  0.58302100  1
  H  97  1  0.09045300  0.94274800  0.59773900  1
  H  98  1  0.12799200  0.91112000  0.55500300  1
  H  105  1  0.57151200  0.50823700  0.89934100  1
  H  107  1  0.53541400  0.52471400  0.27942200  1
  H  111  1  0.55938000  0.57805300  0.26326500  1
  H  116  1  0.51622000  0.58055300  0.99108600  1
  H  117  1  0.51625600  0.58941800  0.01636300  1
  H  119  1  0.48316900  0.54770600  0.03956600  1
  H  124  1  0.58448000  0.50647300  0.63979700  1
  H  125  1  0.10049200  0.93888100  0.32213700  1
  H  129  1  0.23289900  0.80468300  0.56828800  1
  H  131  1  0.37042600  0.73888500  0.56159500  1
  H  133  1  0.37896900  0.65907800  0.57979200  1
  H  137  1  0.11369100  0.96836900  0.18689700  1
  H  138  1  0.13075300  0.97317900  0.16174300  1
  H  140  1  0.08109400  0.00151900  0.13864800  1
  H  143  1  0.51274000  0.57664200  0.85417400  1
  H  144  1  0.49758800  0.58225800  0.82899900  1
  H  145  1  0.48276600  0.54262000  0.80586800  1
  H  150  1  0.54213600  0.55436800  0.54102400  1
  H  153  1  0.91061300  0.11415900  0.72060000  1
  H  158  1  0.99939800  0.03963100  0.56598400  1
  H  164  1  0.80789900  0.22381400  0.61171600  1
  H  165  1  0.73316600  0.29974500  0.61255000  1
  H  167  1  0.66525900  0.36956000  0.60079700  1
  H  168  1  0.56843200  0.47032300  0.87352600  1
  H  172  1  0.41064200  0.61405200  0.72087400  1
  H  181  1  0.30694500  0.72339900  0.61245100  1
  H  182  1  0.23031700  0.79873500  0.61314600  1
  H  184  1  0.16220700  0.86830700  0.60123300  1
  H  189  1  0.66286500  0.49515600  0.91561200  1
  H  190  1  0.11405900  0.04814900  0.68794500  1
  H  193  1  0.15719400  0.99602000  0.91543900  1
  H  194  1  0.61414100  0.54779400  0.68824100  1
  H  195  1  0.16191400  0.01415400  0.09645800  1
  H  196  1  0.09664700  0.07689800  0.41660000  1
  H  198  1  0.66186200  0.51410800  0.09642700  1
  H  199  1  0.58924200  0.57906500  0.41624300  1
  H  203  1  0.22486000  0.00327500  0.05362200  1
  H  206  1  0.13598500  0.10459600  0.45960000  1
  H  209  1  0.72621300  0.50713600  0.95843200  1
  H  211  1  0.10414000  0.10550700  0.22046200  1
  H  214  1  0.12683800  0.09244200  0.65881000  1
  H  215  1  0.17434100  0.06339900  0.49445000  1
  H  217  1  0.21610300  0.06655000  0.52519700  1
  H  220  1  0.72479500  0.50333200  0.05359100  1
  H  223  1  0.62925600  0.60737900  0.45913700  1
  H  226  1  0.22239200  0.00746400  0.95821000  1
  H  228  1  0.60420600  0.60567700  0.22038700  1
  H  231  1  0.62619500  0.59160900  0.65907100  1
  H  232  1  0.64018100  0.54546000  0.49353500  1
  H  234  1  0.69934900  0.53655500  0.52323200  1
  H  239  1  0.30761300  0.01381500  0.09969300  1
  H  241  1  0.16757300  0.15081600  0.41348600  1
  H  243  1  0.80895800  0.49756400  0.91234400  1
  H  245  1  0.13717500  0.15079100  0.26654300  1
  H  250  1  0.80753800  0.51379800  0.09967000  1
  H  252  1  0.66401900  0.65227600  0.41304500  1
  H  254  1  0.30433000  0.99772500  0.91211500  1
  H  256  1  0.63708800  0.65075200  0.26649300  1
  H  258  1  0.03443900  0.98599900  0.61378700  1
  H  259  1  0.53507900  0.48499900  0.73245000  1
  H  260  1  0.03541600  0.98518500  0.73218800  1
  H  261  1  0.98536600  0.03903200  0.30656700  1
  H  263  1  0.10719200  0.96477100  0.47376000  1
  H  265  1  0.48616500  0.53906600  0.30638900  1
  H  266  1  0.93217900  0.46221300  0.89399600  1
  H  268  1  0.42946900  0.96222300  0.89388300  1
  H  271  1  0.60439800  0.41776900  0.34660600  1
  H  273  1  0.10484400  0.91746500  0.34664400  1
  H  274  1  0.48250800  0.53610500  0.56665800  1
  H  275  1  0.05234500  0.96528000  0.87356200  1
  H  278  1  0.52903400  0.48330800  0.61398500  1
  H  279  1  0.46898100  0.50595800  0.06516800  1
  H  286  1  0.87698300  0.01209900  0.08145400  1
  H  287  1  0.81376000  0.01589900  0.12433300  1
  H  295  1  0.92564100  0.07718700  0.76342500  1
  H  303  1  0.57109100  0.43561900  0.74867800  1
  H  304  1  0.59718800  0.40203200  0.79154500  1
  H  305  1  0.97471100  0.03236900  0.77982700  1
  H  315  1  0.44804300  0.43601700  0.43116600  1
  H  316  1  0.41556400  0.40516200  0.38823700  1
  H  317  1  0.50274700  0.47900700  0.44746700  1
  H  323  1  0.90416100  0.11336000  0.62506600  1
  H  329  1  0.96624300  0.01173300  0.94679500  1
  H  336  1  0.37895400  0.49578200  0.93055700  1
  H  337  1  0.31584800  0.50284200  0.88764400  1
  H  346  1  0.41590000  0.43697500  0.24811400  1
  H  347  1  0.40037400  0.39888300  0.29085600  1
  H  349  1  0.48337500  0.47540500  0.23196800  1
  H  355  1  0.52106900  0.43496400  0.02098800  1
  H  357  1  0.58046200  0.40600900  0.99192400  1
  H  359  1  0.47806400  0.47039300  0.97232400  1
  H  363  1  0.40120500  0.46936900  0.65842100  1
  H  364  1  0.38790200  0.46524400  0.68370000  1
  H  366  1  0.46633900  0.47095200  0.70689700  1
  H  372  1  0.91892500  0.02536500  0.35561400  1
  H  374  1  0.84647300  0.03936500  0.32719500  1
  H  376  1  0.53616200  0.42107200  0.36975700  1
  H  384  1  0.94012300  0.50827800  0.06704200  1
  H  385  1  0.09142700  0.50855400  0.06634000  1
  H  387  1  0.59921000  0.01603600  0.11117300  1
  H  389  1  0.43080800  0.05147900  0.11760600  1
  H  391  1  0.22969600  0.51059100  0.07820500  1
  H  397  1  0.79506300  0.21933000  0.73412500  1
  H  398  1  0.71894100  0.29483300  0.73349400  1
  H  400  1  0.70439700  0.29463700  0.77831500  1
  H  402  1  0.73558800  0.19271300  0.78468500  1
  H  404  1  0.64689300  0.36284500  0.74542000  1
  H  406  1  0.85351300  0.15009200  0.76669500  1
  H  412  1  0.30584000  0.29723200  0.40193700  1
  H  413  1  0.23175700  0.22102700  0.40145700  1
  H  415  1  0.23780400  0.21539700  0.44629700  1
  H  417  1  0.37365900  0.28285900  0.45259800  1
  H  419  1  0.37841100  0.36247400  0.43440100  1
  H  432  1  0.43525500  0.99826300  0.94499000  1
  H  433  1  0.58651200  0.99775800  0.94594400  1
  H  435  1  0.10058300  0.49689000  0.90079000  1
  H  438  1  0.72582400  0.99784300  0.93422000  1
  H  443  1  0.28174100  0.29591400  0.27750600  1
  H  444  1  0.20622100  0.22024700  0.27832000  1
  H  446  1  0.20112500  0.21598400  0.23346100  1
  H  448  1  0.23265700  0.31743600  0.22642700  1
  H  450  1  0.34650500  0.36228200  0.24475500  1
  H  454  1  0.89962900  0.05208100  0.15860700  1
  H  456  1  0.88121400  0.08576000  0.18827500  1
  H  458  1  0.92797100  0.99702200  0.20613000  1
  H  463  1  0.50565100  0.42727800  0.82595100  1
  H  465  1  0.46488900  0.40046300  0.85561600  1
  H  472  1  0.97409500  0.95763000  0.51922600  1
  H  473  1  0.99651000  0.94689500  0.49427100  1
  H  476  1  0.96904900  0.00589700  0.06519900  1
  H  483  1  0.37690800  0.51207100  0.08142600  1
  H  484  1  0.31374900  0.51588300  0.12430900  1
  H  492  1  0.42575400  0.57711000  0.76371000  1
  H  500  1  0.07115700  0.93578400  0.74847800  1
  H  501  1  0.09707300  0.90253900  0.79138100  1
  H  502  1  0.47439600  0.53187000  0.78008000  1
  H  512  1  0.95393300  0.93420800  0.43133800  1
  H  513  1  0.91624700  0.90577600  0.38838900  1
  H  514  1  0.00935100  0.97660800  0.44773900  1
  H  520  1  0.40479100  0.61228800  0.62584500  1
  H  526  1  0.47044700  0.51034800  0.94671200  1
  H  533  1  0.87422100  0.99606400  0.93079600  1
  H  534  1  0.80846300  0.00438000  0.88801600  1
  H  543  1  0.91595300  0.93690300  0.24824200  1
  H  544  1  0.90049700  0.89883800  0.29098300  1
  H  546  1  0.98324200  0.97530100  0.23207500  1
  H  552  1  0.02143800  0.93501800  0.02103000  1
  H  554  1  0.07994100  0.90615500  0.99188200  1
  H  556  1  0.97672900  0.97004900  0.97242600  1
  H  560  1  0.90060500  0.97103600  0.65794900  1
  H  561  1  0.88711200  0.96640700  0.68322100  1
  H  563  1  0.96518900  0.97148100  0.70646800  1
  H  569  1  0.41745300  0.52532200  0.35534100  1
  H  571  1  0.34607100  0.53912500  0.32684900  1
  H  573  1  0.03661900  0.92051500  0.36981100  1
  H  581  1  0.44017300  0.00827500  0.06705900  1
  H  582  1  0.59148500  0.00854800  0.06635700  1
  H  584  1  0.09915200  0.51603000  0.11115600  1
  H  586  1  0.93080100  0.55147400  0.11759400  1
  H  588  1  0.72976600  0.01059200  0.07822500  1
  H  594  1  0.29525100  0.71902400  0.73425600  1
  H  595  1  0.21906400  0.79448900  0.73349400  1
  H  597  1  0.20391200  0.79501200  0.77830800  1
  H  599  1  0.23512600  0.69315900  0.78482100  1
  H  601  1  0.14689400  0.86274200  0.74530500  1
  H  603  1  0.35336100  0.65027300  0.76693500  1
  H  609  1  0.80783000  0.79739800  0.40181500  1
  H  610  1  0.73180100  0.72183700  0.40114700  1
  H  612  1  0.73467600  0.71588600  0.44599100  1
  H  614  1  0.87198800  0.78209600  0.45258900  1
  H  616  1  0.88005800  0.86176300  0.43445600  1
  H  629  1  0.94181200  0.49894900  0.94498200  1
  H  630  1  0.09313700  0.49860300  0.94565100  1
  H  632  1  0.59672700  0.99669400  0.90108500  1
  H  635  1  0.23137300  0.49826000  0.93375200  1
  H  640  1  0.78171500  0.79573700  0.27757600  1
  H  641  1  0.70610800  0.72008400  0.27832800  1
  H  643  1  0.70126500  0.71618400  0.23346400  1
  H  645  1  0.73294200  0.81768700  0.22650600  1
  H  647  1  0.84668900  0.86231900  0.24487400  1
  H  651  1  0.39981400  0.55222500  0.15856000  1
  H  653  1  0.38150200  0.58584900  0.18823500  1
  H  655  1  0.42818000  0.49698600  0.20606700  1
  H  660  1  0.00435600  0.92688200  0.82541000  1
  H  662  1  0.95796200  0.89721400  0.85442100  1
  H  669  1  0.40924700  0.47551200  0.52125600  1
  H  670  1  0.40906400  0.46625300  0.49604500  1
  H  672  1  0.47657500  0.47943800  0.47302300  1
  N  5  1  0.57537000  0.50159700  0.04365500  1
  N  7  1  0.98844600  0.04055400  0.71065600  1
  N  12  1  0.05923400  0.02885300  0.46911300  1
  N  24  1  0.65493100  0.37989400  0.57925400  1
  N  25  1  0.88168000  0.14814600  0.60047500  1
  N  31  1  0.07378900  0.01270000  0.96827500  1
  N  37  1  0.03685800  0.02891800  0.21049500  1
  N  80  1  0.07545500  0.00150400  0.04369100  1
  N  82  1  0.48815700  0.54028500  0.71093700  1
  N  87  1  0.55823400  0.53231900  0.46911500  1
  N  99  1  0.15574600  0.87895800  0.57965400  1
  N  100  1  0.38255600  0.64812600  0.60132000  1
  N  106  1  0.57695700  0.51180600  0.96833400  1
  N  112  1  0.53692700  0.52908200  0.21040700  1
  N  159  1  0.53760100  0.48372400  0.54494700  1
  N  176  1  0.05809100  0.98554600  0.54466200  1
  N  212  1  0.12903700  0.13996800  0.24499500  1
  N  229  1  0.62905200  0.64007500  0.24493700  1
  N  235  1  0.28933800  0.00931700  0.07818300  1
  N  236  1  0.16313200  0.13927200  0.43503400  1
  N  237  1  0.79073600  0.50053600  0.93387300  1
  N  246  1  0.78928100  0.50932000  0.07815800  1
  N  247  1  0.65723300  0.64115400  0.43459500  1
  N  248  1  0.28561900  0.00069700  0.93363600  1
  N  288  1  0.46140600  0.51620700  0.13437500  1
  N  289  1  0.74966700  0.01359100  0.09977300  1
  N  306  1  0.52342700  0.47580300  0.80164200  1
  N  307  1  0.63258900  0.37117400  0.76697500  1
  N  308  1  0.86918200  0.14332600  0.74517500  1
  N  318  1  0.38439500  0.37228900  0.41284800  1
  N  319  1  0.49776000  0.48294000  0.37854900  1
  N  328  1  0.97424200  0.03757800  0.63520400  1
  N  338  1  0.95656600  0.00902400  0.87783100  1
  N  339  1  0.25134500  0.49891600  0.91219500  1
  N  350  1  0.35922400  0.37029300  0.26628800  1
  N  351  1  0.48332600  0.46966300  0.30089900  1
  N  485  1  0.96138500  0.01620300  0.13441200  1
  N  486  1  0.24961800  0.51358100  0.09975300  1
  N  503  1  0.02295100  0.97630200  0.80142700  1
  N  504  1  0.13250100  0.87144100  0.76684400  1
  N  505  1  0.36928500  0.64325300  0.74543000  1
  N  515  1  0.88622600  0.87213700  0.41293000  1
  N  516  1  0.00093000  0.98266600  0.37875500  1
  N  525  1  0.47272500  0.53537200  0.63565700  1
  N  535  1  0.46452100  0.50736100  0.87771500  1
  N  536  1  0.74580800  0.99933100  0.91265000  1
  N  547  1  0.85932000  0.87022600  0.26641200  1
  N  548  1  0.98332000  0.96965800  0.30102800  1
  O  55  1  0.81274900  0.22560300  0.56338700  1
  O  130  1  0.31443900  0.72508200  0.56411700  1
  O  213  1  0.14562900  0.05907400  0.66139800  1
  O  216  1  0.16582500  0.08280500  0.52106100  1
  O  230  1  0.64539300  0.55832700  0.66167000  1
  O  233  1  0.65737700  0.56131800  0.52018700  1
  O  356  1  0.52112000  0.41389400  0.99443400  1
  O  373  1  0.89956500  0.05598700  0.33002300  1
  O  388  1  0.43896500  0.01642800  0.11534700  1
  O  401  1  0.78407600  0.21431000  0.78241400  1
  O  416  1  0.31694400  0.29602000  0.45024000  1
  O  436  1  0.94028600  0.49693500  0.89664800  1
  O  447  1  0.28075800  0.29620400  0.22916500  1
  O  455  1  0.86414300  0.05262900  0.18515400  1
  O  464  1  0.52257600  0.40980600  0.85251900  1
  O  553  1  0.02068700  0.91392300  0.99448100  1
  O  570  1  0.39897000  0.55584900  0.32972700  1
  O  585  1  0.93889600  0.51642100  0.11533000  1
  O  598  1  0.28359100  0.71476600  0.78254500  1
  O  613  1  0.81574700  0.79571100  0.45013400  1
  O  633  1  0.43684400  0.99689300  0.89664500  1
  O  644  1  0.78099600  0.79641100  0.22923500  1
  O  652  1  0.36435300  0.55273300  0.18510900  1
  O  661  1  0.01604700  0.90780900  0.85192000  1
