# generated using pymatgen
data_H36C47(NO)4
_symmetry_space_group_name_H-M   'P 1'
_cell_length_a   39.77610000
_cell_length_b   39.77610000
_cell_length_c   39.77610000
_cell_angle_alpha   90.00000000
_cell_angle_beta   90.00000000
_cell_angle_gamma   90.00000000
_symmetry_Int_Tables_number   1
_chemical_formula_structural   H36C47(NO)4
_chemical_formula_sum   'H288 C376 N32 O32'
_cell_volume   62931.28452082
_cell_formula_units_Z   8
loop_
 _symmetry_equiv_pos_site_id
 _symmetry_equiv_pos_as_xyz
  1  'x, y, z'
loop_
 _atom_site_type_symbol
 _atom_site_label
 _atom_site_symmetry_multiplicity
 _atom_site_fract_x
 _atom_site_fract_y
 _atom_site_fract_z
 _atom_site_occupancy
  H  25  1  0.08314000  0.89679200  0.99696600  1
  H  26  1  0.04459300  0.90561900  0.95203400  1
  H  27  1  0.95245100  0.96712600  0.89809700  1
  H  28  1  0.91379000  0.01286200  0.89526900  1
  H  29  1  0.95071700  0.05058800  0.98681100  1
  H  30  1  0.04343000  0.98013100  0.04833600  1
  H  31  1  0.95053100  0.95225500  0.01575900  1
  H  32  1  0.91368900  0.98997600  0.10733300  1
  H  33  1  0.95249900  0.03560400  0.10457300  1
  H  34  1  0.04356100  0.02237100  0.95439500  1
  H  35  1  0.04490600  0.09684700  0.05072200  1
  H  36  1  0.08356800  0.10551000  0.00584800  1
  H  39  1  0.01334900  0.95433200  0.92141500  1
  H  40  1  0.98293000  0.92932900  0.94236700  1
  H  42  1  0.98313100  0.07335700  0.06033600  1
  H  43  1  0.01345100  0.04823500  0.08128900  1
  H  45  1  0.88338200  0.05503500  0.93178100  1
  H  47  1  0.11155100  0.92462300  0.04535600  1
  H  49  1  0.88316900  0.94793900  0.07065700  1
  H  51  1  0.11195600  0.07746800  0.95740200  1
  H  76  1  0.41952100  0.10581800  0.49734400  1
  H  77  1  0.45807700  0.09710100  0.45239700  1
  H  78  1  0.55025000  0.03573100  0.39832200  1
  H  79  1  0.58897700  0.99004700  0.39544900  1
  H  80  1  0.55233900  0.95237100  0.48712200  1
  H  81  1  0.45949200  0.02259400  0.54869600  1
  H  82  1  0.55227400  0.05062400  0.51628700  1
  H  83  1  0.58907200  0.01265300  0.60778200  1
  H  84  1  0.55036300  0.96696800  0.60481600  1
  H  85  1  0.45940900  0.98050100  0.45460500  1
  H  86  1  0.45806900  0.90579300  0.55074800  1
  H  87  1  0.41945000  0.89719700  0.50582600  1
  H  90  1  0.48939400  0.04844900  0.42175600  1
  H  91  1  0.51979200  0.07352500  0.44265300  1
  H  93  1  0.51982500  0.92931400  0.56043700  1
  H  94  1  0.48946500  0.95433400  0.58145700  1
  H  96  1  0.61954500  0.94811500  0.43211100  1
  H  98  1  0.39120000  0.07795600  0.54585000  1
  H  100  1  0.61954800  0.05491200  0.57142900  1
  H  102  1  0.39107900  0.92529400  0.45741000  1
  H  127  1  0.36267300  0.83299300  0.25504300  1
  H  128  1  0.35230000  0.79774300  0.20783800  1
  H  129  1  0.28662700  0.71252800  0.14803400  1
  H  130  1  0.23740000  0.67893500  0.14104400  1
  H  131  1  0.20052500  0.71236800  0.23420900  1
  H  132  1  0.27242000  0.80098900  0.29972500  1
  H  133  1  0.30225400  0.71233700  0.26905100  1
  H  134  1  0.26540600  0.67910900  0.36229500  1
  H  135  1  0.21619900  0.71271400  0.35527100  1
  H  136  1  0.23039600  0.80092300  0.20343600  1
  H  137  1  0.15063800  0.79798900  0.29544100  1
  H  138  1  0.14029100  0.83321600  0.24821700  1
  H  141  1  0.30258600  0.77076200  0.17375400  1
  H  142  1  0.32494100  0.73891100  0.19556000  1
  H  144  1  0.17787800  0.73908200  0.30773800  1
  H  145  1  0.20030300  0.77092800  0.32947900  1
  H  147  1  0.18361700  0.65366400  0.19126600  1
  H  149  1  0.30933900  0.85384700  0.31835500  1
  H  151  1  0.31918400  0.65383200  0.31192400  1
  H  153  1  0.19358400  0.85372900  0.18467600  1
  H  178  1  0.14026500  0.16980000  0.75511900  1
  H  179  1  0.15056000  0.20480800  0.70771600  1
  H  180  1  0.21612100  0.28970700  0.64735600  1
  H  181  1  0.26526500  0.32337500  0.64018900  1
  H  182  1  0.30208100  0.29077500  0.73366700  1
  H  183  1  0.23043400  0.20227300  0.79963600  1
  H  184  1  0.20031400  0.29066200  0.76834300  1
  H  185  1  0.23706400  0.32500400  0.86121300  1
  H  186  1  0.28633800  0.29136600  0.85458600  1
  H  187  1  0.27254600  0.20190400  0.70343300  1
  H  188  1  0.35219400  0.20573400  0.79549500  1
  H  189  1  0.36273300  0.17026000  0.74849200  1
  H  192  1  0.20023600  0.23165400  0.67348700  1
  H  193  1  0.17780500  0.26361100  0.69506100  1
  H  195  1  0.32474300  0.26461600  0.80737200  1
  H  196  1  0.30236800  0.23287800  0.82932000  1
  H  198  1  0.31908600  0.34899600  0.69071900  1
  H  200  1  0.19359300  0.14917100  0.81831100  1
  H  202  1  0.18416000  0.35035900  0.81192200  1
  H  204  1  0.30958300  0.14916500  0.68500700  1
  H  229  1  0.64047800  0.18382800  0.73670400  1
  H  230  1  0.64778100  0.21669500  0.78613500  1
  H  231  1  0.70661000  0.30376500  0.85082300  1
  H  232  1  0.75195400  0.34223300  0.85875200  1
  H  233  1  0.79840200  0.30651800  0.77085700  1
  H  234  1  0.73407200  0.21649700  0.70024200  1
  H  235  1  0.70485500  0.30651600  0.73184900  1
  H  236  1  0.75149700  0.34186400  0.64390200  1
  H  237  1  0.79676000  0.30335100  0.65202700  1
  H  238  1  0.76894400  0.21662800  0.80284600  1
  H  239  1  0.85531300  0.21635000  0.71703400  1
  H  240  1  0.86250500  0.18364700  0.76659400  1
  H  243  1  0.69599300  0.24270700  0.82486000  1
  H  244  1  0.67350000  0.27426300  0.80279100  1
  H  246  1  0.82974200  0.27391800  0.70018400  1
  H  247  1  0.80720600  0.24235100  0.67817900  1
  H  249  1  0.79837900  0.37218100  0.82923200  1
  H  251  1  0.69795200  0.16505700  0.67657000  1
  H  253  1  0.70506400  0.37196700  0.67323100  1
  H  255  1  0.80501400  0.16503500  0.82659400  1
  H  280  1  0.86249800  0.81954500  0.23668800  1
  H  281  1  0.85521700  0.78678200  0.28618700  1
  H  282  1  0.79655900  0.69968200  0.35097700  1
  H  283  1  0.75127800  0.66115600  0.35896900  1
  H  284  1  0.70479000  0.69662400  0.27098900  1
  H  285  1  0.76904000  0.78654000  0.20018400  1
  H  286  1  0.79839200  0.69662900  0.23212100  1
  H  287  1  0.75203200  0.66103000  0.14413000  1
  H  288  1  0.70669800  0.69950800  0.15204500  1
  H  289  1  0.73398900  0.78660300  0.30275200  1
  H  290  1  0.64788400  0.78662600  0.21667500  1
  H  291  1  0.64053800  0.81947200  0.26611000  1
  H  294  1  0.80704800  0.76071800  0.32491900  1
  H  295  1  0.82962600  0.72917700  0.30291600  1
  H  297  1  0.67354500  0.72901300  0.20004900  1
  H  298  1  0.69611200  0.76055200  0.17803000  1
  H  300  1  0.70481300  0.63109500  0.32957200  1
  H  302  1  0.80503600  0.83789800  0.17633500  1
  H  304  1  0.79846900  0.63102700  0.17363900  1
  H  306  1  0.69793700  0.83798600  0.32648000  1
  H  331  1  0.57015900  0.38977700  0.51395700  1
  H  332  1  0.53622200  0.39746500  0.46526200  1
  H  333  1  0.45080100  0.45917500  0.40080900  1
  H  334  1  0.41522900  0.50687000  0.39198400  1
  H  335  1  0.45061700  0.55049400  0.48138700  1
  H  336  1  0.53926900  0.48367500  0.55123800  1
  H  337  1  0.45056200  0.45250300  0.52131800  1
  H  338  1  0.41511600  0.49607400  0.61072400  1
  H  339  1  0.45073800  0.54375100  0.60197700  1
  H  340  1  0.53930400  0.51933700  0.45157800  1
  H  341  1  0.53620400  0.60549200  0.53760900  1
  H  342  1  0.57016700  0.61320500  0.48893200  1
  H  345  1  0.51027400  0.44571200  0.42716600  1
  H  346  1  0.47835800  0.42436800  0.44985300  1
  H  348  1  0.47833800  0.57858100  0.55298300  1
  H  349  1  0.51024100  0.55721200  0.57566500  1
  H  351  1  0.38668200  0.55657000  0.42793500  1
  H  353  1  0.59129200  0.44736400  0.57306500  1
  H  355  1  0.38653600  0.44636400  0.57480000  1
  H  357  1  0.59129000  0.55563000  0.42976800  1
  H  382  1  0.93307500  0.61307400  0.01389800  1
  H  383  1  0.96711300  0.60524800  0.96529300  1
  H  384  1  0.05261300  0.54330100  0.90114900  1
  H  385  1  0.08811100  0.49552400  0.89247800  1
  H  386  1  0.05249100  0.45213800  0.98190400  1
  H  387  1  0.96379700  0.51924100  0.05146100  1
  H  388  1  0.05254000  0.55025000  0.02174300  1
  H  389  1  0.08777100  0.50668900  0.11123900  1
  H  390  1  0.05217200  0.45901400  0.10241400  1
  H  391  1  0.96390600  0.48343600  0.95184300  1
  H  392  1  0.96673100  0.39734400  0.03794300  1
  H  393  1  0.93282700  0.38964400  0.98922500  1
  H  396  1  0.99311200  0.55689700  0.92735800  1
  H  397  1  0.02499400  0.57825700  0.95007600  1
  H  399  1  0.02462000  0.42418200  0.05337000  1
  H  400  1  0.99271400  0.44559400  0.07600700  1
  H  402  1  0.11649400  0.44563200  0.92855300  1
  H  404  1  0.91187400  0.55561500  0.07319500  1
  H  406  1  0.11639200  0.55634900  0.07534500  1
  H  408  1  0.91192000  0.44719600  0.92994300  1
  H  414  1  0.87167200  0.80736900  0.10570900  1
  H  416  1  0.88635100  0.92553300  0.12963800  1
  H  418  1  0.84845400  0.87966600  0.20002200  1
  H  419  1  0.83905400  0.91617800  0.17684300  1
  H  420  1  0.88051900  0.90858100  0.19139600  1
  H  422  1  0.91138700  0.85423200  0.03617700  1
  H  423  1  0.88005900  0.82381400  0.04275500  1
  H  424  1  0.92070100  0.81808900  0.06025200  1
  H  434  1  0.63170400  0.19543400  0.60558500  1
  H  436  1  0.61606100  0.07755900  0.63033300  1
  H  438  1  0.65425700  0.12364800  0.70044100  1
  H  439  1  0.66327800  0.08685200  0.67756800  1
  H  440  1  0.62188900  0.09500100  0.69203600  1
  H  442  1  0.59182500  0.14836700  0.53628400  1
  H  443  1  0.62338200  0.17857500  0.54272500  1
  H  444  1  0.58273900  0.18476200  0.56006200  1
  H  454  1  0.42558700  0.60754800  0.35141500  1
  H  456  1  0.33651100  0.66449000  0.41135800  1
  H  458  1  0.38861800  0.61127900  0.46616900  1
  H  459  1  0.34525500  0.61501300  0.45732700  1
  H  460  1  0.37011900  0.65125300  0.46496500  1
  H  462  1  0.38048500  0.66954800  0.29931500  1
  H  463  1  0.39114400  0.62658200  0.29593900  1
  H  464  1  0.42157700  0.65659300  0.30871300  1
  H  474  1  0.07764400  0.39657500  0.85105900  1
  H  476  1  0.16569800  0.33734100  0.91029500  1
  H  478  1  0.11404900  0.39024700  0.96587200  1
  H  479  1  0.15738700  0.38604100  0.95714300  1
  H  480  1  0.13197300  0.35003400  0.96402600  1
  H  482  1  0.12237700  0.33522900  0.79789100  1
  H  483  1  0.11217400  0.37836300  0.79542200  1
  H  484  1  0.08135800  0.34839000  0.80734200  1
  H  494  1  0.63129600  0.80754000  0.39712000  1
  H  496  1  0.61641000  0.92563400  0.37296300  1
  H  498  1  0.65448900  0.87970200  0.30270700  1
  H  499  1  0.66375000  0.91629400  0.32581400  1
  H  500  1  0.62232600  0.90854300  0.31122700  1
  H  502  1  0.59146800  0.85447000  0.46654200  1
  H  503  1  0.62282600  0.82407500  0.46002000  1
  H  504  1  0.58218900  0.81827300  0.44253200  1
  H  514  1  0.87120700  0.19553900  0.89768200  1
  H  516  1  0.88691000  0.07768500  0.87287100  1
  H  518  1  0.84872800  0.12378600  0.80277400  1
  H  519  1  0.83969300  0.08698500  0.82563200  1
  H  520  1  0.88108900  0.09513800  0.81118800  1
  H  522  1  0.91112500  0.14845600  0.96695000  1
  H  523  1  0.87954300  0.17864500  0.96053700  1
  H  524  1  0.92017800  0.18487300  0.94319500  1
  H  534  1  0.07728800  0.60737000  0.15167700  1
  H  536  1  0.16649800  0.66435400  0.09197100  1
  H  538  1  0.11460800  0.61104800  0.03703800  1
  H  539  1  0.15793600  0.61485900  0.04600300  1
  H  540  1  0.13303900  0.65105400  0.03826600  1
  H  542  1  0.12224600  0.66936400  0.20391100  1
  H  543  1  0.11155900  0.62640100  0.20723400  1
  H  544  1  0.08117100  0.65643200  0.19439300  1
  H  554  1  0.42534600  0.39547600  0.65133600  1
  H  556  1  0.33642300  0.33845200  0.59124700  1
  H  558  1  0.38857500  0.39168200  0.53651300  1
  H  559  1  0.34520000  0.38794900  0.54529500  1
  H  560  1  0.37007900  0.35171100  0.53770500  1
  H  562  1  0.38027400  0.33333333  0.70333400  1
  H  563  1  0.39085000  0.37635200  0.70676100  1
  H  564  1  0.42135600  0.34640700  0.69400500  1
  H  574  1  0.13075000  0.17939000  0.88754100  1
  H  576  1  0.10351400  0.06405100  0.85998100  1
  H  578  1  0.14594900  0.10899000  0.79085400  1
  H  579  1  0.14962200  0.07025500  0.81187700  1
  H  580  1  0.10983000  0.08443700  0.79754700  1
  H  582  1  0.07117600  0.14759800  0.94194300  1
  H  583  1  0.11146800  0.13895800  0.95929200  1
  H  584  1  0.10363600  0.17757800  0.93929500  1
  H  594  1  0.37241500  0.82360500  0.38735600  1
  H  596  1  0.39937800  0.93908700  0.36011100  1
  H  598  1  0.35680700  0.89429600  0.29095400  1
  H  599  1  0.35314900  0.93296700  0.31210200  1
  H  600  1  0.39291700  0.91887300  0.29761100  1
  H  602  1  0.43212900  0.85530800  0.44166200  1
  H  603  1  0.39187400  0.86378300  0.45917500  1
  H  604  1  0.39973000  0.82526400  0.43900000  1
  H  614  1  0.56242800  0.38301600  0.64593300  1
  H  616  1  0.67931000  0.36664000  0.61718000  1
  H  618  1  0.63053200  0.40212600  0.54760800  1
  H  619  1  0.66796100  0.41249400  0.56885400  1
  H  620  1  0.65990600  0.37049600  0.55620300  1
  H  622  1  0.61229000  0.34629800  0.71500700  1
  H  623  1  0.58150500  0.37719400  0.70823400  1
  H  624  1  0.57518200  0.33574200  0.69298900  1
  H  634  1  0.94076300  0.62021900  0.14580500  1
  H  636  1  0.82379400  0.63645500  0.11728500  1
  H  638  1  0.87243100  0.60065000  0.04773500  1
  H  639  1  0.83503700  0.59042500  0.06910500  1
  H  640  1  0.84310400  0.63235500  0.05623300  1
  H  642  1  0.89106000  0.65720100  0.21485300  1
  H  643  1  0.92182200  0.62627100  0.20812600  1
  H  644  1  0.92812000  0.66766500  0.19271100  1
  H  654  1  0.37333200  0.17949200  0.61635800  1
  H  656  1  0.39879500  0.06355900  0.64308200  1
  H  658  1  0.35657600  0.10848500  0.71234700  1
  H  659  1  0.35234700  0.07001900  0.69092200  1
  H  660  1  0.39229600  0.08338300  0.70560000  1
  H  662  1  0.43299100  0.14740600  0.56219700  1
  H  663  1  0.39273100  0.13951800  0.54442500  1
  H  664  1  0.40094200  0.17782200  0.56486900  1
  H  674  1  0.13002600  0.82342200  0.11607200  1
  H  676  1  0.10388700  0.93922700  0.14272900  1
  H  678  1  0.14650300  0.89460500  0.21196500  1
  H  679  1  0.15031900  0.93311800  0.19055700  1
  H  680  1  0.11052700  0.91937600  0.20531000  1
  H  682  1  0.07016500  0.85511400  0.06193500  1
  H  683  1  0.11035500  0.86319400  0.04409400  1
  H  684  1  0.10238300  0.82488000  0.06461200  1
  H  694  1  0.94085900  0.38259700  0.85732900  1
  H  696  1  0.82376400  0.36675300  0.88552400  1
  H  698  1  0.87236100  0.40216900  0.95528000  1
  H  699  1  0.83507400  0.41264700  0.93383700  1
  H  700  1  0.84289800  0.37064000  0.94660400  1
  H  702  1  0.89120100  0.34587100  0.78810600  1
  H  703  1  0.92203900  0.37671400  0.79493000  1
  H  704  1  0.92818100  0.33528900  0.81033100  1
  H  714  1  0.56244600  0.61991500  0.35693300  1
  H  716  1  0.67927500  0.63665100  0.38573200  1
  H  718  1  0.63058000  0.60088600  0.45525300  1
  H  719  1  0.66808000  0.59076200  0.43402200  1
  H  720  1  0.65979600  0.63269400  0.44674600  1
  H  722  1  0.61221900  0.65681700  0.28788900  1
  H  723  1  0.58155500  0.62578800  0.29462900  1
  H  724  1  0.57505600  0.66720700  0.30989000  1
  C  1  1  0.02044400  0.03171900  0.00165800  1
  C  2  1  0.02100600  0.05401200  0.02953800  1
  C  3  1  0.97472100  0.02143800  0.05808100  1
  C  4  1  0.97434600  0.99742100  0.03164500  1
  C  5  1  0.95144100  0.96994700  0.03440100  1
  C  6  1  0.92899800  0.96680200  0.06186200  1
  C  7  1  0.92955800  0.99159800  0.08713100  1
  C  8  1  0.95241100  0.01828400  0.08552000  1
  C  9  1  0.04418400  0.08087400  0.03053900  1
  C  10  1  0.06699100  0.08591400  0.00424500  1
  C  11  1  0.06652700  0.06503700  0.97563400  1
  C  12  1  0.04321500  0.03814200  0.97470100  1
  C  13  1  0.02034300  0.97087000  0.00104300  1
  C  14  1  0.02085100  0.94856500  0.97317200  1
  C  15  1  0.97469600  0.98127500  0.94458200  1
  C  16  1  0.97439200  0.00532500  0.97099000  1
  C  17  1  0.95241100  0.98446600  0.91713100  1
  C  18  1  0.92964600  0.01122300  0.91547700  1
  C  19  1  0.92914300  0.03604700  0.94072100  1
  C  20  1  0.95157900  0.03287600  0.96819000  1
  C  21  1  0.04304500  0.96435100  0.02803900  1
  C  22  1  0.06626200  0.93736900  0.02713800  1
  C  23  1  0.06667600  0.91649000  0.99852400  1
  C  24  1  0.04391900  0.92160900  0.97220400  1
  C  37  1  0.99728700  0.00133500  0.00133300  1
  C  38  1  0.99796600  0.95230600  0.94414200  1
  C  41  1  0.99808900  0.05033100  0.05855200  1
  C  52  1  0.48249600  0.97107300  0.50186700  1
  C  53  1  0.48193500  0.94870500  0.52969000  1
  C  54  1  0.52817100  0.98125000  0.55834500  1
  C  55  1  0.52853400  0.00535500  0.53198800  1
  C  56  1  0.55137600  0.03287200  0.53486900  1
  C  57  1  0.57379200  0.03595800  0.56236500  1
  C  58  1  0.57324900  0.01106600  0.58754100  1
  C  59  1  0.55044900  0.98434500  0.58581400  1
  C  60  1  0.45878600  0.92181700  0.53060500  1
  C  61  1  0.43600600  0.91681400  0.50428000  1
  C  62  1  0.43647600  0.93775700  0.47571500  1
  C  63  1  0.45975600  0.96468200  0.47487300  1
  C  64  1  0.48252800  0.03191800  0.50139200  1
  C  65  1  0.48195000  0.05422400  0.47352300  1
  C  66  1  0.52813900  0.02159600  0.44487800  1
  C  67  1  0.52853900  0.99756900  0.47130600  1
  C  68  1  0.55036600  0.01841200  0.41737900  1
  C  69  1  0.57316100  0.99168100  0.41568900  1
  C  70  1  0.57377900  0.96689200  0.44096600  1
  C  71  1  0.55139600  0.97005700  0.46848000  1
  C  72  1  0.45981400  0.03836900  0.52839300  1
  C  73  1  0.43655100  0.06531100  0.52752500  1
  C  74  1  0.43605800  0.08618400  0.49890800  1
  C  75  1  0.45880600  0.08111400  0.47256800  1
  C  88  1  0.50562300  0.00148300  0.50164000  1
  C  89  1  0.50480600  0.05051900  0.44446300  1
  C  92  1  0.50483800  0.95232800  0.55872000  1
  C  103  1  0.22078200  0.77884000  0.25112900  1
  C  104  1  0.19677600  0.77782900  0.27755400  1
  C  105  1  0.23008200  0.73331200  0.30793900  1
  C  106  1  0.25472300  0.73313400  0.28207100  1
  C  107  1  0.28354200  0.71228200  0.28669200  1
  C  108  1  0.28834900  0.69325100  0.31632600  1
  C  109  1  0.26273100  0.69295900  0.34077000  1
  C  110  1  0.23391400  0.71267900  0.33658400  1
  C  111  1  0.16790200  0.79841400  0.27633900  1
  C  112  1  0.16169400  0.81894700  0.24849300  1
  C  113  1  0.18406600  0.81946200  0.22098300  1
  C  114  1  0.21407800  0.80047300  0.22331200  1
  C  115  1  0.28204900  0.77881400  0.25207400  1
  C  116  1  0.30607600  0.77773100  0.22567400  1
  C  117  1  0.27272900  0.73321900  0.19532200  1
  C  118  1  0.24807500  0.73310100  0.22117500  1
  C  119  1  0.26890000  0.71253100  0.16671100  1
  C  120  1  0.24007200  0.69282800  0.16254200  1
  C  121  1  0.21443500  0.69319300  0.18696600  1
  C  122  1  0.21924500  0.71225900  0.21657600  1
  C  123  1  0.28875600  0.80047800  0.27986700  1
  C  124  1  0.31881000  0.81939700  0.28221500  1
  C  125  1  0.34123300  0.81877800  0.25474800  1
  C  126  1  0.33499000  0.79826100  0.22689600  1
  C  139  1  0.25140600  0.75598400  0.25161100  1
  C  140  1  0.30271700  0.75511400  0.19639300  1
  C  143  1  0.20012800  0.75525000  0.30686300  1
  C  154  1  0.28202600  0.22433200  0.75099600  1
  C  155  1  0.30599300  0.22560000  0.77744200  1
  C  156  1  0.27252300  0.27025800  0.80746000  1
  C  157  1  0.24790100  0.27013500  0.78157700  1
  C  158  1  0.21903100  0.29096100  0.78597700  1
  C  159  1  0.21419600  0.31032200  0.81538700  1
  C  160  1  0.23979900  0.31093800  0.83983900  1
  C  161  1  0.26863600  0.29119200  0.83588900  1
  C  162  1  0.33494200  0.20510700  0.77639100  1
  C  163  1  0.34127500  0.18444900  0.74865800  1
  C  164  1  0.31893300  0.18366900  0.72113200  1
  C  165  1  0.28884700  0.20256000  0.72331600  1
  C  166  1  0.22075700  0.22416200  0.75185900  1
  C  167  1  0.19673100  0.22503200  0.72544800  1
  C  168  1  0.23000500  0.26940000  0.69481400  1
  C  169  1  0.25462800  0.26977000  0.72069700  1
  C  170  1  0.23382800  0.28987000  0.66604800  1
  C  171  1  0.26261800  0.30960800  0.66176900  1
  C  172  1  0.28819800  0.30953800  0.68625400  1
  C  173  1  0.28339900  0.29067200  0.71599500  1
  C  174  1  0.21410000  0.20263600  0.77977000  1
  C  175  1  0.18410700  0.18363300  0.78220300  1
  C  176  1  0.16167200  0.18406000  0.75474500  1
  C  177  1  0.16785400  0.20445800  0.72679300  1
  C  190  1  0.25132700  0.24708400  0.75128300  1
  C  191  1  0.20006200  0.24745600  0.69601900  1
  C  194  1  0.30253600  0.24838600  0.80658700  1
  C  205  1  0.78205800  0.23693000  0.75517200  1
  C  206  1  0.80794000  0.23700600  0.73056700  1
  C  207  1  0.77795500  0.28182000  0.69716500  1
  C  208  1  0.75137100  0.28263200  0.72096600  1
  C  209  1  0.72435200  0.30543700  0.71511500  1
  C  210  1  0.72386200  0.32734200  0.68709100  1
  C  211  1  0.75116200  0.32647500  0.66453200  1
  C  212  1  0.77759500  0.30371500  0.66921600  1
  C  213  1  0.83667800  0.21662200  0.73480300  1
  C  214  1  0.84105500  0.19762200  0.76407700  1
  C  215  1  0.81678500  0.19818300  0.78993900  1
  C  216  1  0.78675400  0.21647500  0.78429800  1
  C  217  1  0.72103400  0.23700500  0.74785100  1
  C  218  1  0.69518100  0.23721300  0.77248400  1
  C  219  1  0.72530700  0.28205600  0.80572500  1
  C  220  1  0.75186400  0.28274000  0.78188700  1
  C  221  1  0.72575500  0.30403400  0.83361100  1
  C  222  1  0.75224100  0.32675900  0.83818700  1
  C  223  1  0.77950600  0.32750800  0.81558300  1
  C  224  1  0.77893500  0.30551000  0.78763100  1
  C  225  1  0.71625400  0.21647700  0.71878800  1
  C  226  1  0.68618800  0.19821000  0.71324500  1
  C  227  1  0.66194300  0.19779600  0.73913200  1
  C  228  1  0.66639500  0.21687500  0.76834300  1
  C  241  1  0.75158000  0.25964800  0.75146600  1
  C  242  1  0.69636500  0.25893700  0.80265300  1
  C  245  1  0.80684400  0.25864500  0.70033800  1
  C  256  1  0.72102600  0.76617100  0.25509000  1
  C  257  1  0.69522700  0.76602300  0.23040400  1
  C  258  1  0.72535000  0.72115900  0.19718800  1
  C  259  1  0.75187100  0.72043300  0.22106400  1
  C  260  1  0.77893500  0.69764800  0.21533500  1
  C  261  1  0.77953600  0.67569200  0.18735100  1
  C  262  1  0.75229600  0.67647400  0.16471700  1
  C  263  1  0.72582000  0.69920900  0.16928300  1
  C  264  1  0.66647300  0.78642200  0.23449000  1
  C  265  1  0.66198800  0.80547400  0.26371400  1
  C  266  1  0.68617600  0.80499400  0.28965600  1
  C  267  1  0.71623200  0.78669600  0.28415300  1
  C  268  1  0.78205500  0.76620600  0.24787100  1
  C  269  1  0.80787700  0.76612300  0.27253600  1
  C  270  1  0.77783100  0.72127500  0.30583400  1
  C  271  1  0.75128800  0.72049300  0.28198600  1
  C  272  1  0.77741700  0.69934700  0.33375800  1
  C  273  1  0.75095900  0.67660500  0.33838400  1
  C  274  1  0.72370900  0.67575500  0.31576500  1
  C  275  1  0.72424900  0.69769000  0.28776800  1
  C  276  1  0.78682400  0.78666300  0.21875900  1
  C  277  1  0.81685000  0.80498600  0.21320800  1
  C  278  1  0.84105000  0.80555400  0.23913800  1
  C  279  1  0.83660000  0.78655300  0.26840200  1
  C  292  1  0.75155700  0.74349900  0.25150300  1
  C  293  1  0.80672600  0.74445000  0.30274000  1
  C  296  1  0.69642800  0.74431100  0.20022900  1
  C  307  1  0.51769500  0.53206600  0.49875700  1
  C  308  1  0.51663900  0.55783300  0.52346800  1
  C  309  1  0.47216800  0.52654500  0.55613300  1
  C  310  1  0.47208300  0.50029800  0.53191500  1
  C  311  1  0.45075600  0.47214300  0.53792600  1
  C  312  1  0.43007500  0.47010900  0.56673000  1
  C  313  1  0.42982800  0.49705200  0.58963300  1
  C  314  1  0.45080800  0.52485800  0.58448900  1
  C  315  1  0.53666200  0.58690300  0.51979700  1
  C  316  1  0.55639400  0.59158400  0.49105900  1
  C  317  1  0.55693000  0.56726300  0.46524400  1
  C  318  1  0.53881100  0.53706100  0.47021000  1
  C  319  1  0.51769500  0.47091300  0.50405900  1
  C  320  1  0.51665500  0.44513400  0.47936300  1
  C  321  1  0.47220300  0.47640400  0.44665500  1
  C  322  1  0.47211300  0.50267400  0.47085100  1
  C  323  1  0.45087100  0.47808100  0.41828100  1
  C  324  1  0.42991400  0.50589700  0.41309200  1
  C  325  1  0.43014800  0.53285500  0.43598000  1
  C  326  1  0.45080800  0.53083900  0.46479700  1
  C  327  1  0.53879100  0.46592800  0.53262400  1
  C  328  1  0.55691000  0.43573400  0.53761200  1
  C  329  1  0.55639200  0.41140000  0.51181200  1
  C  330  1  0.53667700  0.41606600  0.48305900  1
  C  343  1  0.49501100  0.50149000  0.50139400  1
  C  344  1  0.49439500  0.44673100  0.44960900  1
  C  347  1  0.49437000  0.55621600  0.55321400  1
  C  358  1  0.98540600  0.47071500  0.99907000  1
  C  359  1  0.98637600  0.44497100  0.02380400  1
  C  360  1  0.03084500  0.47621300  0.05652000  1
  C  361  1  0.03099400  0.50245800  0.03230000  1
  C  362  1  0.05231500  0.53061000  0.03835000  1
  C  363  1  0.07293900  0.53264200  0.06719400  1
  C  364  1  0.07312200  0.50570300  0.09010500  1
  C  365  1  0.05214600  0.47790000  0.08491900  1
  C  366  1  0.96629400  0.41593800  0.02013900  1
  C  367  1  0.94661900  0.41125200  0.99135900  1
  C  368  1  0.94617600  0.43554000  0.96551500  1
  C  369  1  0.96435600  0.46570700  0.97047500  1
  C  370  1  0.98548600  0.53187000  0.00429200  1
  C  371  1  0.98660500  0.55758900  0.97954100  1
  C  372  1  0.03110900  0.52620800  0.94700100  1
  C  373  1  0.03111300  0.49998600  0.97124700  1
  C  374  1  0.05250800  0.52444600  0.91868000  1
  C  375  1  0.07342700  0.49658200  0.91358400  1
  C  376  1  0.07309300  0.46966100  0.93651200  1
  C  377  1  0.05238800  0.47177600  0.96529300  1
  C  378  1  0.96435600  0.53695100  0.03281300  1
  C  379  1  0.94624400  0.56717000  0.03769600  1
  C  380  1  0.94683200  0.59143800  0.01183400  1
  C  381  1  0.96660600  0.58668700  0.98313100  1
  C  394  1  0.00813500  0.50125800  0.00172700  1
  C  395  1  0.00893700  0.55590700  0.94984200  1
  C  398  1  0.00861500  0.44656700  0.05357600  1
  C  409  1  0.89442700  0.88791000  0.09311000  1
  C  410  1  0.88999400  0.85311800  0.08622700  1
  C  411  1  0.87401200  0.83260100  0.11052900  1
  C  412  1  0.86220900  0.84532400  0.14161000  1
  C  413  1  0.86629200  0.88025200  0.14837700  1
  C  415  1  0.88185100  0.90082200  0.12380800  1
  C  417  1  0.85801500  0.89677200  0.18099400  1
  C  421  1  0.90127500  0.83662300  0.05456700  1
  C  425  1  0.91520500  0.90922400  0.07298300  1
  C  426  1  0.85217800  0.82159900  0.16653200  1
  C  429  1  0.60835000  0.11498100  0.59353000  1
  C  430  1  0.61308700  0.14968100  0.58638700  1
  C  431  1  0.62916900  0.17025600  0.61058000  1
  C  432  1  0.64082500  0.15766200  0.64177200  1
  C  433  1  0.63642500  0.12282600  0.64879900  1
  C  435  1  0.62073700  0.10220300  0.62436000  1
  C  437  1  0.64451800  0.10648800  0.68155000  1
  C  441  1  0.60203000  0.16602800  0.55457200  1
  C  445  1  0.58752900  0.09365100  0.57344000  1
  C  446  1  0.65091400  0.18151800  0.66655100  1
  C  449  1  0.35995200  0.65945100  0.36393200  1
  C  450  1  0.38639500  0.64290400  0.34646200  1
  C  451  1  0.40680000  0.61973100  0.36420400  1
  C  452  1  0.40216900  0.61275000  0.39880200  1
  C  453  1  0.37612300  0.62976800  0.41641800  1
  C  455  1  0.35543500  0.65251500  0.39855600  1
  C  457  1  0.36986800  0.62643900  0.45321200  1
  C  461  1  0.39514900  0.64940500  0.31064600  1
  C  465  1  0.33784100  0.68333800  0.34897100  1
  C  466  1  0.42353300  0.58841900  0.41415800  1
  C  469  1  0.14256500  0.34362300  0.86287200  1
  C  470  1  0.11644500  0.36087300  0.84559600  1
  C  471  1  0.09620900  0.38390600  0.86370200  1
  C  472  1  0.10072500  0.39012600  0.89845900  1
  C  473  1  0.12649000  0.37246500  0.91585200  1
  C  475  1  0.14698400  0.34980300  0.89765000  1
  C  477  1  0.13263200  0.37504700  0.95272300  1
  C  481  1  0.10784600  0.35526100  0.80958900  1
  C  485  1  0.16448400  0.31982500  0.84747900  1
  C  486  1  0.07951000  0.41436200  0.91418200  1
  C  489  1  0.60835800  0.88805600  0.40954200  1
  C  490  1  0.61285600  0.85328900  0.41649400  1
  C  491  1  0.62891000  0.83275600  0.39225100  1
  C  492  1  0.64072100  0.84544200  0.36115700  1
  C  493  1  0.63657800  0.88035300  0.35432600  1
  C  495  1  0.62095300  0.90094100  0.37884100  1
  C  497  1  0.64485000  0.89682300  0.32168300  1
  C  501  1  0.60159500  0.83683900  0.44818400  1
  C  505  1  0.58746100  0.90936800  0.42953900  1
  C  506  1  0.65080000  0.82167900  0.33628200  1
  C  509  1  0.89460000  0.11509200  0.90969500  1
  C  510  1  0.88984800  0.14978700  0.91685500  1
  C  511  1  0.87375600  0.17036600  0.89267200  1
  C  512  1  0.86210800  0.15778000  0.86147500  1
  C  513  1  0.86652800  0.12295000  0.85442800  1
  C  515  1  0.88222100  0.10232300  0.87885700  1
  C  517  1  0.85845500  0.10662100  0.82166400  1
  C  521  1  0.90090300  0.16612100  0.94867800  1
  C  525  1  0.91541900  0.09375700  0.92977400  1
  C  526  1  0.85198900  0.18163900  0.83671400  1
  C  529  1  0.14292300  0.65931600  0.13933000  1
  C  530  1  0.11644900  0.64274500  0.15673100  1
  C  531  1  0.09610400  0.61956100  0.13893700  1
  C  532  1  0.10083600  0.61257400  0.10435400  1
  C  533  1  0.12692500  0.62959900  0.08681100  1
  C  535  1  0.14754600  0.65236900  0.10472200  1
  C  537  1  0.13329500  0.62624800  0.05003900  1
  C  541  1  0.10760100  0.64923400  0.19252800  1
  C  545  1  0.16495600  0.68323200  0.15436800  1
  C  546  1  0.07951100  0.58824300  0.08894400  1
  C  549  1  0.35980200  0.34348500  0.63870500  1
  C  550  1  0.38619700  0.36006300  0.65621800  1
  C  551  1  0.40659600  0.38327000  0.63851400  1
  C  552  1  0.40200800  0.39025400  0.60391000  1
  C  553  1  0.37601000  0.37320900  0.58625400  1
  C  555  1  0.35531900  0.35043900  0.60408100  1
  C  557  1  0.36980500  0.37652800  0.54945100  1
  C  561  1  0.39491600  0.35354900  0.69204100  1
  C  565  1  0.33769500  0.31955900  0.65362400  1
  C  566  1  0.42335700  0.41462300  0.58858500  1
  C  569  1  0.10083600  0.10088400  0.89799700  1
  C  570  1  0.10888900  0.13477400  0.90619800  1
  C  571  1  0.12593900  0.15464500  0.88213500  1
  C  572  1  0.13524500  0.14200900  0.85025700  1
  C  573  1  0.12729800  0.10807200  0.84210100  1
  C  575  1  0.11024300  0.08816000  0.86620900  1
  C  577  1  0.13363400  0.09233900  0.80870900  1
  C  581  1  0.09821000  0.15067900  0.93838800  1
  C  585  1  0.07993800  0.08055900  0.91875500  1
  C  586  1  0.14610300  0.16569500  0.82587000  1
  C  589  1  0.40225400  0.90211500  0.39797300  1
  C  590  1  0.39426900  0.86818700  0.40609300  1
  C  591  1  0.37715600  0.84837900  0.38202100  1
  C  592  1  0.36770600  0.86112500  0.35022300  1
  C  593  1  0.37561000  0.89508800  0.34214800  1
  C  595  1  0.39271600  0.91494100  0.36626500  1
  C  597  1  0.36915600  0.91090900  0.30882100  1
  C  601  1  0.40509000  0.85217800  0.43818300  1
  C  605  1  0.42314900  0.92242100  0.41877200  1
  C  606  1  0.35688800  0.83745800  0.32578900  1
  C  609  1  0.64337400  0.36034000  0.65575100  1
  C  610  1  0.60894400  0.36519700  0.66405500  1
  C  611  1  0.58739300  0.38024300  0.64007300  1
  C  612  1  0.59884000  0.39082500  0.60809100  1
  C  613  1  0.63337000  0.38628500  0.59983000  1
  C  615  1  0.65492300  0.37151700  0.62398500  1
  C  617  1  0.64846700  0.39334900  0.56624700  1
  C  621  1  0.59387200  0.35545200  0.69691600  1
  C  625  1  0.66562300  0.34061900  0.67584800  1
  C  626  1  0.57425700  0.40076300  0.58409700  1
  C  629  1  0.85984800  0.64295100  0.15570000  1
  C  630  1  0.89428800  0.63810900  0.16396400  1
  C  631  1  0.91578400  0.62296000  0.13999200  1
  C  632  1  0.90425700  0.61223700  0.10808200  1
  C  633  1  0.86971100  0.61675700  0.09988200  1
  C  635  1  0.84821500  0.63164100  0.12401800  1
  C  637  1  0.85454300  0.60953900  0.06636500  1
  C  641  1  0.90943600  0.64797200  0.19675500  1
  C  645  1  0.83763400  0.66272000  0.17580200  1
  C  646  1  0.92881700  0.60228400  0.08406200  1
  C  649  1  0.40230200  0.10069900  0.60543600  1
  C  650  1  0.39479500  0.13477600  0.59749700  1
  C  651  1  0.37778700  0.15464400  0.62158900  1
  C  652  1  0.36804000  0.14185300  0.65327900  1
  C  653  1  0.37547200  0.10773800  0.66118100  1
  C  655  1  0.39244400  0.08781400  0.63702600  1
  C  657  1  0.36868900  0.09179800  0.69438900  1
  C  661  1  0.40597200  0.15084000  0.56555600  1
  C  665  1  0.42308100  0.08024700  0.58466300  1
  C  666  1  0.35719400  0.16546200  0.67776100  1
  C  669  1  0.10059800  0.90203900  0.10511400  1
  C  670  1  0.10833500  0.86801100  0.09716800  1
  C  671  1  0.12546300  0.84825800  0.12127300  1
  C  672  1  0.13514700  0.86114000  0.15294400  1
  C  673  1  0.12748100  0.89519800  0.16084900  1
  C  675  1  0.11037400  0.91500400  0.13669300  1
  C  677  1  0.13418600  0.91118800  0.19404600  1
  C  681  1  0.09720500  0.85183600  0.06526300  1
  C  685  1  0.07972600  0.92232800  0.08428500  1
  C  686  1  0.14592800  0.83755100  0.17747000  1
  C  689  1  0.85987300  0.36022400  0.84716000  1
  C  690  1  0.89436400  0.36492500  0.83901600  1
  C  691  1  0.91585400  0.37993700  0.86307400  1
  C  692  1  0.90429400  0.39062200  0.89498000  1
  C  693  1  0.86970300  0.38623400  0.90307500  1
  C  695  1  0.84820800  0.37151000  0.87884200  1
  C  697  1  0.85447800  0.39342700  0.93657300  1
  C  701  1  0.90956100  0.35503700  0.80625600  1
  C  705  1  0.83764600  0.34057900  0.82695900  1
  C  706  1  0.92880200  0.40049900  0.91908200  1
  C  709  1  0.64332100  0.64286300  0.34717300  1
  C  710  1  0.60891800  0.63787600  0.33883200  1
  C  711  1  0.58740100  0.62275300  0.36280100  1
  C  712  1  0.59887700  0.61218400  0.39478000  1
  C  713  1  0.63338000  0.61685500  0.40306600  1
  C  715  1  0.65489100  0.63172600  0.37894100  1
  C  717  1  0.64848200  0.60979800  0.43664900  1
  C  721  1  0.59382900  0.64757500  0.30596500  1
  C  725  1  0.66552800  0.66260100  0.32702300  1
  C  726  1  0.57429000  0.60224900  0.41876900  1
  N  44  1  0.90630600  0.06165300  0.93758300  1
  N  46  1  0.08881000  0.93068200  0.05237800  1
  N  48  1  0.90606700  0.94125100  0.06488500  1
  N  50  1  0.08918400  0.07152000  0.95044000  1
  N  95  1  0.59668200  0.94130700  0.43787900  1
  N  97  1  0.41396500  0.07188300  0.55275700  1
  N  99  1  0.59663700  0.06155000  0.56560600  1
  N  101  1  0.41384900  0.93130300  0.45048700  1
  N  146  1  0.18536800  0.67581800  0.18095500  1
  N  148  1  0.32641700  0.83833500  0.31008300  1
  N  150  1  0.31742900  0.67591600  0.32239700  1
  N  152  1  0.17644500  0.83836300  0.19309200  1
  N  197  1  0.31720600  0.32697000  0.68014200  1
  N  199  1  0.17656600  0.16479700  0.81015500  1
  N  201  1  0.18507200  0.32769400  0.82116400  1
  N  203  1  0.32665100  0.16465500  0.69333900  1
  N  248  1  0.80508400  0.34982800  0.82161200  1
  N  250  1  0.68045400  0.18049800  0.68404900  1
  N  252  1  0.69830600  0.34962000  0.68085400  1
  N  254  1  0.82245400  0.18058700  0.81921300  1
  N  299  1  0.69816100  0.65345300  0.32190400  1
  N  301  1  0.82259700  0.82259700  0.18395500  1
  N  303  1  0.80510900  0.65338500  0.18129800  1
  N  305  1  0.68038900  0.82266700  0.31886700  1
  N  350  1  0.41088200  0.56043000  0.42932800  1
  N  352  1  0.57529000  0.43007200  0.56630000  1
  N  354  1  0.41073200  0.44257000  0.57327900  1
  N  356  1  0.57533300  0.57294700  0.43657600  1
  N  401  1  0.09226500  0.44200700  0.92992800  1
  N  403  1  0.92782100  0.57292400  0.06634500  1
  N  405  1  0.09219900  0.56022100  0.07385900  1
  N  407  1  0.92783100  0.42985600  0.93680400  1
  O  427  1  0.87462300  0.79685500  0.17328100  1
  O  428  1  0.94783800  0.89979400  0.07036300  1
  O  447  1  0.62851600  0.20634100  0.67316300  1
  O  448  1  0.55497400  0.10321500  0.57046800  1
  O  467  1  0.45704600  0.59100800  0.40851700  1
  O  468  1  0.33324500  0.71262900  0.36580800  1
  O  487  1  0.04600900  0.41210900  0.90830900  1
  O  488  1  0.16850800  0.29004100  0.86358400  1
  O  507  1  0.62835700  0.79693300  0.32954000  1
  O  508  1  0.55488900  0.89985500  0.43253100  1
  O  527  1  0.87433900  0.20651200  0.83012700  1
  O  528  1  0.94798400  0.10330500  0.93271600  1
  O  547  1  0.04598200  0.59085700  0.09447100  1
  O  548  1  0.16955200  0.71251300  0.13751200  1
  O  567  1  0.45686000  0.41205100  0.59430200  1
  O  568  1  0.33314500  0.29030200  0.63671400  1
  O  587  1  0.12393100  0.19052100  0.81856200  1
  O  588  1  0.04766600  0.07712600  0.90845300  1
  O  607  1  0.37910200  0.81268400  0.31843500  1
  O  608  1  0.45541200  0.92588000  0.40846100  1
  O  627  1  0.54897000  0.37860200  0.57855300  1
  O  628  1  0.65590600  0.30846900  0.68155000  1
  O  647  1  0.95407000  0.62446500  0.07844100  1
  O  648  1  0.84730000  0.69488200  0.18148900  1
  O  667  1  0.37935100  0.19029000  0.68511500  1
  O  668  1  0.45536100  0.07687700  0.59494500  1
  O  687  1  0.12363900  0.81289000  0.18497800  1
  O  688  1  0.04759400  0.92633000  0.09479600  1
  O  707  1  0.95403500  0.37829800  0.92470600  1
  O  708  1  0.84722200  0.30832300  0.82163200  1
  O  727  1  0.54903100  0.62443800  0.42434800  1
  O  728  1  0.65577300  0.69474400  0.32137600  1
