# generated using pymatgen
data_LaH4C4O5
_symmetry_space_group_name_H-M   'P 1'
_cell_length_a   6.31858000
_cell_length_b   10.19360196
_cell_length_c   14.33273000
_cell_angle_alpha   89.65971497
_cell_angle_beta   89.95568000
_cell_angle_gamma   76.21553583
_symmetry_Int_Tables_number   1
_chemical_formula_structural   LaH4C4O5
_chemical_formula_sum   'La4 H16 C16 O20'
_cell_volume   896.55413349
_cell_formula_units_Z   4
loop_
 _symmetry_equiv_pos_site_id
 _symmetry_equiv_pos_as_xyz
  1  'x, y, z'
loop_
 _atom_site_type_symbol
 _atom_site_label
 _atom_site_symmetry_multiplicity
 _atom_site_fract_x
 _atom_site_fract_y
 _atom_site_fract_z
 _atom_site_occupancy
  La  La0  1  0.78191000  0.49532000  0.39750000  1
  La  La1  1  0.21700000  0.00670000  0.89633000  1
  La  La2  1  0.21770000  0.50864000  0.57505000  1
  La  La3  1  0.78004000  0.99803000  0.07420000  1
  H  H4  1  0.30419000  0.54382000  0.26089000  1
  H  H5  1  0.34572000  0.36493000  0.28280000  1
  H  H6  1  0.18410000  0.29887000  0.17245000  1
  H  H7  1  0.96200000  0.41074000  0.11523000  1
  H  H8  1  0.69691000  0.95514000  0.76019000  1
  H  H9  1  0.65215000  0.13447000  0.77939000  1
  H  H10  1  0.81315000  0.20502000  0.67076000  1
  H  H11  1  0.03776000  0.09699000  0.61337000  1
  H  H12  1  0.82022000  0.47473000  0.78462000  1
  H  H13  1  0.65089000  0.64155000  0.76351000  1
  H  H14  1  0.93245000  0.75465000  0.82752000  1
  H  H15  1  0.12432000  0.59774000  0.84961000  1
  H  H16  1  0.17442000  0.02754000  0.28396000  1
  H  H17  1  0.34813000  0.86221000  0.26346000  1
  H  H18  1  0.06468000  0.74452000  0.32646000  1
  H  H19  1  0.87527000  0.90223000  0.34835000  1
  C  C20  1  0.20274000  0.49082000  0.39708000  1
  C  C21  1  0.23534000  0.46533000  0.29351000  1
  C  C22  1  0.02058000  0.36469000  0.18295000  1
  C  C23  1  0.86723000  0.27858000  0.21554000  1
  C  C24  1  0.79699000  0.01109000  0.89548000  1
  C  C25  1  0.76418000  0.03476000  0.79144000  1
  C  C26  1  0.97718000  0.13974000  0.68141000  1
  C  C27  1  0.12723000  0.22678000  0.71535000  1
  C  C28  1  0.71837000  0.51539000  0.64202000  1
  C  C29  1  0.78478000  0.56118000  0.73589000  1
  C  C30  1  0.05737000  0.67321000  0.79523000  1
  C  C31  1  0.24092000  0.72998000  0.75601000  1
  C  C32  1  0.27975000  0.98957000  0.14191000  1
  C  C33  1  0.21275000  0.94170000  0.23547000  1
  C  C34  1  0.94089000  0.82717000  0.29411000  1
  C  C35  1  0.75560000  0.77261000  0.25452000  1
  O  O36  1  0.14711000  0.37502000  0.44394000  1
  O  O37  1  0.41057000  0.50643000  0.43090000  1
  O  O38  1  0.02497000  0.46905000  0.24895000  1
  O  O39  1  0.84947000  0.18302000  0.16168000  1
  O  O40  1  0.76675000  0.30605000  0.29214000  1
  O  O41  1  0.84980000  0.12867000  0.93985000  1
  O  O42  1  0.59009000  0.99406000  0.93027000  1
  O  O43  1  0.97362000  0.03201000  0.74571000  1
  O  O44  1  0.14377000  0.32363000  0.66174000  1
  O  O45  1  0.22690000  0.19916000  0.79228000  1
  O  O46  1  0.80354000  0.55631000  0.56909000  1
  O  O47  1  0.58743000  0.43973000  0.63958000  1
  O  O48  1  0.97229000  0.61270000  0.71858000  1
  O  O49  1  0.33448000  0.79372000  0.81336000  1
  O  O50  1  0.29514000  0.70665000  0.67171000  1
  O  O51  1  0.19455000  0.95040000  0.06878000  1
  O  O52  1  0.41103000  0.06502000  0.13981000  1
  O  O53  1  0.02767000  0.88812000  0.21753000  1
  O  O54  1  0.66157000  0.70671000  0.31069000  1
  O  O55  1  0.69991000  0.79966000  0.17063000  1
