# generated using pymatgen
data_Zn2H14C17N15O4
_symmetry_space_group_name_H-M   'P 1'
_cell_length_a   9.80245000
_cell_length_b   17.44217000
_cell_length_c   20.78226000
_cell_angle_alpha   90.00000000
_cell_angle_beta   89.99730000
_cell_angle_gamma   90.00000000
_symmetry_Int_Tables_number   1
_chemical_formula_structural   Zn2H14C17N15O4
_chemical_formula_sum   'Zn8 H56 C68 N60 O16'
_cell_volume   3553.26766761
_cell_formula_units_Z   4
loop_
 _symmetry_equiv_pos_site_id
 _symmetry_equiv_pos_as_xyz
  1  'x, y, z'
loop_
 _atom_site_type_symbol
 _atom_site_label
 _atom_site_symmetry_multiplicity
 _atom_site_fract_x
 _atom_site_fract_y
 _atom_site_fract_z
 _atom_site_occupancy
  Zn  Zn0  1  0.68958000  0.17522000  0.18605000  1
  Zn  Zn1  1  0.31042000  0.17522000  0.81395000  1
  Zn  Zn2  1  0.18961000  0.32480000  0.31378000  1
  Zn  Zn3  1  0.81039000  0.32480000  0.68623000  1
  Zn  Zn4  1  0.31042000  0.82478000  0.81395000  1
  Zn  Zn5  1  0.68958000  0.82478000  0.18605000  1
  Zn  Zn6  1  0.81039000  0.67521000  0.68623000  1
  Zn  Zn7  1  0.18961000  0.67521000  0.31378000  1
  H  H8  1  0.91056000  0.38959000  0.24526000  1
  H  H9  1  0.75387000  0.34230000  0.22530000  1
  H  H10  1  0.86395000  0.05155000  0.11529000  1
  H  H11  1  0.83773000  0.34144000  0.83523000  1
  H  H12  1  0.59491000  0.23279000  0.98193000  1
  H  H13  1  0.61019000  0.29830000  0.87646000  1
  H  H14  1  0.04511000  0.32014000  0.90092000  1
  H  H15  1  0.08943000  0.38959000  0.75474000  1
  H  H16  1  0.24613000  0.34230000  0.77470000  1
  H  H17  1  0.13604000  0.05155000  0.88471000  1
  H  H18  1  0.16227000  0.34144000  0.16477000  1
  H  H19  1  0.40508000  0.23279000  0.01807000  1
  H  H20  1  0.38980000  0.29830000  0.12355000  1
  H  H21  1  0.95489000  0.32014000  0.09909000  1
  H  H22  1  0.41049000  0.11039000  0.25465000  1
  H  H23  1  0.25381000  0.15774000  0.27455000  1
  H  H24  1  0.36460000  0.44844000  0.38461000  1
  H  H25  1  0.33715000  0.15875000  0.66481000  1
  H  H26  1  0.09525000  0.26760000  0.51782000  1
  H  H27  1  0.10991000  0.20193000  0.62330000  1
  H  H28  1  0.54486000  0.17953000  0.59914000  1
  H  H29  1  0.58951000  0.11039000  0.74536000  1
  H  H30  1  0.74618000  0.15774000  0.72546000  1
  H  H31  1  0.63540000  0.44844000  0.61539000  1
  H  H32  1  0.66284000  0.15875000  0.33519000  1
  H  H33  1  0.90475000  0.26760000  0.48218000  1
  H  H34  1  0.89009000  0.20193000  0.37670000  1
  H  H35  1  0.45514000  0.17953000  0.40087000  1
  H  H36  1  0.08943000  0.61041000  0.75474000  1
  H  H37  1  0.24613000  0.65771000  0.77470000  1
  H  H38  1  0.13604000  0.94846000  0.88471000  1
  H  H39  1  0.16227000  0.65856000  0.16477000  1
  H  H40  1  0.40508000  0.76721000  0.01807000  1
  H  H41  1  0.38980000  0.70171000  0.12355000  1
  H  H42  1  0.95489000  0.67986000  0.09909000  1
  H  H43  1  0.91056000  0.61041000  0.24526000  1
  H  H44  1  0.75387000  0.65771000  0.22530000  1
  H  H45  1  0.86395000  0.94846000  0.11529000  1
  H  H46  1  0.83773000  0.65856000  0.83523000  1
  H  H47  1  0.59491000  0.76721000  0.98193000  1
  H  H48  1  0.61019000  0.70171000  0.87646000  1
  H  H49  1  0.04511000  0.67986000  0.90092000  1
  H  H50  1  0.58951000  0.88961000  0.74536000  1
  H  H51  1  0.74618000  0.84226000  0.72546000  1
  H  H52  1  0.63540000  0.55156000  0.61539000  1
  H  H53  1  0.66284000  0.84126000  0.33519000  1
  H  H54  1  0.90475000  0.73241000  0.48218000  1
  H  H55  1  0.89009000  0.79808000  0.37670000  1
  H  H56  1  0.45514000  0.82047000  0.40087000  1
  H  H57  1  0.41049000  0.88961000  0.25465000  1
  H  H58  1  0.25381000  0.84226000  0.27455000  1
  H  H59  1  0.36460000  0.55156000  0.38461000  1
  H  H60  1  0.33715000  0.84126000  0.66481000  1
  H  H61  1  0.09525000  0.73241000  0.51782000  1
  H  H62  1  0.10991000  0.79808000  0.62330000  1
  H  H63  1  0.54486000  0.82047000  0.59914000  1
  C  C64  1  0.80914000  0.24074000  0.00220000  1
  C  C65  1  0.79270000  0.20004000  0.06537000  1
  C  C66  1  0.91696000  0.27275000  0.24509000  1
  C  C67  1  0.83011000  0.31207000  0.88127000  1
  C  C68  1  0.93868000  0.26521000  0.97942000  1
  C  C69  1  0.69330000  0.25226000  0.96409000  1
  C  C70  1  0.70251000  0.28819000  0.90422000  1
  C  C71  1  0.94664000  0.29981000  0.91808000  1
  C  C72  1  0.19085000  0.24074000  0.99780000  1
  C  C73  1  0.20730000  0.20004000  0.93464000  1
  C  C74  1  0.08303000  0.27275000  0.75491000  1
  C  C75  1  0.16989000  0.31207000  0.11873000  1
  C  C76  1  0.06132000  0.26521000  0.02058000  1
  C  C77  1  0.30670000  0.25226000  0.03591000  1
  C  C78  1  0.29749000  0.28819000  0.09578000  1
  C  C79  1  0.05336000  0.29981000  0.08192000  1
  C  C80  1  0.30961000  0.25927000  0.49773000  1
  C  C81  1  0.29495000  0.30008000  0.43451000  1
  C  C82  1  0.41700000  0.22724000  0.25477000  1
  C  C83  1  0.32975000  0.18791000  0.61867000  1
  C  C84  1  0.43873000  0.23448000  0.52059000  1
  C  C85  1  0.19348000  0.24790000  0.53569000  1
  C  C86  1  0.20235000  0.21194000  0.59558000  1
  C  C87  1  0.44645000  0.19989000  0.58192000  1
  C  C88  1  0.69039000  0.25927000  0.50228000  1
  C  C89  1  0.70505000  0.30008000  0.56550000  1
  C  C90  1  0.58300000  0.22724000  0.74523000  1
  C  C91  1  0.67024000  0.18791000  0.38133000  1
  C  C92  1  0.56127000  0.23448000  0.47942000  1
  C  C93  1  0.80651000  0.24790000  0.46432000  1
  C  C94  1  0.79765000  0.21194000  0.40442000  1
  C  C95  1  0.55355000  0.19989000  0.41808000  1
  C  C96  1  0.19085000  0.75927000  0.99780000  1
  C  C97  1  0.20730000  0.79997000  0.93464000  1
  C  C98  1  0.08303000  0.72725000  0.75491000  1
  C  C99  1  0.16989000  0.68793000  0.11873000  1
  C  C100  1  0.06132000  0.73480000  0.02058000  1
  C  C101  1  0.30670000  0.74774000  0.03591000  1
  C  C102  1  0.29749000  0.71181000  0.09578000  1
  C  C103  1  0.05336000  0.70020000  0.08192000  1
  C  C104  1  0.80914000  0.75927000  0.00220000  1
  C  C105  1  0.79270000  0.79997000  0.06537000  1
  C  C106  1  0.91696000  0.72725000  0.24509000  1
  C  C107  1  0.83011000  0.68793000  0.88127000  1
  C  C108  1  0.93868000  0.73480000  0.97942000  1
  C  C109  1  0.69330000  0.74774000  0.96409000  1
  C  C110  1  0.70251000  0.71181000  0.90422000  1
  C  C111  1  0.94664000  0.70020000  0.91808000  1
  C  C112  1  0.69039000  0.74073000  0.50228000  1
  C  C113  1  0.70505000  0.69993000  0.56550000  1
  C  C114  1  0.58300000  0.77276000  0.74523000  1
  C  C115  1  0.67024000  0.81210000  0.38133000  1
  C  C116  1  0.56127000  0.76552000  0.47942000  1
  C  C117  1  0.80651000  0.75210000  0.46432000  1
  C  C118  1  0.79765000  0.78807000  0.40442000  1
  C  C119  1  0.55355000  0.80012000  0.41808000  1
  C  C120  1  0.30961000  0.74073000  0.49773000  1
  C  C121  1  0.29495000  0.69993000  0.43451000  1
  C  C122  1  0.41700000  0.77276000  0.25477000  1
  C  C123  1  0.32975000  0.81210000  0.61867000  1
  C  C124  1  0.43873000  0.76552000  0.52059000  1
  C  C125  1  0.19348000  0.75210000  0.53569000  1
  C  C126  1  0.20235000  0.78807000  0.59558000  1
  C  C127  1  0.44645000  0.80012000  0.58192000  1
  C  C128  1  0.72103000  0.00000000  0.17128000  1
  C  C129  1  0.27897000  0.00000000  0.82872000  1
  C  C130  1  0.22114000  0.50000000  0.32872000  1
  C  C131  1  0.77886000  0.50000000  0.67128000  1
  N  N132  1  0.65368000  0.06311000  0.19336000  1
  N  N133  1  0.95555000  0.14933000  0.24905000  1
  N  N134  1  0.85825000  0.34065000  0.23237000  1
  N  N135  1  0.54604000  0.03734000  0.22842000  1
  N  N136  1  0.06289000  0.18438000  0.27198000  1
  N  N137  1  0.04251000  0.26180000  0.27067000  1
  N  N138  1  0.86197000  0.20292000  0.23206000  1
  N  N139  1  0.34631000  0.06311000  0.80664000  1
  N  N140  1  0.04445000  0.14933000  0.75096000  1
  N  N141  1  0.14175000  0.34065000  0.76763000  1
  N  N142  1  0.45396000  0.03734000  0.77159000  1
  N  N143  1  0.93711000  0.18438000  0.72802000  1
  N  N144  1  0.95749000  0.26180000  0.72933000  1
  N  N145  1  0.13803000  0.20292000  0.76794000  1
  N  N146  1  0.15391000  0.43690000  0.30654000  1
  N  N147  1  0.45547000  0.35066000  0.25073000  1
  N  N148  1  0.35820000  0.15936000  0.26750000  1
  N  N149  1  0.04642000  0.46267000  0.27136000  1
  N  N150  1  0.56298000  0.31561000  0.22797000  1
  N  N151  1  0.54269000  0.23819000  0.22935000  1
  N  N152  1  0.36184000  0.29708000  0.26763000  1
  N  N153  1  0.84609000  0.43690000  0.69346000  1
  N  N154  1  0.54453000  0.35066000  0.74927000  1
  N  N155  1  0.64180000  0.15936000  0.73251000  1
  N  N156  1  0.95357000  0.46267000  0.72865000  1
  N  N157  1  0.43701000  0.31561000  0.77203000  1
  N  N158  1  0.45731000  0.23819000  0.77065000  1
  N  N159  1  0.63816000  0.29708000  0.73237000  1
  N  N160  1  0.34631000  0.93689000  0.80664000  1
  N  N161  1  0.04445000  0.85067000  0.75096000  1
  N  N162  1  0.14175000  0.65935000  0.76763000  1
  N  N163  1  0.45396000  0.96266000  0.77159000  1
  N  N164  1  0.93711000  0.81562000  0.72802000  1
  N  N165  1  0.95749000  0.73821000  0.72933000  1
  N  N166  1  0.13803000  0.79709000  0.76794000  1
  N  N167  1  0.65368000  0.93689000  0.19336000  1
  N  N168  1  0.95555000  0.85067000  0.24905000  1
  N  N169  1  0.85825000  0.65935000  0.23237000  1
  N  N170  1  0.54604000  0.96266000  0.22842000  1
  N  N171  1  0.06289000  0.81562000  0.27198000  1
  N  N172  1  0.04251000  0.73821000  0.27067000  1
  N  N173  1  0.86197000  0.79709000  0.23206000  1
  N  N174  1  0.84609000  0.56311000  0.69346000  1
  N  N175  1  0.54453000  0.64935000  0.74927000  1
  N  N176  1  0.64180000  0.84064000  0.73251000  1
  N  N177  1  0.95357000  0.53733000  0.72865000  1
  N  N178  1  0.43701000  0.68440000  0.77203000  1
  N  N179  1  0.45731000  0.76181000  0.77065000  1
  N  N180  1  0.63816000  0.70293000  0.73237000  1
  N  N181  1  0.15391000  0.56311000  0.30654000  1
  N  N182  1  0.45547000  0.64935000  0.25073000  1
  N  N183  1  0.35820000  0.84064000  0.26750000  1
  N  N184  1  0.04642000  0.53733000  0.27136000  1
  N  N185  1  0.56298000  0.68440000  0.22797000  1
  N  N186  1  0.54269000  0.76181000  0.22935000  1
  N  N187  1  0.36184000  0.70293000  0.26763000  1
  N  N188  1  0.83272000  0.00000000  0.13469000  1
  N  N189  1  0.16728000  0.00000000  0.86532000  1
  N  N190  1  0.33250000  0.50000000  0.36554000  1
  N  N191  1  0.66749000  0.50000000  0.63446000  1
  O  O192  1  0.69062000  0.22316000  0.10031000  1
  O  O193  1  0.87358000  0.14765000  0.08099000  1
  O  O194  1  0.30937000  0.22316000  0.89970000  1
  O  O195  1  0.12642000  0.14765000  0.91901000  1
  O  O196  1  0.19244000  0.27752000  0.39956000  1
  O  O197  1  0.37762000  0.35165000  0.41896000  1
  O  O198  1  0.80755000  0.27752000  0.60044000  1
  O  O199  1  0.62238000  0.35165000  0.58104000  1
  O  O200  1  0.30937000  0.77684000  0.89970000  1
  O  O201  1  0.12642000  0.85235000  0.91901000  1
  O  O202  1  0.69062000  0.77684000  0.10031000  1
  O  O203  1  0.87358000  0.85235000  0.08099000  1
  O  O204  1  0.80755000  0.72248000  0.60044000  1
  O  O205  1  0.62238000  0.64835000  0.58104000  1
  O  O206  1  0.19244000  0.72248000  0.39956000  1
  O  O207  1  0.37762000  0.64835000  0.41896000  1
