# generated using pymatgen
data_TbH8C16NO7
_symmetry_space_group_name_H-M   'P 1'
_cell_length_a   14.33431000
_cell_length_b   23.30175000
_cell_length_c   26.19767000
_cell_angle_alpha   85.18137000
_cell_angle_beta   74.15461000
_cell_angle_gamma   72.11001000
_symmetry_Int_Tables_number   1
_chemical_formula_structural   TbH8C16NO7
_chemical_formula_sum   'Tb8 H64 C128 N8 O56'
_cell_volume   8010.88215965
_cell_formula_units_Z   8
loop_
 _symmetry_equiv_pos_site_id
 _symmetry_equiv_pos_as_xyz
  1  'x, y, z'
loop_
 _atom_site_type_symbol
 _atom_site_label
 _atom_site_symmetry_multiplicity
 _atom_site_fract_x
 _atom_site_fract_y
 _atom_site_fract_z
 _atom_site_occupancy
  Tb  Tb0  1  0.08180000  0.24997000  0.83312000  1
  Tb  Tb1  1  0.66648000  0.25018000  0.66724000  1
  Tb  Tb2  1  0.91793000  0.75012000  0.16710000  1
  Tb  Tb3  1  0.33365000  0.74988000  0.33365000  1
  Tb  Tb4  1  0.83145000  0.33702000  0.74954000  1
  Tb  Tb5  1  0.41942000  0.16058000  0.74981000  1
  Tb  Tb6  1  0.16760000  0.66577000  0.25005000  1
  Tb  Tb7  1  0.58156000  0.83656000  0.25027000  1
  H  H8  1  0.76611000  0.21659000  0.77620000  1
  H  H9  1  0.62502000  0.08882000  0.86734000  1
  H  H10  1  0.86521000  0.13147000  0.91181000  1
  H  H11  1  0.53212000  0.00796000  0.03894000  1
  H  H12  1  0.55666000  0.94143000  0.11648000  1
  H  H13  1  0.88011000  0.89504000  0.05267000  1
  H  H14  1  0.85696000  0.96427000  0.97634000  1
  H  H15  1  0.79623000  0.05936000  0.95718000  1
  H  H16  1  0.45847000  0.28309000  0.77587000  1
  H  H17  1  0.50731000  0.41094000  0.86754000  1
  H  H18  1  0.22293000  0.36781000  0.91111000  1
  H  H19  1  0.42960000  0.49143000  0.03853000  1
  H  H20  1  0.32859000  0.55782000  0.11636000  1
  H  H21  1  0.06788000  0.60485000  0.05332000  1
  H  H22  1  0.16603000  0.53572000  0.97680000  1
  H  H23  1  0.24644000  0.44000000  0.95716000  1
  H  H24  1  0.01635000  0.21630000  0.72367000  1
  H  H25  1  0.28534000  0.08887000  0.63280000  1
  H  H26  1  0.00284000  0.13102000  0.58791000  1
  H  H27  1  0.46000000  0.00811000  0.46140000  1
  H  H28  1  0.50221000  0.94169000  0.38379000  1
  H  H29  1  0.22512000  0.89494000  0.44745000  1
  H  H30  1  0.17894000  0.96427000  0.52379000  1
  H  H31  1  0.14469000  0.05952000  0.54230000  1
  H  H32  1  0.25933000  0.28258000  0.72385000  1
  H  H33  1  0.08211000  0.41122000  0.63276000  1
  H  H34  1  0.40965000  0.36725000  0.58848000  1
  H  H35  1  0.07869000  0.49167000  0.46186000  1
  H  H36  1  0.11327000  0.55789000  0.38399000  1
  H  H37  1  0.32720000  0.60517000  0.44686000  1
  H  H38  1  0.29809000  0.53596000  0.52345000  1
  H  H39  1  0.31364000  0.43972000  0.54241000  1
  H  H40  1  0.23117000  0.78432000  0.22413000  1
  H  H41  1  0.37575000  0.91033000  0.13259000  1
  H  H42  1  0.13404000  0.86943000  0.08800000  1
  H  H43  1  0.46789000  0.99255000  0.96134000  1
  H  H44  1  0.44251000  0.05851000  0.88345000  1
  H  H45  1  0.11923000  0.10465000  0.94786000  1
  H  H46  1  0.14313000  0.03588000  0.02447000  1
  H  H47  1  0.20407000  0.94094000  0.04279000  1
  H  H48  1  0.54370000  0.71618000  0.22419000  1
  H  H49  1  0.49194000  0.58993000  0.13226000  1
  H  H50  1  0.77790000  0.63114000  0.08852000  1
  H  H51  1  0.57014000  0.50833000  0.96143000  1
  H  H52  1  0.67201000  0.44194000  0.88370000  1
  H  H53  1  0.93194000  0.39549000  0.94735000  1
  H  H54  1  0.83287000  0.46464000  0.02379000  1
  H  H55  1  0.75312000  0.55953000  0.04284000  1
  H  H56  1  0.98456000  0.78447000  0.27637000  1
  H  H57  1  0.71403000  0.91064000  0.36745000  1
  H  H58  1  0.99638000  0.86980000  0.41242000  1
  H  H59  1  0.53847000  0.99246000  0.53882000  1
  H  H60  1  0.49818000  0.05796000  0.61691000  1
  H  H61  1  0.77511000  0.10444000  0.55266000  1
  H  H62  1  0.81995000  0.03595000  0.47584000  1
  H  H63  1  0.85379000  0.94125000  0.45770000  1
  H  H64  1  0.74004000  0.71626000  0.27633000  1
  H  H65  1  0.91818000  0.58948000  0.36798000  1
  H  H66  1  0.59120000  0.63079000  0.41185000  1
  H  H67  1  0.92230000  0.50764000  0.53828000  1
  H  H68  1  0.88621000  0.44148000  0.61613000  1
  H  H69  1  0.67229000  0.39527000  0.55234000  1
  H  H70  1  0.70331000  0.46429000  0.47570000  1
  H  H71  1  0.68816000  0.55947000  0.45780000  1
  C  C72  1  0.89593000  0.21330000  0.83613000  1
  C  C73  1  0.82089000  0.17901000  0.84443000  1
  C  C74  1  0.75924000  0.18635000  0.80990000  1
  C  C75  1  0.68951000  0.15351000  0.81826000  1
  C  C76  1  0.68057000  0.11322000  0.86071000  1
  C  C77  1  0.74482000  0.10458000  0.89454000  1
  C  C78  1  0.81465000  0.13756000  0.88617000  1
  C  C79  1  0.62540000  0.16206000  0.78037000  1
  C  C80  1  0.67238000  0.03291000  0.95786000  1
  C  C81  1  0.69245000  0.99232000  0.00354000  1
  C  C82  1  0.60819000  0.98480000  0.04276000  1
  C  C83  1  0.62188000  0.94711000  0.08594000  1
  C  C84  1  0.72003000  0.91487000  0.08964000  1
  C  C85  1  0.80455000  0.92123000  0.04981000  1
  C  C86  1  0.79097000  0.96041000  0.00745000  1
  C  C87  1  0.73520000  0.87207000  0.13464000  1
  C  C88  1  0.26951000  0.28551000  0.83519000  1
  C  C89  1  0.33515000  0.32046000  0.84389000  1
  C  C90  1  0.43136000  0.31339000  0.80952000  1
  C  C91  1  0.49240000  0.34639000  0.81800000  1
  C  C92  1  0.45871000  0.38645000  0.86065000  1
  C  C93  1  0.36059000  0.39491000  0.89438000  1
  C  C94  1  0.29928000  0.36189000  0.88568000  1
  C  C95  1  0.59399000  0.33840000  0.77984000  1
  C  C96  1  0.36939000  0.46673000  0.95780000  1
  C  C97  1  0.30402000  0.50726000  0.00354000  1
  C  C98  1  0.34962000  0.51463000  0.04263000  1
  C  C99  1  0.29331000  0.55219000  0.08601000  1
  C  C100  1  0.19138000  0.58459000  0.08997000  1
  C  C101  1  0.14623000  0.57835000  0.05025000  1
  C  C102  1  0.20157000  0.53929000  0.00774000  1
  C  C103  1  0.13150000  0.62769000  0.13485000  1
  C  C104  1  0.88950000  0.21229000  0.66392000  1
  C  C105  1  0.99905000  0.17840000  0.65551000  1
  C  C106  1  0.05336000  0.18616000  0.68993000  1
  C  C107  1  0.15599000  0.15365000  0.68161000  1
  C  C108  1  0.20545000  0.11327000  0.63924000  1
  C  C109  1  0.15008000  0.10441000  0.60537000  1
  C  C110  1  0.04716000  0.13715000  0.61366000  1
  C  C111  1  0.21177000  0.16252000  0.71935000  1
  C  C112  1  0.29445000  0.03228000  0.54266000  1
  C  C113  1  0.31527000  0.99232000  0.49663000  1
  C  C114  1  0.40707000  0.98496000  0.45748000  1
  C  C115  1  0.43116000  0.94728000  0.41423000  1
  C  C116  1  0.36548000  0.91479000  0.41053000  1
  C  C117  1  0.27444000  0.92122000  0.45029000  1
  C  C118  1  0.24872000  0.96044000  0.49264000  1
  C  C119  1  0.39326000  0.87170000  0.36571000  1
  C  C120  1  0.44563000  0.28539000  0.66387000  1
  C  C121  1  0.34463000  0.32016000  0.65570000  1
  C  C122  1  0.25570000  0.31299000  0.69027000  1
  C  C123  1  0.16163000  0.34614000  0.68190000  1
  C  C124  1  0.15524000  0.38647000  0.63943000  1
  C  C125  1  0.24475000  0.39494000  0.60556000  1
  C  C126  1  0.33905000  0.36165000  0.61397000  1
  C  C127  1  0.06757000  0.33824000  0.71979000  1
  C  C128  1  0.16349000  0.46768000  0.54290000  1
  C  C129  1  0.18874000  0.50752000  0.49666000  1
  C  C130  1  0.13571000  0.51478000  0.45762000  1
  C  C131  1  0.15435000  0.55239000  0.41424000  1
  C  C132  1  0.22371000  0.58494000  0.41029000  1
  C  C133  1  0.27533000  0.57866000  0.44991000  1
  C  C134  1  0.25930000  0.53949000  0.49237000  1
  C  C135  1  0.24024000  0.62823000  0.36552000  1
  C  C136  1  0.10072000  0.78872000  0.16375000  1
  C  C137  1  0.17720000  0.82197000  0.15560000  1
  C  C138  1  0.23894000  0.81415000  0.19019000  1
  C  C139  1  0.30975000  0.84627000  0.18187000  1
  C  C140  1  0.31973000  0.88628000  0.13924000  1
  C  C141  1  0.25541000  0.89539000  0.10536000  1
  C  C142  1  0.18465000  0.86308000  0.11370000  1
  C  C143  1  0.37321000  0.83756000  0.22026000  1
  C  C144  1  0.32793000  0.96720000  0.04240000  1
  C  C145  1  0.30762000  0.00798000  0.99692000  1
  C  C146  1  0.39168000  0.01550000  0.95754000  1
  C  C147  1  0.37751000  0.05284000  0.91419000  1
  C  C148  1  0.27916000  0.08477000  0.91052000  1
  C  C149  1  0.19491000  0.07856000  0.95064000  1
  C  C150  1  0.20892000  0.03968000  0.99315000  1
  C  C151  1  0.26393000  0.12675000  0.86500000  1
  C  C152  1  0.73394000  0.71229000  0.16475000  1
  C  C153  1  0.66666667  0.67863000  0.15593000  1
  C  C154  1  0.57031000  0.68633000  0.19028000  1
  C  C155  1  0.50824000  0.65408000  0.18176000  1
  C  C156  1  0.54108000  0.61407000  0.13913000  1
  C  C157  1  0.63936000  0.60506000  0.10542000  1
  C  C158  1  0.70155000  0.63745000  0.11404000  1
  C  C159  1  0.40667000  0.66269000  0.22025000  1
  C  C160  1  0.62974000  0.53328000  0.04230000  1
  C  C161  1  0.69531000  0.49268000  0.99667000  1
  C  C162  1  0.65013000  0.48521000  0.95746000  1
  C  C163  1  0.70687000  0.44758000  0.91421000  1
  C  C164  1  0.80870000  0.41522000  0.91052000  1
  C  C165  1  0.85352000  0.42171000  0.95030000  1
  C  C166  1  0.79778000  0.46086000  0.99270000  1
  C  C167  1  0.86861000  0.37222000  0.86559000  1
  C  C168  1  0.11046000  0.78837000  0.33633000  1
  C  C169  1  0.00083000  0.82214000  0.34476000  1
  C  C170  1  0.94686000  0.81442000  0.31016000  1
  C  C171  1  0.84410000  0.84663000  0.31831000  1
  C  C172  1  0.79406000  0.88655000  0.36093000  1
  C  C173  1  0.84918000  0.89565000  0.39486000  1
  C  C174  1  0.95235000  0.86338000  0.38662000  1
  C  C175  1  0.78946000  0.83810000  0.27986000  1
  C  C176  1  0.70405000  0.96789000  0.45740000  1
  C  C177  1  0.68341000  0.00801000  0.50331000  1
  C  C178  1  0.59187000  0.01529000  0.54268000  1
  C  C179  1  0.56882000  0.05241000  0.58617000  1
  C  C180  1  0.63525000  0.08436000  0.58981000  1
  C  C181  1  0.72567000  0.07829000  0.54975000  1
  C  C182  1  0.75047000  0.03959000  0.50717000  1
  C  C183  1  0.60886000  0.12666000  0.63500000  1
  C  C184  1  0.55382000  0.71219000  0.33625000  1
  C  C185  1  0.65500000  0.67841000  0.34458000  1
  C  C186  1  0.74353000  0.68624000  0.31015000  1
  C  C187  1  0.83794000  0.65405000  0.31859000  1
  C  C188  1  0.84507000  0.61379000  0.36105000  1
  C  C189  1  0.75595000  0.60464000  0.39476000  1
  C  C190  1  0.66131000  0.63705000  0.38635000  1
  C  C191  1  0.93088000  0.66310000  0.28043000  1
  C  C192  1  0.83827000  0.53194000  0.45705000  1
  C  C193  1  0.81271000  0.49202000  0.50304000  1
  C  C194  1  0.86523000  0.48464000  0.54227000  1
  C  C195  1  0.84573000  0.44714000  0.58558000  1
  C  C196  1  0.77593000  0.41498000  0.58918000  1
  C  C197  1  0.72465000  0.42144000  0.54939000  1
  C  C198  1  0.74171000  0.46047000  0.50698000  1
  C  C199  1  0.75819000  0.37211000  0.63403000  1
  N  N200  1  0.74366000  0.06324000  0.93681000  1
  N  N201  1  0.31935000  0.43618000  0.93680000  1
  N  N202  1  0.19299000  0.06323000  0.56301000  1
  N  N203  1  0.24454000  0.43630000  0.56324000  1
  N  N204  1  0.25677000  0.93678000  0.06317000  1
  N  N205  1  0.68010000  0.56368000  0.06318000  1
  N  N206  1  0.80564000  0.93694000  0.43714000  1
  N  N207  1  0.75697000  0.56331000  0.43700000  1
  O  O208  1  0.95906000  0.19972000  0.86457000  1
  O  O209  1  0.89791000  0.25423000  0.80001000  1
  O  O210  1  0.65372000  0.18736000  0.73641000  1
  O  O211  1  0.54552000  0.14495000  0.79324000  1
  O  O212  1  0.59767000  0.03916000  0.94074000  1
  O  O213  1  0.66223000  0.88005000  0.17719000  1
  O  O214  1  0.81951000  0.83059000  0.12737000  1
  O  O215  1  0.17676000  0.29992000  0.86203000  1
  O  O216  1  0.30661000  0.24341000  0.80019000  1
  O  O217  1  0.60879000  0.31440000  0.73535000  1
  O  O218  1  0.66165000  0.35481000  0.79283000  1
  O  O219  1  0.46111000  0.46073000  0.94060000  1
  O  O220  1  0.16191000  0.62012000  0.17740000  1
  O  O221  1  0.05459000  0.66922000  0.12738000  1
  O  O222  1  0.83904000  0.19736000  0.63678000  1
  O  O223  1  0.84743000  0.25441000  0.69899000  1
  O  O224  1  0.15870000  0.18818000  0.76331000  1
  O  O225  1  0.30883000  0.14504000  0.70625000  1
  O  O226  1  0.36265000  0.03722000  0.56074000  1
  O  O227  1  0.45683000  0.88013000  0.32270000  1
  O  O228  1  0.35201000  0.82938000  0.37366000  1
  O  O229  1  0.52345000  0.30012000  0.63675000  1
  O  O230  1  0.45213000  0.24306000  0.69868000  1
  O  O231  1  0.07550000  0.31455000  0.76452000  1
  O  O232  1  0.98410000  0.35454000  0.70613000  1
  O  O233  1  0.07706000  0.46304000  0.56100000  1
  O  O234  1  0.21930000  0.62006000  0.32253000  1
  O  O235  1  0.27351000  0.67055000  0.37359000  1
  O  O236  1  0.03764000  0.80286000  0.13534000  1
  O  O237  1  0.09752000  0.74772000  0.19990000  1
  O  O238  1  0.34307000  0.81316000  0.26447000  1
  O  O239  1  0.45372000  0.85414000  0.20753000  1
  O  O240  1  0.40274000  0.96077000  0.05948000  1
  O  O241  1  0.33680000  0.11749000  0.82236000  1
  O  O242  1  0.18003000  0.16861000  0.87193000  1
  O  O243  1  0.82640000  0.69740000  0.13775000  1
  O  O244  1  0.69875000  0.75420000  0.20004000  1
  O  O245  1  0.39348000  0.68567000  0.26497000  1
  O  O246  1  0.33774000  0.64772000  0.20711000  1
  O  O247  1  0.53794000  0.53950000  0.05947000  1
  O  O248  1  0.83841000  0.38023000  0.82297000  1
  O  O249  1  0.94526000  0.33041000  0.87293000  1
  O  O250  1  0.16094000  0.80293000  0.36358000  1
  O  O251  1  0.15278000  0.74635000  0.30112000  1
  O  O252  1  0.84396000  0.81421000  0.23553000  1
  O  O253  1  0.69237000  0.85423000  0.29271000  1
  O  O254  1  0.63569000  0.96270000  0.43957000  1
  O  O255  1  0.54646000  0.11728000  0.67813000  1
  O  O256  1  0.64992000  0.16898000  0.62736000  1
  O  O257  1  0.47650000  0.69721000  0.36358000  1
  O  O258  1  0.54649000  0.75428000  0.30112000  1
  O  O259  1  0.92104000  0.68612000  0.23573000  1
  O  O260  1  0.01447000  0.64852000  0.29377000  1
  O  O261  1  0.92469000  0.53665000  0.43898000  1
  O  O262  1  0.78039000  0.38004000  0.67672000  1
  O  O263  1  0.72255000  0.33070000  0.62649000  1
