# generated using pymatgen
data_Ca4H57(C33O10)2
_symmetry_space_group_name_H-M   'P 1'
_cell_length_a   15.20601000
_cell_length_b   20.10314000
_cell_length_c   20.37299000
_cell_angle_alpha   117.09956000
_cell_angle_beta   96.28637000
_cell_angle_gamma   103.60961000
_symmetry_Int_Tables_number   1
_chemical_formula_structural   Ca4H57(C33O10)2
_chemical_formula_sum   'Ca8 H114 C132 O40'
_cell_volume   5216.68951328
_cell_formula_units_Z   2
loop_
 _symmetry_equiv_pos_site_id
 _symmetry_equiv_pos_as_xyz
  1  'x, y, z'
loop_
 _atom_site_type_symbol
 _atom_site_label
 _atom_site_symmetry_multiplicity
 _atom_site_fract_x
 _atom_site_fract_y
 _atom_site_fract_z
 _atom_site_occupancy
  Ca  Ca0  1  0.13890000  0.12724000  0.76595000  1
  Ca  Ca1  1  0.92181000  0.18135000  0.80283000  1
  Ca  Ca2  1  0.32431000  0.16485000  0.89729000  1
  Ca  Ca3  1  0.52980000  0.15191000  0.86827000  1
  Ca  Ca4  1  0.86109000  0.87276000  0.23405000  1
  Ca  Ca5  1  0.07818000  0.81865000  0.19717000  1
  Ca  Ca6  1  0.67568000  0.83515000  0.10271000  1
  Ca  Ca7  1  0.47020000  0.84809000  0.13173000  1
  H  H8  1  0.68214000  0.63021000  0.72207000  1
  H  H9  1  0.73631000  0.56493000  0.72925000  1
  H  H10  1  0.61651000  0.55003000  0.72997000  1
  H  H11  1  0.62630000  0.50990000  0.38672000  1
  H  H12  1  0.73168000  0.57117000  0.45725000  1
  H  H13  1  0.63042000  0.59976000  0.46479000  1
  H  H14  1  0.49324000  0.28269000  0.50225000  1
  H  H15  1  0.51754000  0.27151000  0.41509000  1
  H  H16  1  0.42055000  0.30045000  0.44275000  1
  H  H17  1  0.79097000  0.64032000  0.65950000  1
  H  H18  1  0.78163000  0.63127000  0.56821000  1
  H  H19  1  0.65861000  0.82089000  0.69493000  1
  H  H20  1  0.75742000  0.95590000  0.72710000  1
  H  H21  1  0.97648000  0.86460000  0.64980000  1
  H  H22  1  0.87856000  0.73038000  0.61326000  1
  H  H23  1  0.45698000  0.34262000  0.36224000  1
  H  H24  1  0.52114000  0.42149000  0.35177000  1
  H  H25  1  0.68325000  0.25668000  0.26127000  1
  H  H26  1  0.66093000  0.19320000  0.11985000  1
  H  H27  1  0.41995000  0.26632000  0.10205000  1
  H  H28  1  0.44121000  0.32968000  0.24111000  1
  H  H29  1  0.58768000  0.34057000  0.60190000  1
  H  H30  1  0.62455000  0.43362000  0.68610000  1
  H  H31  1  0.59498000  0.33221000  0.70650000  1
  H  H32  1  0.54542000  0.26742000  0.78000000  1
  H  H33  1  0.27127000  0.28722000  0.74101000  1
  H  H34  1  0.32020000  0.35271000  0.66617000  1
  H  H35  1  0.97221000  0.30120000  0.27275000  1
  H  H36  1  0.90990000  0.32419000  0.34480000  1
  H  H37  1  0.00222000  0.28673000  0.34992000  1
  H  H38  1  0.22233000  0.63645000  0.38703000  1
  H  H39  1  0.11838000  0.57841000  0.31464000  1
  H  H40  1  0.21808000  0.54723000  0.30687000  1
  H  H41  1  0.23010000  0.61164000  0.61735000  1
  H  H42  1  0.19888000  0.51425000  0.60089000  1
  H  H43  1  0.11477000  0.56319000  0.61381000  1
  H  H44  1  0.03103000  0.44569000  0.55493000  1
  H  H45  1  0.96645000  0.36128000  0.46694000  1
  H  H46  1  0.95892000  0.36630000  0.58406000  1
  H  H47  1  0.93496000  0.30549000  0.66570000  1
  H  H48  1  0.15792000  0.21108000  0.60864000  1
  H  H49  1  0.18483000  0.27317000  0.52726000  1
  H  H50  1  0.97851000  0.38302000  0.23515000  1
  H  H51  1  0.07512000  0.45438000  0.23762000  1
  H  H52  1  0.19028000  0.25753000  0.17310000  1
  H  H53  1  0.20061000  0.18904000  0.03879000  1
  H  H54  1  0.01602000  0.29850000  0.98101000  1
  H  H55  1  0.00630000  0.36647000  0.11402000  1
  H  H56  1  0.28678000  0.65622000  0.56630000  1
  H  H57  1  0.29079000  0.66540000  0.48476000  1
  H  H58  1  0.08844000  0.79017000  0.56123000  1
  H  H59  1  0.13632000  0.93099000  0.66328000  1
  H  H60  1  0.40932000  0.92094000  0.73103000  1
  H  H61  1  0.36165000  0.78073000  0.63024000  1
  H  H62  1  0.82920000  0.21106000  0.92522000  1
  H  H63  1  0.74045000  0.20761000  0.86136000  1
  H  H64  1  0.66722000  0.25994000  0.85022000  1
  H  H65  1  0.31785000  0.36979000  0.27793000  1
  H  H66  1  0.26369000  0.43507000  0.27075000  1
  H  H67  1  0.38348000  0.44997000  0.27003000  1
  H  H68  1  0.37369000  0.49010000  0.61328000  1
  H  H69  1  0.26831000  0.42883000  0.54275000  1
  H  H70  1  0.36958000  0.40024000  0.53520000  1
  H  H71  1  0.50676000  0.71731000  0.49775000  1
  H  H72  1  0.48245000  0.72849000  0.58491000  1
  H  H73  1  0.57944000  0.69955000  0.55724000  1
  H  H74  1  0.20902000  0.35968000  0.34050000  1
  H  H75  1  0.21836000  0.36873000  0.43179000  1
  H  H76  1  0.34138000  0.17911000  0.30507000  1
  H  H77  1  0.24257000  0.04410000  0.27289000  1
  H  H78  1  0.02352000  0.13540000  0.35020000  1
  H  H79  1  0.12143000  0.26962000  0.38674000  1
  H  H80  1  0.54301000  0.65737000  0.63776000  1
  H  H81  1  0.47886000  0.57851000  0.64823000  1
  H  H82  1  0.31674000  0.74332000  0.73872000  1
  H  H83  1  0.33906000  0.80680000  0.88014000  1
  H  H84  1  0.58005000  0.73368000  0.89794000  1
  H  H85  1  0.55879000  0.67032000  0.75889000  1
  H  H86  1  0.41231000  0.65943000  0.39810000  1
  H  H87  1  0.37545000  0.56638000  0.31390000  1
  H  H88  1  0.40502000  0.66779000  0.29350000  1
  H  H89  1  0.45457000  0.73258000  0.22000000  1
  H  H90  1  0.72872000  0.71278000  0.25899000  1
  H  H91  1  0.67979000  0.64729000  0.33383000  1
  H  H92  1  0.02778000  0.69880000  0.72724000  1
  H  H93  1  0.09010000  0.67581000  0.65520000  1
  H  H94  1  0.99778000  0.71327000  0.65008000  1
  H  H95  1  0.77766000  0.36355000  0.61297000  1
  H  H96  1  0.88161000  0.42159000  0.68536000  1
  H  H97  1  0.78191000  0.45277000  0.69313000  1
  H  H98  1  0.76990000  0.38836000  0.38265000  1
  H  H99  1  0.80111000  0.48575000  0.39911000  1
  H  H100  1  0.88522000  0.43681000  0.38619000  1
  H  H101  1  0.96896000  0.55431000  0.44507000  1
  H  H102  1  0.03354000  0.63872000  0.53305000  1
  H  H103  1  0.04107000  0.63370000  0.41594000  1
  H  H104  1  0.06504000  0.69451000  0.33429000  1
  H  H105  1  0.84207000  0.78892000  0.39136000  1
  H  H106  1  0.81517000  0.72683000  0.47274000  1
  H  H107  1  0.02148000  0.61698000  0.76485000  1
  H  H108  1  0.92487000  0.54562000  0.76237000  1
  H  H109  1  0.80971000  0.74247000  0.82690000  1
  H  H110  1  0.79938000  0.81096000  0.96121000  1
  H  H111  1  0.98398000  0.70149000  0.01899000  1
  H  H112  1  0.99370000  0.63353000  0.88598000  1
  H  H113  1  0.71322000  0.34378000  0.43370000  1
  H  H114  1  0.70920000  0.33460000  0.51524000  1
  H  H115  1  0.91155000  0.20983000  0.43877000  1
  H  H116  1  0.86367000  0.06901000  0.33672000  1
  H  H117  1  0.59067000  0.07906000  0.26896000  1
  H  H118  1  0.63834000  0.21927000  0.36976000  1
  H  H119  1  0.17080000  0.78894000  0.07477000  1
  H  H120  1  0.25954000  0.79239000  0.13864000  1
  H  H121  1  0.33277000  0.74006000  0.14978000  1
  C  C122  1  0.66715000  0.55138000  0.57345000  1
  C  C123  1  0.63037000  0.50872000  0.49367000  1
  C  C124  1  0.57079000  0.43018000  0.45946000  1
  C  C125  1  0.55246000  0.39323000  0.50342000  1
  C  C126  1  0.58797000  0.43728000  0.58296000  1
  C  C127  1  0.64132000  0.51774000  0.61854000  1
  C  C128  1  0.67052000  0.56788000  0.70430000  1
  C  C129  1  0.65560000  0.54884000  0.44800000  1
  C  C130  1  0.49357000  0.30747000  0.46433000  1
  C  C131  1  0.74200000  0.63013000  0.60954000  1
  C  C132  1  0.76199000  0.76699000  0.65220000  1
  C  C133  1  0.72780000  0.83100000  0.68442000  1
  C  C134  1  0.78278000  0.90574000  0.70242000  1
  C  C135  1  0.87292000  0.91865000  0.69003000  1
  C  C136  1  0.90654000  0.85463000  0.65887000  1
  C  C137  1  0.85171000  0.77914000  0.63945000  1
  C  C138  1  0.93199000  0.99912000  0.71068000  1
  C  C139  1  0.52719000  0.38303000  0.37533000  1
  C  C140  1  0.56575000  0.29938000  0.26047000  1
  C  C141  1  0.62654000  0.25903000  0.22575000  1
  C  C142  1  0.61374000  0.22349000  0.14737000  1
  C  C143  1  0.53974000  0.22640000  0.10174000  1
  C  C144  1  0.47767000  0.26425000  0.13680000  1
  C  C145  1  0.48987000  0.30046000  0.21542000  1
  C  C146  1  0.52983000  0.19288000  0.01908000  1
  C  C147  1  0.57485000  0.39761000  0.62993000  1
  C  C148  1  0.46036000  0.34728000  0.68177000  1
  C  C149  1  0.52432000  0.32313000  0.71378000  1
  C  C150  1  0.49666000  0.28685000  0.75564000  1
  C  C151  1  0.40565000  0.27375000  0.76653000  1
  C  C152  1  0.34188000  0.29761000  0.73322000  1
  C  C153  1  0.36881000  0.33394000  0.69161000  1
  C  C154  1  0.37837000  0.23775000  0.81220000  1
  C  C155  1  0.07727000  0.44557000  0.45923000  1
  C  C156  1  0.04768000  0.40966000  0.37945000  1
  C  C157  1  0.08292000  0.45224000  0.34368000  1
  C  C158  1  0.14653000  0.52997000  0.38722000  1
  C  C159  1  0.17798000  0.56422000  0.46696000  1
  C  C160  1  0.14366000  0.52167000  0.50314000  1
  C  C161  1  0.97953000  0.32649000  0.33402000  1
  C  C162  1  0.17845000  0.57552000  0.34730000  1
  C  C163  1  0.17400000  0.55508000  0.58811000  1
  C  C164  1  0.03652000  0.40329000  0.49900000  1
  C  C165  1  0.07633000  0.32627000  0.55304000  1
  C  C166  1  0.00442000  0.33449000  0.59080000  1
  C  C167  1  0.99022000  0.29965000  0.63591000  1
  C  C168  1  0.04600000  0.25610000  0.64402000  1
  C  C169  1  0.11587000  0.24633000  0.60390000  1
  C  C170  1  0.13134000  0.28098000  0.55885000  1
  C  C171  1  0.03087000  0.22213000  0.69506000  1
  C  C172  1  0.05453000  0.41248000  0.25793000  1
  C  C173  1  0.09951000  0.31749000  0.15271000  1
  C  C174  1  0.15389000  0.26667000  0.13045000  1
  C  C175  1  0.15938000  0.22877000  0.05561000  1
  C  C176  1  0.10986000  0.23891000  0.99928000  1
  C  C177  1  0.05421000  0.28901000  0.02259000  1
  C  C178  1  0.04921000  0.32813000  0.09815000  1
  C  C179  1  0.11696000  0.19915000  0.92137000  1
  C  C180  1  0.24316000  0.64798000  0.51502000  1
  C  C181  1  0.22092000  0.77620000  0.59001000  1
  C  C182  1  0.15822000  0.81965000  0.59931000  1
  C  C183  1  0.18563000  0.89821000  0.65557000  1
  C  C184  1  0.27703000  0.93646000  0.70441000  1
  C  C185  1  0.33931000  0.89241000  0.69356000  1
  C  C186  1  0.31229000  0.81322000  0.63690000  1
  C  C187  1  0.30376000  0.01830000  0.76575000  1
  C  C188  1  0.33285000  0.44862000  0.42655000  1
  C  C189  1  0.36962000  0.49128000  0.50633000  1
  C  C190  1  0.42921000  0.56982000  0.54053000  1
  C  C191  1  0.44754000  0.60677000  0.49658000  1
  C  C192  1  0.41202000  0.56272000  0.41704000  1
  C  C193  1  0.35868000  0.48226000  0.38146000  1
  C  C194  1  0.32947000  0.43212000  0.29570000  1
  C  C195  1  0.34439000  0.45116000  0.55200000  1
  C  C196  1  0.50643000  0.69253000  0.53567000  1
  C  C197  1  0.25799000  0.36987000  0.39046000  1
  C  C198  1  0.23800000  0.23301000  0.34780000  1
  C  C199  1  0.27219000  0.16900000  0.31558000  1
  C  C200  1  0.21721000  0.09426000  0.29758000  1
  C  C201  1  0.12708000  0.08135000  0.30997000  1
  C  C202  1  0.09345000  0.14537000  0.34113000  1
  C  C203  1  0.14829000  0.22086000  0.36055000  1
  C  C204  1  0.06800000  0.00088000  0.28931000  1
  C  C205  1  0.47280000  0.61697000  0.62467000  1
  C  C206  1  0.43424000  0.70062000  0.73953000  1
  C  C207  1  0.37345000  0.74097000  0.77424000  1
  C  C208  1  0.38625000  0.77651000  0.85263000  1
  C  C209  1  0.46025000  0.77360000  0.89826000  1
  C  C210  1  0.52232000  0.73575000  0.86320000  1
  C  C211  1  0.51012000  0.69954000  0.78458000  1
  C  C212  1  0.47016000  0.80712000  0.98092000  1
  C  C213  1  0.42515000  0.60239000  0.37007000  1
  C  C214  1  0.53963000  0.65272000  0.31822000  1
  C  C215  1  0.47568000  0.67686000  0.28622000  1
  C  C216  1  0.50333000  0.71315000  0.24436000  1
  C  C217  1  0.59434000  0.72624000  0.23346000  1
  C  C218  1  0.65811000  0.70239000  0.26678000  1
  C  C219  1  0.63119000  0.66605000  0.30839000  1
  C  C220  1  0.62163000  0.76225000  0.18779000  1
  C  C221  1  0.92272000  0.55443000  0.54077000  1
  C  C222  1  0.95232000  0.59034000  0.62055000  1
  C  C223  1  0.91707000  0.54776000  0.65632000  1
  C  C224  1  0.85347000  0.47002000  0.61278000  1
  C  C225  1  0.82202000  0.43578000  0.53304000  1
  C  C226  1  0.85633000  0.47833000  0.49686000  1
  C  C227  1  0.02046000  0.67351000  0.66598000  1
  C  C228  1  0.82154000  0.42448000  0.65270000  1
  C  C229  1  0.82599000  0.44492000  0.41189000  1
  C  C230  1  0.96347000  0.59670000  0.50099000  1
  C  C231  1  0.92366000  0.67373000  0.44695000  1
  C  C232  1  0.99557000  0.66551000  0.40920000  1
  C  C233  1  0.00977000  0.70035000  0.36409000  1
  C  C234  1  0.95399000  0.74390000  0.35598000  1
  C  C235  1  0.88412000  0.75367000  0.39609000  1
  C  C236  1  0.86866000  0.71902000  0.44115000  1
  C  C237  1  0.96912000  0.77787000  0.30494000  1
  C  C238  1  0.94547000  0.58752000  0.74207000  1
  C  C239  1  0.90049000  0.68251000  0.84729000  1
  C  C240  1  0.84610000  0.73333000  0.86955000  1
  C  C241  1  0.84062000  0.77123000  0.94439000  1
  C  C242  1  0.89013000  0.76109000  0.00072000  1
  C  C243  1  0.94578000  0.71099000  0.97741000  1
  C  C244  1  0.95079000  0.67187000  0.90185000  1
  C  C245  1  0.88304000  0.80085000  0.07862000  1
  C  C246  1  0.75683000  0.35202000  0.48498000  1
  C  C247  1  0.77907000  0.22380000  0.40999000  1
  C  C248  1  0.84178000  0.18035000  0.40069000  1
  C  C249  1  0.81436000  0.10179000  0.34443000  1
  C  C250  1  0.72297000  0.06354000  0.29559000  1
  C  C251  1  0.66068000  0.10759000  0.30643000  1
  C  C252  1  0.68770000  0.18678000  0.36310000  1
  C  C253  1  0.69624000  0.98169000  0.23424000  1
  O  O254  1  0.70219000  0.69444000  0.63360000  1
  O  O255  1  0.89328000  0.05329000  0.73160000  1
  O  O256  1  0.01726000  0.01055000  0.70769000  1
  O  O257  1  0.58650000  0.33679000  0.33832000  1
  O  O258  1  0.59060000  0.16536000  0.98750000  1
  O  O259  1  0.45815000  0.19451000  0.97883000  1
  O  O260  1  0.48062000  0.38403000  0.63993000  1
  O  O261  1  0.29352000  0.22241000  0.81973000  1
  O  O262  1  0.43968000  0.22168000  0.84762000  1
  O  O263  1  0.09752000  0.36047000  0.50920000  1
  O  O264  1  0.96438000  0.23300000  0.72840000  1
  O  O265  1  0.08469000  0.18512000  0.70398000  1
  O  O266  1  0.10188000  0.35391000  0.22918000  1
  O  O267  1  0.06418000  0.19987000  0.86664000  1
  O  O268  1  0.17735000  0.16129000  0.90313000  1
  O  O269  1  0.18377000  0.69783000  0.53485000  1
  O  O270  1  0.24376000  0.05636000  0.77549000  1
  O  O271  1  0.38591000  0.05353000  0.81396000  1
  O  O272  1  0.81782000  0.20606000  0.87513000  1
  O  O273  1  0.65980000  0.20888000  0.84614000  1
  O  O274  1  0.29780000  0.30556000  0.36640000  1
  O  O275  1  0.10671000  0.94671000  0.26840000  1
  O  O276  1  0.98273000  0.98944000  0.29231000  1
  O  O277  1  0.41349000  0.66321000  0.66168000  1
  O  O278  1  0.40939000  0.83464000  0.01250000  1
  O  O279  1  0.54185000  0.80549000  0.02117000  1
  O  O280  1  0.51937000  0.61597000  0.36007000  1
  O  O281  1  0.70647000  0.77759000  0.18027000  1
  O  O282  1  0.56032000  0.77832000  0.15237000  1
  O  O283  1  0.90247000  0.63953000  0.49080000  1
  O  O284  1  0.03561000  0.76700000  0.27160000  1
  O  O285  1  0.91531000  0.81488000  0.29602000  1
  O  O286  1  0.89811000  0.64609000  0.77082000  1
  O  O287  1  0.93581000  0.80013000  0.13336000  1
  O  O288  1  0.82264000  0.83871000  0.09687000  1
  O  O289  1  0.81623000  0.30217000  0.46515000  1
  O  O290  1  0.75623000  0.94363000  0.22451000  1
  O  O291  1  0.61409000  0.94647000  0.18603000  1
  O  O292  1  0.18217000  0.79394000  0.12487000  1
  O  O293  1  0.34019000  0.79112000  0.15385000  1
