# generated using pymatgen
data_H8C13N5O3
_symmetry_space_group_name_H-M   'P 1'
_cell_length_a   26.03350000
_cell_length_b   26.03350000
_cell_length_c   26.94710000
_cell_angle_alpha   89.99980000
_cell_angle_beta   89.99960000
_cell_angle_gamma   60.00000000
_symmetry_Int_Tables_number   1
_chemical_formula_structural   H8C13N5O3
_chemical_formula_sum   'H48 C78 N30 O18'
_cell_volume   15816.40527749
_cell_formula_units_Z   6
loop_
 _symmetry_equiv_pos_site_id
 _symmetry_equiv_pos_as_xyz
  1  'x, y, z'
loop_
 _atom_site_type_symbol
 _atom_site_label
 _atom_site_symmetry_multiplicity
 _atom_site_fract_x
 _atom_site_fract_y
 _atom_site_fract_z
 _atom_site_occupancy
  C  1  1  0.99084700  0.46580450  0.99935500  1
  C  2  1  0.02435000  0.46827950  0.03995700  1
  C  3  1  0.08668800  0.44226100  0.03776000  1
  C  4  1  0.11702800  0.40415850  0.99729500  1
  C  5  1  0.08547400  0.39542950  0.95826700  1
  C  6  1  0.02269600  0.43060150  0.95758700  1
  C  9  1  0.92754900  0.49836300  0.00093600  1
  C  10  1  0.89517000  0.49600350  0.04273300  1
  C  11  1  0.83227200  0.52553700  0.04224300  1
  C  12  1  0.80158300  0.56688650  0.00362300  1
  C  13  1  0.83254000  0.57253250  0.96260300  1
  C  14  1  0.89461000  0.53440900  0.96016800  1
  C  27  1  0.44108200  0.47041050  0.33271200  1
  C  28  1  0.44344100  0.43456600  0.37338400  1
  C  29  1  0.41753400  0.39814900  0.37111300  1
  C  30  1  0.37945100  0.40588500  0.33064100  1
  C  31  1  0.37072200  0.44616850  0.29162000  1
  C  32  1  0.40589100  0.47377800  0.29092600  1
  C  35  1  0.47365600  0.50113800  0.33428500  1
  C  36  1  0.47129100  0.53589450  0.37607100  1
  C  37  1  0.50083600  0.56925050  0.37557000  1
  C  38  1  0.54218500  0.55858000  0.33695000  1
  C  39  1  0.54783400  0.52196300  0.29594000  1
  C  40  1  0.50971600  0.49800850  0.29351600  1
  C  53  1  0.44571800  0.01556950  0.66605900  1
  C  54  1  0.40987100  0.04906450  0.70672700  1
  C  55  1  0.37346500  0.11139250  0.70444900  1
  C  56  1  0.38119800  0.14173350  0.66396900  1
  C  57  1  0.42148800  0.11017500  0.62495100  1
  C  58  1  0.44909200  0.04739950  0.62428600  1
  C  61  1  0.47642500  0.95226750  0.66763500  1
  C  62  1  0.51118500  0.91986650  0.70941400  1
  C  63  1  0.54452600  0.85696450  0.70891400  1
  C  64  1  0.53385500  0.82629050  0.67029000  1
  C  65  1  0.49722800  0.85725600  0.62928600  1
  C  66  1  0.47321400  0.91933350  0.62690600  1
  C  79  1  0.24784000  0.21815450  0.78549000  1
  C  81  1  0.24692500  0.22024650  0.87439100  1
  C  82  1  0.19260000  0.27437750  0.87458500  1
  C  84  1  0.19209500  0.27197650  0.78532300  1
  C  86  1  0.15904200  0.30251950  0.74270500  1
  C  91  1  0.28191300  0.19182250  0.74261300  1
  C  93  1  0.16691000  0.30556150  0.91863400  1
  C  95  1  0.19346600  0.46104350  0.11884500  1
  C  97  1  0.19553600  0.45989700  0.20774500  1
  C  98  1  0.24967600  0.46007450  0.20794100  1
  C  100  1  0.24729900  0.46294550  0.11868100  1
  C  102  1  0.27785700  0.46543200  0.07606500  1
  C  107  1  0.16713300  0.45331050  0.07596800  1
  C  109  1  0.28085200  0.45459900  0.25199100  1
  C  111  1  0.43639400  0.27253050  0.45216000  1
  C  113  1  0.43520300  0.27162350  0.54106400  1
  C  114  1  0.43540700  0.21729450  0.54125700  1
  C  116  1  0.43832600  0.21678150  0.45199700  1
  C  118  1  0.44084600  0.18372350  0.40937700  1
  C  123  1  0.42865700  0.30660100  0.40928400  1
  C  125  1  0.42992000  0.19159900  0.58530600  1
  C  127  1  0.67019900  0.74785050  0.78861600  1
  C  129  1  0.67418100  0.74859200  0.87741700  1
  C  130  1  0.72705100  0.69309650  0.87766500  1
  C  132  1  0.72454200  0.69259700  0.78838600  1
  C  134  1  0.75536400  0.66000050  0.74568200  1
  C  139  1  0.63508400  0.77414200  0.74622100  1
  C  141  1  0.75308800  0.66295950  0.92204100  1
  C  143  1  0.72316800  0.50897700  0.12195400  1
  C  145  1  0.72389900  0.50425850  0.21075800  1
  C  146  1  0.66840300  0.50688050  0.21100300  1
  C  148  1  0.66791200  0.50988800  0.12172400  1
  C  150  1  0.63531900  0.51166100  0.07901800  1
  C  155  1  0.74946500  0.51778900  0.07956000  1
  C  157  1  0.63826400  0.51097950  0.25537500  1
  C  159  1  0.48427800  0.69491900  0.45527400  1
  C  161  1  0.47957100  0.69889150  0.54407700  1
  C  162  1  0.48217900  0.75177150  0.54432600  1
  C  164  1  0.48517800  0.74926850  0.45504400  1
  C  166  1  0.48693900  0.78009750  0.41234200  1
  C  171  1  0.49309500  0.65980950  0.41288000  1
  C  173  1  0.48626800  0.77781250  0.58870200  1
  H  7  1  0.00249600  0.49593900  0.06912500  1
  H  16  1  0.91689400  0.53900050  0.93072300  1
  H  19  1  0.98348300  0.39242450  0.92979800  1
  H  20  1  0.93240600  0.41829800  0.06989000  1
  H  21  1  0.18963800  0.39146350  0.97008200  1
  H  22  1  0.73117500  0.62929750  0.03160700  1
  H  33  1  0.47125800  0.42860450  0.40246300  1
  H  42  1  0.51431100  0.47112200  0.26408100  1
  H  45  1  0.36779500  0.55112950  0.26308300  1
  H  46  1  0.39358200  0.57639050  0.40321600  1
  H  47  1  0.36681500  0.34594300  0.30339900  1
  H  48  1  0.60459300  0.56658900  0.36492300  1
  H  59  1  0.40390100  0.02721850  0.73580600  1
  H  68  1  0.44640600  0.94167950  0.59744100  1
  H  71  1  0.52644800  0.00817150  0.59643600  1
  H  72  1  0.55172000  0.95705300  0.73653500  1
  H  73  1  0.32126000  0.21430750  0.63671800  1
  H  74  1  0.54187900  0.75586000  0.69825100  1
  H  85  1  0.26860300  0.20058550  0.90660000  1
  H  89  1  0.16307000  0.23281800  0.70510650  1
  H  90  1  0.12157000  0.29859450  0.67812400  1
  H  92  1  0.26631400  0.21378250  0.70995500  1
  H  94  1  0.18984000  0.28847400  0.95089200  1
  H  101  1  0.17586500  0.45790100  0.23995600  1
  H  105  1  0.20817400  0.53111100  0.03845000  1
  H  106  1  0.27395600  0.50681150  0.01147500  1
  H  108  1  0.18911500  0.44691750  0.04331500  1
  H  110  1  0.26377100  0.44875250  0.28425400  1
  H  117  1  0.43318000  0.29330400  0.57327200  1
  H  121  1  0.50652000  0.18775850  0.37178400  1
  H  122  1  0.48225600  0.14624900  0.34480200  1
  H  124  1  0.42230200  0.29099600  0.37662700  1
  H  126  1  0.42405600  0.21453950  0.61756200  1
  H  133  1  0.65408800  0.76989900  0.90963700  1
  H  137  1  0.75327200  0.72703350  0.70525200  1
  H  138  1  0.79165600  0.66014250  0.67935700  1
  H  140  1  0.64856300  0.75121100  0.71372100  1
  H  142  1  0.73136700  0.68207050  0.95431500  1
  H  149  1  0.74520200  0.50304550  0.24297700  1
  H  153  1  0.70235300  0.44671750  0.03859500  1
  H  154  1  0.63546600  0.47522100  0.01269600  1
  H  156  1  0.72653000  0.52725000  0.04706300  1
  H  158  1  0.65737600  0.51359450  0.28764900  1
  H  165  1  0.47836400  0.67879550  0.57629600  1
  H  169  1  0.42200400  0.77798950  0.37191800  1
  H  170  1  0.45049400  0.81638750  0.34601900  1
  H  172  1  0.50255600  0.67328400  0.38037900  1
  H  174  1  0.48890400  0.75607200  0.62097200  1
  N  23  1  0.80617700  0.61190950  0.92466600  1
  N  24  1  0.80447500  0.51159350  0.07840200  1
  N  25  1  0.11257600  0.35513100  0.92102600  1
  N  26  1  0.11343800  0.45648900  0.07460200  1
  N  49  1  0.58721600  0.50893700  0.25800200  1
  N  50  1  0.48689400  0.61099850  0.41172200  1
  N  51  1  0.33042700  0.45935950  0.25437700  1
  N  52  1  0.43178400  0.35714450  0.40794000  1
  N  75  1  0.48420600  0.83091200  0.59134000  1
  N  76  1  0.58627700  0.82915650  0.74506400  1
  N  77  1  0.43469300  0.13726050  0.58770000  1
  N  78  1  0.33245500  0.13815150  0.74127000  1
  N  80  1  0.27222500  0.19485550  0.83039700  1
  N  83  1  0.16787700  0.29725500  0.82982900  1
  N  88  1  0.14872600  0.27519650  0.70451200  1
  N  96  1  0.17014800  0.45998400  0.16375100  1
  N  99  1  0.27256700  0.46189600  0.16318700  1
  N  104  1  0.25055000  0.50306800  0.03786400  1
  N  112  1  0.43529600  0.29692400  0.49707100  1
  N  115  1  0.43726200  0.19256700  0.49650300  1
  N  120  1  0.47849000  0.17340950  0.37119100  1
  N  128  1  0.64802700  0.77320700  0.83348300  1
  N  131  1  0.74963900  0.66812350  0.83290200  1
  N  136  1  0.76589000  0.68502600  0.70587900  1
  N  144  1  0.74851700  0.50579400  0.16682400  1
  N  147  1  0.64343500  0.50926400  0.16623700  1
  N  152  1  0.66034900  0.47610550  0.03921800  1
  N  160  1  0.48110600  0.67274200  0.50014300  1
  N  163  1  0.48455200  0.77436750  0.49956100  1
  N  168  1  0.45138700  0.79061500  0.37254200  1
  O  8  1  0.17738200  0.37432650  0.99701000  1
  O  15  1  0.74137100  0.60023800  0.00465400  1
  O  17  1  0.99296900  0.42290250  0.91917700  1
  O  18  1  0.92420000  0.45774900  0.08085900  1
  O  34  1  0.34965800  0.37532150  0.33033700  1
  O  41  1  0.57553300  0.58544600  0.33797000  1
  O  43  1  0.39824900  0.51114300  0.25248800  1
  O  44  1  0.43303000  0.54514750  0.41419300  1
  O  60  1  0.35063600  0.20208550  0.66365800  1
  O  67  1  0.56073400  0.76607300  0.67130400  1
  O  69  1  0.48647600  0.01762900  0.58586700  1
  O  70  1  0.52046800  0.94887100  0.74752600  1
  O  87  1  0.12830900  0.36255450  0.74358100  1
  O  103  1  0.33789300  0.43611500  0.07694800  1
  O  119  1  0.41155000  0.15298550  0.41025200  1
  O  135  1  0.78403700  0.60002600  0.74785050  1
  O  151  1  0.57534400  0.54296300  0.08118200  1
  O  167  1  0.51822600  0.80878350  0.41450500  1
