# generated using pymatgen
data_Mn3P2H3(C3O10)2
_symmetry_space_group_name_H-M   'P 1'
_cell_length_a   7.81104000
_cell_length_b   9.87084000
_cell_length_c   16.05852000
_cell_angle_alpha   94.11908000
_cell_angle_beta   94.87711000
_cell_angle_gamma   92.59581000
_symmetry_Int_Tables_number   1
_chemical_formula_structural   Mn3P2H3(C3O10)2
_chemical_formula_sum   'Mn6 P4 H6 C12 O40'
_cell_volume   1228.82025625
_cell_formula_units_Z   2
loop_
 _symmetry_equiv_pos_site_id
 _symmetry_equiv_pos_as_xyz
  1  'x, y, z'
loop_
 _atom_site_type_symbol
 _atom_site_label
 _atom_site_symmetry_multiplicity
 _atom_site_fract_x
 _atom_site_fract_y
 _atom_site_fract_z
 _atom_site_occupancy
  Mn  Mn0  1  0.38911000  0.56300000  0.14781000  1
  Mn  Mn1  1  0.26271000  0.06336000  0.28201000  1
  Mn  Mn2  1  0.55746000  0.25208000  0.43220000  1
  Mn  Mn3  1  0.61173000  0.43708000  0.85223000  1
  Mn  Mn4  1  0.73742000  0.93645000  0.71815000  1
  Mn  Mn5  1  0.44292000  0.74719000  0.56792000  1
  P  P6  1  0.74124000  0.41049000  0.06492000  1
  P  P7  1  0.86293000  0.15550000  0.30702000  1
  P  P8  1  0.26103000  0.59165000  0.93520000  1
  P  P9  1  0.13745000  0.84348000  0.69329000  1
  H  H10  1  0.02099000  0.44439000  0.09140000  1
  H  H11  1  0.81486000  0.27396000  0.16346000  1
  H  H12  1  0.67725000  0.00088000  0.23883000  1
  H  H13  1  0.98229000  0.55389000  0.90845000  1
  H  H14  1  0.18464000  0.72737000  0.83689000  1
  H  H15  1  0.32345000  0.99813000  0.76081000  1
  C  C16  1  0.42615000  0.83318000  0.21172000  1
  C  C17  1  0.24297000  0.78585000  0.22744000  1
  C  C18  1  0.26254000  0.29476000  0.17773000  1
  C  C19  1  0.38837000  0.33889000  0.25494000  1
  C  C20  1  0.41021000  0.47478000  0.50934000  1
  C  C21  1  0.56056000  0.02572000  0.53898000  1
  C  C22  1  0.57387000  0.16713000  0.78837000  1
  C  C23  1  0.75708000  0.21433000  0.77262000  1
  C  C24  1  0.73748000  0.70489000  0.82222000  1
  C  C25  1  0.61156000  0.66074000  0.74502000  1
  C  C26  1  0.59034000  0.52461000  0.49048000  1
  C  C27  1  0.43929000  0.97378000  0.46112000  1
  O  O28  1  0.60099000  0.49346000  0.10087000  1
  O  O29  1  0.70046000  0.37972000  0.97063000  1
  O  O30  1  0.91654000  0.49806000  0.08737000  1
  O  O31  1  0.75798000  0.26898000  0.10380000  1
  O  O32  1  0.74937000  0.16655000  0.37916000  1
  O  O33  1  0.05366000  0.14004000  0.33710000  1
  O  O34  1  0.87453000  0.28868000  0.26062000  1
  O  O35  1  0.80223000  0.03233000  0.24188000  1
  O  O36  1  0.51869000  0.74618000  0.17923000  1
  O  O37  1  0.47152000  0.95749000  0.23362000  1
  O  O38  1  0.20067000  0.66162000  0.20803000  1
  O  O39  1  0.14939000  0.87443000  0.25869000  1
  O  O40  1  0.23365000  0.38711000  0.12662000  1
  O  O41  1  0.19745000  0.17554000  0.17124000  1
  O  O42  1  0.45950000  0.45509000  0.26247000  1
  O  O43  1  0.40865000  0.24704000  0.30781000  1
  O  O44  1  0.36616000  0.35154000  0.48721000  1
  O  O45  1  0.31933000  0.56088000  0.54527000  1
  O  O46  1  0.61740000  0.14676000  0.54591000  1
  O  O47  1  0.59252000  0.93547000  0.59132000  1
  O  O48  1  0.40340000  0.51193000  0.89888000  1
  O  O49  1  0.30009000  0.62084000  0.02963000  1
  O  O50  1  0.08775000  0.50168000  0.91229000  1
  O  O51  1  0.24162000  0.73307000  0.89663000  1
  O  O52  1  0.25101000  0.83334000  0.62107000  1
  O  O53  1  0.94689000  0.85954000  0.66303000  1
  O  O54  1  0.12511000  0.71090000  0.74033000  1
  O  O55  1  0.19846000  0.96695000  0.75821000  1
  O  O56  1  0.48151000  0.25432000  0.82090000  1
  O  O57  1  0.52838000  0.04290000  0.76649000  1
  O  O58  1  0.79932000  0.33867000  0.79201000  1
  O  O59  1  0.85063000  0.12585000  0.74137000  1
  O  O60  1  0.76690000  0.61243000  0.87315000  1
  O  O61  1  0.80225000  0.82421000  0.82887000  1
  O  O62  1  0.54066000  0.54447000  0.73744000  1
  O  O63  1  0.59122000  0.75264000  0.69219000  1
  O  O64  1  0.63400000  0.64792000  0.51270000  1
  O  O65  1  0.68142000  0.43873000  0.45458000  1
  O  O66  1  0.38247000  0.85276000  0.45417000  1
  O  O67  1  0.40748000  0.06396000  0.40873000  1
