# generated using pymatgen
data_H29(C23N)2
_symmetry_space_group_name_H-M   'P 1'
_cell_length_a   59.36837970
_cell_length_b   59.36837970
_cell_length_c   59.36837970
_cell_angle_alpha   109.47122063
_cell_angle_beta   109.47122063
_cell_angle_gamma   109.47122063
_symmetry_Int_Tables_number   1
_chemical_formula_structural   H29(C23N)2
_chemical_formula_sum   'H174 C276 N12'
_cell_volume   161080.77030223
_cell_formula_units_Z   6
loop_
 _symmetry_equiv_pos_site_id
 _symmetry_equiv_pos_as_xyz
  1  'x, y, z'
loop_
 _atom_site_type_symbol
 _atom_site_label
 _atom_site_symmetry_multiplicity
 _atom_site_fract_x
 _atom_site_fract_y
 _atom_site_fract_z
 _atom_site_occupancy
  C  1  1  0.56375800  0.53622050  0.08683550  1
  C  2  1  0.54971450  0.55064700  0.08683250  1
  C  3  1  0.53138400  0.54142000  0.05947600  1
  C  5  1  0.55474100  0.51809450  0.05947850  1
  C  6  1  0.56462650  0.49978150  0.05113300  1
  C  7  1  0.55515450  0.48128300  0.02321350  1
  C  9  1  0.53204250  0.45816250  0.97687400  1
  C  10  1  0.55005300  0.44877800  0.98581900  1
  C  11  1  0.56445100  0.46318100  0.01428400  1
  C  12  1  0.51358050  0.44871850  0.94894900  1
  C  13  1  0.49529700  0.45863850  0.94060550  1
  C  15  1  0.47198750  0.48201750  0.94060100  1
  C  16  1  0.46275550  0.46367300  0.91324650  1
  C  17  1  0.47719200  0.44964100  0.91324900  1
  C  18  1  0.46203750  0.50027350  0.94894100  1
  C  19  1  0.47148600  0.51874350  0.97686450  1
  C  21  1  0.49470750  0.54196300  0.02320450  1
  C  22  1  0.47647450  0.55112750  0.01427000  1
  C  23  1  0.46241900  0.53707200  0.98580400  1
  C  24  1  0.51315050  0.55138450  0.05112600  1
  C  25  1  0.51330600  0.57226850  0.07216950  1
  C  26  1  0.52572750  0.59992100  0.07810250  1
  C  27  1  0.52553500  0.62037350  0.09854550  1
  C  28  1  0.51335900  0.61397450  0.11404250  1
  C  29  1  0.50118700  0.58626700  0.10816200  1
  C  30  1  0.50093100  0.56568350  0.08739950  1
  C  31  1  0.51333050  0.63480800  0.13492250  1
  C  32  1  0.52113100  0.63749200  0.16136700  1
  C  33  1  0.52132250  0.65815150  0.18199500  1
  C  34  1  0.51328850  0.67666050  0.17685400  1
  C  35  1  0.50526950  0.67383150  0.15033800  1
  C  36  1  0.50549500  0.65345000  0.12984900  1
  C  37  1  0.44113400  0.50010350  0.92789450  1
  C  38  1  0.44763250  0.51221850  0.91245000  1
  C  39  1  0.42702850  0.51194800  0.89169250  1
  C  40  1  0.39938750  0.50004150  0.88604100  1
  C  41  1  0.39307700  0.48814050  0.90175950  1
  C  42  1  0.41354250  0.48794100  0.92218150  1
  C  43  1  0.37853600  0.50006650  0.86517350  1
  C  44  1  0.37564450  0.49199550  0.83862800  1
  C  45  1  0.35498000  0.49182100  0.81802400  1
  C  46  1  0.33664350  0.50010750  0.82326100  1
  C  47  1  0.33967850  0.50838100  0.84987750  1
  C  48  1  0.36007550  0.50816050  0.87035400  1
  C  49  1  0.51344300  0.42784300  0.92790600  1
  C  50  1  0.49149450  0.40028500  0.91245150  1
  C  51  1  0.49134450  0.37979850  0.89169700  1
  C  52  1  0.51334300  0.38605150  0.88605850  1
  C  53  1  0.53538100  0.41366700  0.90179200  1
  C  54  1  0.53533050  0.43429100  0.92220650  1
  C  55  1  0.51332850  0.36515900  0.86519050  1
  C  56  1  0.53696850  0.36224350  0.87037800  1
  C  57  1  0.53689100  0.34154550  0.84990350  1
  C  58  1  0.51331500  0.32320500  0.82328600  1
  C  59  1  0.48974100  0.32625600  0.81804100  1
  C  60  1  0.48967900  0.34668600  0.83864500  1
  C  61  1  0.58550750  0.49993750  0.07218100  1
  C  62  1  0.57901400  0.47821200  0.07810500  1
  C  63  1  0.61311250  0.52175400  0.08742150  1
  C  64  1  0.63361300  0.52193250  0.10818950  1
  C  65  1  0.62731600  0.50009700  0.11405900  1
  C  66  1  0.59964550  0.47819500  0.09854450  1
  C  67  1  0.64821950  0.50013950  0.13494100  1
  C  68  1  0.65097900  0.47642350  0.12986650  1
  C  69  1  0.67169300  0.47652800  0.15035100  1
  C  70  1  0.69018200  0.50020950  0.17687450  1
  C  71  1  0.68728900  0.52385950  0.18201650  1
  C  72  1  0.66686000  0.52389750  0.16138750  1
  C  115  1  0.47691650  0.91316350  0.44937700  1
  C  116  1  0.46287500  0.91316400  0.46380600  1
  C  117  1  0.47190100  0.94052250  0.48193450  1
  C  119  1  0.49525700  0.94051950  0.45861050  1
  C  120  1  0.51348950  0.94886400  0.44864350  1
  C  121  1  0.53193700  0.97678400  0.45806500  1
  C  123  1  0.55516550  0.02312450  0.48128600  1
  C  124  1  0.56423150  0.01418000  0.46295650  1
  C  125  1  0.55016450  0.98571550  0.44889400  1
  C  126  1  0.56463150  0.05105000  0.49977050  1
  C  127  1  0.55469250  0.05939300  0.51803550  1
  C  129  1  0.53138500  0.05939600  0.54141600  1
  C  130  1  0.54951000  0.08675000  0.55043000  1
  C  131  1  0.56393850  0.08674950  0.53638900  1
  C  132  1  0.51309800  0.05105550  0.55133350  1
  C  133  1  0.49462450  0.02313100  0.54188150  1
  C  135  1  0.47150350  0.97679200  0.51875950  1
  C  136  1  0.46220800  0.98572500  0.53686100  1
  C  137  1  0.47661750  0.01419050  0.55127100  1
  C  138  1  0.46202200  0.94887050  0.50025550  1
  C  139  1  0.44113600  0.92782700  0.50009600  1
  C  140  1  0.44762500  0.92189450  0.52181650  1
  C  141  1  0.42698900  0.90145100  0.52182600  1
  C  142  1  0.39931750  0.88595300  0.49993050  1
  C  143  1  0.39302400  0.89183000  0.47810000  1
  C  144  1  0.41353000  0.91259450  0.47828050  1
  C  145  1  0.37840800  0.86507250  0.49988350  1
  C  146  1  0.35976750  0.83862550  0.47612600  1
  C  147  1  0.33932550  0.81800250  0.47615600  1
  C  148  1  0.33643450  0.82314400  0.49980650  1
  C  149  1  0.35493050  0.84966200  0.52349150  1
  C  150  1  0.37564700  0.87014600  0.52360000  1
  C  151  1  0.51323950  0.07210100  0.57221050  1
  C  152  1  0.53518250  0.08754600  0.59977150  1
  C  153  1  0.53533550  0.10830050  0.62025800  1
  C  154  1  0.51334650  0.11395300  0.61400350  1
  C  155  1  0.49131500  0.09823150  0.58638550  1
  C  156  1  0.49135950  0.07781150  0.56576200  1
  C  157  1  0.51336450  0.13482350  0.63489700  1
  C  158  1  0.53701900  0.16136500  0.65337400  1
  C  159  1  0.53695750  0.18197250  0.67380000  1
  C  160  1  0.51338400  0.17673650  0.67684750  1
  C  161  1  0.48980100  0.15012200  0.65850200  1
  C  162  1  0.48972250  0.12964250  0.63781000  1
  C  163  1  0.58553600  0.07209300  0.49993800  1
  C  164  1  0.57904000  0.08754650  0.48783250  1
  C  165  1  0.59964600  0.10830650  0.48810850  1
  C  166  1  0.62728250  0.11394300  0.49999550  1
  C  167  1  0.63358900  0.09821200  0.51188100  1
  C  168  1  0.61312500  0.07779550  0.51208850  1
  C  169  1  0.64813450  0.13480850  0.49996700  1
  C  170  1  0.66658400  0.12961900  0.49186000  1
  C  171  1  0.68698750  0.15009600  0.49164450  1
  C  172  1  0.69002650  0.17671300  0.49991850  1
  C  173  1  0.67169900  0.18195750  0.50821450  1
  C  174  1  0.65102950  0.16135300  0.50803650  1
  C  175  1  0.51332400  0.92781800  0.42775200  1
  C  176  1  0.50090550  0.92189500  0.40010250  1
  C  177  1  0.52568700  0.91257600  0.43432700  1
  C  178  1  0.52542450  0.89181200  0.41373750  1
  C  179  1  0.51325200  0.88593900  0.38603200  1
  C  180  1  0.50109100  0.90145000  0.37964300  1
  C  181  1  0.51327000  0.86505500  0.36519100  1
  C  182  1  0.52110500  0.87012950  0.34654950  1
  C  183  1  0.52133200  0.84964450  0.32616750  1
  C  184  1  0.51330150  0.82312350  0.32333000  1
  C  185  1  0.50526400  0.81797900  0.34183500  1
  C  186  1  0.50546100  0.83860750  0.36249950  1
  C  229  1  0.02753550  0.55062400  0.46378750  1
  C  230  1  0.99906550  0.53619600  0.44936150  1
  C  231  1  0.98996250  0.51806450  0.45858900  1
  C  233  1  0.03664450  0.54138900  0.48190950  1
  C  234  1  0.06484300  0.55135700  0.50022200  1
  C  235  1  0.07387000  0.54193700  0.51872200  1
  C  237  1  0.07387850  0.51871250  0.54183700  1
  C  238  1  0.10127350  0.53704450  0.55122400  1
  C  239  1  0.10126800  0.55110150  0.53681550  1
  C  240  1  0.06486150  0.50023200  0.55128150  1
  C  241  1  0.03665800  0.48197150  0.54136450  1
  C  243  1  0.98996900  0.45858850  0.51798650  1
  C  244  1  0.99908150  0.44957900  0.53633150  1
  C  245  1  0.02755000  0.46361950  0.55036950  1
  C  246  1  0.96176450  0.44866550  0.49972400  1
  C  247  1  0.95274200  0.45811200  0.48124700  1
  C  249  1  0.95274300  0.48123950  0.45803550  1
  C  250  1  0.92534500  0.46313050  0.44885950  1
  C  251  1  0.92534550  0.44872400  0.46291850  1
  C  252  1  0.96176350  0.49974450  0.44861800  1
  C  253  1  0.94103650  0.49990400  0.42773450  1
  C  254  1  0.92580850  0.47818700  0.40008150  1
  C  255  1  0.90515800  0.47817450  0.37962950  1
  C  256  1  0.89938150  0.50007000  0.38602850  1
  C  257  1  0.91491200  0.52189350  0.41373850  1
  C  258  1  0.93524250  0.52171600  0.43432050  1
  C  259  1  0.87852100  0.50011800  0.36519600  1
  C  260  1  0.88363750  0.52387850  0.36251100  1
  C  261  1  0.86316800  0.52384900  0.34185600  1
  C  262  1  0.83662700  0.50019900  0.32334400  1
  C  263  1  0.83143600  0.47651200  0.32617500  1
  C  264  1  0.85204350  0.47640250  0.34655000  1
  C  265  1  0.94102950  0.42778700  0.49989150  1
  C  266  1  0.93541450  0.40022850  0.48777800  1
  C  267  1  0.91508250  0.37974200  0.48804750  1
  C  268  1  0.89934450  0.38599350  0.49995100  1
  C  269  1  0.90492750  0.41361100  0.51184450  1
  C  270  1  0.92559900  0.43423550  0.51205150  1
  C  271  1  0.87846900  0.36510000  0.49992600  1
  C  272  1  0.88364550  0.34662250  0.50799100  1
  C  273  1  0.86315800  0.32619650  0.50817150  1
  C  274  1  0.83653700  0.32315050  0.49988850  1
  C  275  1  0.83129700  0.34149000  0.49161300  1
  C  276  1  0.85191250  0.36218600  0.49183050  1
  C  277  1  0.08559800  0.50006400  0.57215700  1
  C  278  1  0.09121000  0.51217150  0.59971550  1
  C  279  1  0.11154150  0.51189850  0.62020100  1
  C  280  1  0.12728850  0.50000800  0.61395050  1
  C  281  1  0.12170350  0.48811550  0.58633200  1
  C  282  1  0.10103650  0.48791400  0.56571050  1
  C  283  1  0.14816900  0.50003650  0.63484350  1
  C  284  1  0.17472450  0.50813900  0.63775950  1
  C  285  1  0.19534500  0.50836200  0.65845600  1
  C  286  1  0.19010950  0.50008700  0.67679850  1
  C  287  1  0.16348450  0.49178800  0.67374550  1
  C  288  1  0.14299300  0.49196600  0.65331900  1
  C  289  1  0.08556850  0.57224850  0.50006600  1
  C  290  1  0.10080250  0.59989700  0.52179350  1
  C  291  1  0.09135350  0.56567550  0.47824700  1
  C  292  1  0.11167750  0.58626400  0.47807150  1
  C  293  1  0.12721550  0.61396900  0.49990750  1
  C  294  1  0.12144800  0.62035500  0.52181000  1
  C  295  1  0.14807550  0.63481100  0.49986550  1
  C  296  1  0.17455150  0.65345000  0.52357950  1
  C  297  1  0.19515850  0.67383400  0.52347650  1
  C  298  1  0.18996800  0.67667200  0.49979300  1
  C  299  1  0.16342600  0.65816650  0.47614450  1
  C  300  1  0.14295550  0.63750700  0.47611150  1
  C  685  1  0.51330400  0.80223900  0.30247300  1
  C  686  1  0.53616450  0.80802500  0.29817250  1
  C  687  1  0.53624750  0.78741550  0.27777300  1
  C  688  1  0.51329850  0.76030400  0.26056050  1
  C  689  1  0.49035650  0.75457850  0.26473400  1
  C  690  1  0.49044150  0.77508050  0.28541300  1
  C  693  1  0.51329100  0.73942300  0.23967600  1
  C  694  1  0.53623900  0.73526050  0.24539250  1
  C  695  1  0.53614950  0.71457550  0.22489500  1
  C  696  1  0.51328400  0.69751300  0.19773700  1
  C  697  1  0.49041800  0.70180500  0.19195500  1
  C  698  1  0.49034100  0.72221200  0.21256600  1
  C  705  1  0.51338600  0.19761250  0.69772950  1
  C  706  1  0.50326000  0.19181550  0.71477850  1
  C  707  1  0.50344450  0.21241100  0.73545950  1
  C  708  1  0.51336100  0.23952900  0.73964200  1
  C  709  1  0.52330000  0.24527500  0.72246000  1
  C  710  1  0.52350350  0.22478600  0.70205650  1
  C  713  1  0.51334400  0.26039950  0.76050850  1
  C  714  1  0.52326550  0.26459450  0.78762900  1
  C  715  1  0.52344400  0.28527700  0.80822100  1
  C  716  1  0.51331500  0.30231900  0.80241400  1
  C  717  1  0.50319950  0.29798600  0.77523750  1
  C  718  1  0.50341100  0.27758500  0.75475700  1
  C  725  1  0.21082750  0.69752600  0.49976450  1
  C  726  1  0.23798950  0.70182900  0.50985650  1
  C  727  1  0.25847550  0.72223250  0.50965000  1
  C  728  1  0.25273650  0.73943950  0.49974500  1
  C  729  1  0.22562150  0.73526750  0.48984700  1
  C  730  1  0.20502350  0.71458150  0.48965900  1
  C  733  1  0.27361450  0.76032400  0.49974850  1
  C  734  1  0.29084500  0.75460450  0.48986850  1
  C  735  1  0.31125350  0.77510300  0.48968050  1
  C  736  1  0.31554650  0.80226100  0.49977750  1
  C  737  1  0.29846700  0.80804450  0.50985550  1
  C  738  1  0.27777650  0.78743450  0.50964900  1
  C  745  1  0.81565550  0.30226800  0.49988250  1
  C  746  1  0.78848300  0.28521650  0.47703450  1
  C  747  1  0.76798250  0.26454000  0.47695350  1
  C  748  1  0.77371750  0.26035700  0.49988750  1
  C  749  1  0.80083750  0.27754400  0.52281850  1
  C  750  1  0.82144400  0.29794200  0.52273000  1
  C  753  1  0.75283500  0.23949150  0.49989350  1
  C  754  1  0.73563600  0.21237000  0.47696600  1
  C  755  1  0.71521950  0.19177950  0.47705500  1
  C  756  1  0.71089950  0.19758450  0.49990500  1
  C  757  1  0.72796000  0.22475950  0.52274750  1
  C  758  1  0.74865050  0.24524250  0.52282600  1
  C  765  1  0.71106650  0.50023600  0.19775750  1
  C  766  1  0.72814100  0.49014850  0.19197450  1
  C  767  1  0.74883450  0.49036000  0.21258750  1
  C  768  1  0.75299550  0.50026000  0.23969750  1
  C  769  1  0.73577500  0.51015550  0.24541850  1
  C  770  1  0.71536250  0.51033800  0.22491750  1
  C  773  1  0.77386750  0.50025700  0.26057950  1
  C  774  1  0.80097950  0.51013750  0.26474400  1
  C  775  1  0.82157500  0.51032550  0.28542950  1
  C  776  1  0.81577000  0.50022900  0.30249100  1
  C  777  1  0.78861300  0.49015700  0.29819900  1
  C  778  1  0.76813100  0.49036500  0.27779600  1
  C  785  1  0.31577150  0.50011700  0.80238650  1
  C  786  1  0.31144700  0.52296500  0.80818400  1
  C  787  1  0.29103650  0.52305150  0.78758900  1
  C  788  1  0.27383200  0.50011700  0.76047200  1
  C  789  1  0.27802350  0.47718800  0.75472450  1
  C  790  1  0.29871150  0.47726900  0.77521350  1
  C  793  1  0.25294350  0.50011400  0.73960350  1
  C  794  1  0.25867100  0.52304100  0.73541100  1
  C  795  1  0.23816650  0.52295050  0.71472900  1
  C  796  1  0.21099450  0.50010050  0.69768300  1
  C  797  1  0.20521450  0.47725800  0.70201650  1
  C  798  1  0.22582450  0.47718000  0.72242250  1
  H  73  1  0.70040750  0.54154600  0.20079850  1
  H  74  1  0.66541500  0.54140500  0.16608000  1
  H  75  1  0.67281400  0.45885800  0.14582200  1
  H  76  1  0.63816300  0.45888550  0.11093650  1
  H  77  1  0.59410700  0.46220250  0.10238350  1
  H  78  1  0.55918550  0.46215450  0.06745200  1
  H  79  1  0.65342100  0.53795900  0.11861100  1
  H  80  1  0.61846600  0.53772600  0.08352300  1
  H  81  1  0.57826650  0.53890950  0.10429100  1
  H  82  1  0.55264900  0.56540300  0.10428800  1
  H  83  1  0.52542350  0.51211550  0.02418400  1
  H  84  1  0.50127200  0.48796150  0.97589450  1
  H  85  1  0.57917550  0.46051600  0.02620150  1
  H  86  1  0.55264450  0.43397450  0.97391200  1
  H  87  1  0.47540100  0.39495650  0.91618050  1
  H  88  1  0.47520700  0.36002900  0.88110800  1
  H  89  1  0.55149250  0.45408100  0.93301650  1
  H  90  1  0.55149650  0.41917950  0.89812400  1
  H  91  1  0.47449700  0.43513050  0.89579150  1
  H  92  1  0.44800300  0.46073250  0.89578650  1
  H  93  1  0.47366850  0.56571300  0.02618450  1
  H  94  1  0.44792000  0.53996600  0.97389600  1
  H  95  1  0.46745600  0.52128350  0.91618550  1
  H  96  1  0.43258050  0.52114050  0.88111300  1
  H  97  1  0.40818800  0.47895700  0.93298900  1
  H  98  1  0.37329500  0.47896700  0.89809400  1
  H  99  1  0.36161300  0.51446650  0.88935250  1
  H  100  1  0.32667100  0.51421750  0.85449350  1
  H  101  1  0.35376600  0.48599000  0.79918200  1
  H  102  1  0.38833700  0.48568700  0.83386500  1
  H  103  1  0.49167700  0.54581100  0.08349500  1
  H  104  1  0.49179350  0.58065550  0.11857600  1
  H  105  1  0.49938750  0.65206200  0.11092150  1
  H  106  1  0.49960950  0.68696550  0.14580600  1
  H  107  1  0.52697600  0.65923850  0.20077150  1
  H  108  1  0.52726150  0.62467100  0.16605450  1
  H  109  1  0.53490000  0.64020400  0.10238000  1
  H  110  1  0.53490650  0.60533150  0.06745300  1
  H  111  1  0.55442450  0.37493100  0.88937950  1
  H  112  1  0.55451350  0.34032150  0.85452800  1
  H  113  1  0.47222600  0.34823850  0.83387350  1
  H  114  1  0.47211800  0.31325050  0.79919850  1
  H  187  1  0.49960400  0.79919900  0.34074300  1
  H  188  1  0.49933000  0.83391850  0.37532050  1
  H  189  1  0.52698600  0.85417450  0.31302950  1
  H  190  1  0.52722200  0.88906100  0.34794400  1
  H  191  1  0.49172200  0.89761900  0.35981500  1
  H  192  1  0.49173650  0.93255250  0.39470000  1
  H  193  1  0.53480050  0.88138300  0.41934050  1
  H  194  1  0.53493650  0.91647150  0.45419700  1
  H  195  1  0.47397850  0.89570550  0.43462000  1
  H  196  1  0.44836450  0.89570900  0.46111650  1
  H  197  1  0.50123200  0.97581350  0.48792350  1
  H  198  1  0.52538150  0.02410250  0.51207100  1
  H  199  1  0.55297750  0.97379800  0.43431750  1
  H  200  1  0.57873700  0.02608700  0.46006800  1
  H  201  1  0.55921750  0.08381500  0.47877350  1
  H  202  1  0.59409550  0.11888550  0.47891500  1
  H  203  1  0.61847700  0.06698450  0.52106650  1
  H  204  1  0.65337100  0.10187500  0.52105300  1
  H  205  1  0.57870350  0.10420750  0.53933900  1
  H  206  1  0.55221000  0.10421000  0.56494300  1
  H  207  1  0.44748700  0.97381050  0.53953150  1
  H  208  1  0.47403000  0.02610000  0.56607600  1
  H  209  1  0.55127200  0.08381050  0.60509850  1
  H  210  1  0.55147050  0.11888500  0.64002750  1
  H  211  1  0.47520000  0.06700750  0.54597050  1
  H  212  1  0.47520100  0.10190250  0.58087550  1
  H  213  1  0.47226250  0.11064450  0.62511700  1
  H  214  1  0.47218000  0.14550500  0.65972800  1
  H  215  1  0.55458450  0.20081500  0.68680750  1
  H  216  1  0.55447200  0.16613200  0.65182100  1
  H  217  1  0.40818100  0.91649850  0.46231250  1
  H  218  1  0.37321700  0.88141700  0.46207600  1
  H  219  1  0.38846250  0.88907650  0.54113800  1
  H  220  1  0.35380450  0.85419300  0.54116050  1
  H  221  1  0.32620500  0.79922300  0.45846700  1
  H  222  1  0.36120550  0.83394150  0.45861500  1
  H  223  1  0.43252000  0.89761900  0.53782400  1
  H  224  1  0.46745250  0.93254600  0.53787750  1
  H  225  1  0.66504500  0.11062050  0.48555550  1
  H  226  1  0.69998250  0.14547100  0.48579350  1
  H  227  1  0.63835150  0.16612650  0.51436500  1
  H  228  1  0.67291650  0.20079950  0.51404900  1
  H  301  1  0.15885650  0.65925950  0.45845700  1
  H  302  1  0.12400450  0.62468350  0.45860000  1
  H  303  1  0.21395500  0.68696550  0.54114250  1
  H  304  1  0.17927750  0.65205250  0.54111500  1
  H  305  1  0.13190850  0.64018400  0.53780750  1
  H  306  1  0.09703750  0.60529950  0.53785700  1
  H  307  1  0.11545300  0.58066300  0.46204000  1
  H  308  1  0.08073200  0.54580550  0.46227050  1
  H  309  1  0.03935350  0.56538500  0.46109150  1
  H  310  1  0.98724450  0.53888900  0.43460050  1
  H  311  1  0.01330600  0.51207400  0.48789000  1
  H  312  1  0.01331150  0.48792650  0.51203100  1
  H  313  1  0.11865750  0.56568100  0.53947850  1
  H  314  1  0.11866900  0.53992850  0.56601450  1
  H  315  1  0.08044500  0.52122850  0.60504350  1
  H  316  1  0.11518200  0.52108950  0.63997250  1
  H  317  1  0.09741100  0.47893550  0.54592050  1
  H  318  1  0.13232000  0.47895150  0.58082450  1
  H  319  1  0.03936600  0.46066600  0.56487400  1
  H  320  1  0.98726800  0.43505900  0.53927200  1
  H  321  1  0.90795400  0.46046900  0.43428300  1
  H  322  1  0.90795250  0.43392150  0.46002500  1
  H  323  1  0.94617650  0.39490100  0.47871450  1
  H  324  1  0.91144550  0.35997100  0.47885950  1
  H  325  1  0.92922850  0.45402550  0.52103800  1
  H  326  1  0.89432700  0.41912150  0.52102850  1
  H  327  1  0.84714600  0.37488000  0.48552700  1
  H  328  1  0.81245350  0.34027100  0.48577650  1
  H  329  1  0.86777700  0.31319100  0.51401000  1
  H  330  1  0.90265150  0.34817650  0.51431400  1
  H  331  1  0.94586150  0.53768500  0.45419350  1
  H  332  1  0.91113500  0.53792300  0.41934800  1
  H  333  1  0.84732200  0.45886150  0.34793850  1
  H  334  1  0.81264300  0.45884300  0.31303300  1
  H  335  1  0.86773700  0.54153750  0.34076550  1
  H  336  1  0.90258900  0.54138850  0.37533650  1
  H  337  1  0.89470050  0.46218350  0.35979800  1
  H  338  1  0.92957500  0.46212700  0.39466900  1
  H  339  1  0.17949200  0.51444800  0.62506800  1
  H  340  1  0.21419100  0.51421000  0.65968000  1
  H  341  1  0.12398750  0.48564150  0.65176700  1
  H  342  1  0.15887000  0.48595800  0.68675700  1
  H  691  1  0.47343950  0.73518650  0.25299500  1
  H  692  1  0.47333250  0.77004950  0.28757800  1
  H  699  1  0.55315400  0.74699450  0.26478950  1
  H  700  1  0.55326250  0.71241700  0.22992050  1
  H  701  1  0.47330950  0.68973850  0.17268400  1
  H  702  1  0.55327300  0.82729750  0.31023850  1
  H  703  1  0.47342450  0.72469050  0.20740000  1
  H  704  1  0.55315450  0.79258750  0.27527800  1
  H  711  1  0.53096450  0.26467550  0.72495100  1
  H  712  1  0.53070700  0.22983400  0.68999200  1
  H  719  1  0.53094200  0.25287100  0.79281500  1
  H  720  1  0.53064350  0.28743850  0.82749300  1
  H  721  1  0.49598950  0.31004400  0.77018250  1
  H  722  1  0.49605200  0.17254350  0.71261550  1
  H  723  1  0.49573150  0.27507650  0.73535000  1
  H  724  1  0.49575300  0.20722850  0.74717550  1
  H  731  1  0.22044300  0.74700300  0.48218600  1
  H  732  1  0.18575250  0.71242100  0.48246950  1
  H  739  1  0.28835950  0.73520700  0.48220150  1
  H  740  1  0.32333700  0.77007550  0.48249250  1
  H  741  1  0.30062600  0.82731500  0.51705500  1
  H  742  1  0.24303150  0.68976150  0.51706100  1
  H  743  1  0.26602500  0.79260050  0.51729350  1
  H  744  1  0.27787350  0.72471950  0.51730900  1
  H  751  1  0.80601300  0.27504550  0.53972350  1
  H  752  1  0.84071550  0.31000700  0.53984350  1
  H  759  1  0.73812750  0.20718350  0.46005700  1
  H  760  1  0.70315150  0.17250700  0.45994750  1
  H  761  1  0.72580650  0.22981500  0.53986350  1
  H  762  1  0.78343550  0.28738150  0.45992700  1
  H  763  1  0.76038000  0.26464750  0.53972750  1
  H  764  1  0.74857850  0.25282100  0.46005250  1
  H  771  1  0.73824900  0.51780900  0.26481200  1
  H  772  1  0.70327900  0.51752650  0.22994450  1
  H  779  1  0.80616000  0.51779250  0.25300450  1
  H  780  1  0.84084350  0.51750200  0.28758250  1
  H  781  1  0.78357000  0.48295400  0.31026700  1
  H  782  1  0.72598150  0.48294650  0.17270300  1
  H  783  1  0.74873400  0.48271550  0.27531250  1
  H  784  1  0.76057250  0.48269800  0.20741650  1
  H  791  1  0.26628550  0.46027950  0.73532400  1
  H  792  1  0.30086900  0.46015750  0.77016250  1
  H  799  1  0.27807300  0.53994800  0.74712900  1
  H  800  1  0.24320650  0.54005800  0.71256350  1
  H  801  1  0.18594650  0.46014350  0.68995700  1
  H  802  1  0.32351050  0.54007250  0.82745800  1
  H  803  1  0.22065550  0.46027750  0.72492400  1
  H  804  1  0.28852700  0.53995000  0.79277600  1
  N  4  1  0.53532200  0.52201600  0.04399000  1
  N  8  1  0.53583550  0.47753350  0.00004100  1
  N  14  1  0.49137900  0.47806600  0.95608800  1
  N  20  1  0.49086100  0.52254350  0.00003350  1
  N  118  1  0.49132450  0.95600850  0.47801800  1
  N  122  1  0.53579000  0.99995750  0.47748850  1
  N  128  1  0.53529250  0.04390800  0.52197950  1
  N  134  1  0.49082700  0.99996200  0.52250900  1
  N  232  1  0.01330350  0.52198100  0.47799050  1
  N  236  1  0.05830000  0.52251200  0.52247000  1
  N  242  1  0.01331250  0.47802400  0.52193350  1
  N  248  1  0.96831700  0.47748800  0.47745400  1
