# generated using pymatgen
data_H12C15N4
_symmetry_space_group_name_H-M   'P 1'
_cell_length_a   17.86735000
_cell_length_b   17.86735000
_cell_length_c   53.30120000
_cell_angle_alpha   89.99720000
_cell_angle_beta   89.99860000
_cell_angle_gamma   60.00000000
_symmetry_Int_Tables_number   1
_chemical_formula_structural   H12C15N4
_chemical_formula_sum   'H108 C135 N36'
_cell_volume   14736.28144506
_cell_formula_units_Z   9
loop_
 _symmetry_equiv_pos_site_id
 _symmetry_equiv_pos_as_xyz
  1  'x, y, z'
loop_
 _atom_site_type_symbol
 _atom_site_label
 _atom_site_symmetry_multiplicity
 _atom_site_fract_x
 _atom_site_fract_y
 _atom_site_fract_z
 _atom_site_occupancy
  C  1  1  0.05630300  0.87321450  0.98925250  1
  C  2  1  0.14763900  0.83016200  0.98726050  1
  C  3  1  0.14735200  0.97211100  0.98890650  1
  C  4  1  0.05582200  0.01949600  0.98984750  1
  C  5  1  0.01488400  0.11195100  0.99047600  1
  C  6  1  0.06164100  0.15739750  0.99034100  1
  C  7  1  0.15285800  0.10638150  0.98969450  1
  C  8  1  0.19474300  0.01592850  0.98896250  1
  C  9  1  0.19530400  0.73950000  0.98468700  1
  C  10  1  0.15400200  0.69044450  0.98443650  1
  C  11  1  0.06363500  0.72879900  0.98754950  1
  C  12  1  0.01622200  0.82079700  0.98955000  1
  C  13  1  0.95385200  0.99686350  0.01434500  1
  C  14  1  0.86224200  0.04321050  0.01377700  1
  C  15  1  0.86162300  0.04532500  0.96613750  1
  C  16  1  0.95317100  0.99840750  0.96544300  1
  C  17  1  0.81396500  0.07055400  0.94353900  1
  C  18  1  0.85551100  0.04944100  0.92015200  1
  C  19  1  0.94662200  0.00237400  0.91828250  1
  C  20  1  0.99374500  0.97780600  0.94126100  1
  C  21  1  0.99487900  0.97697600  0.03845850  1
  C  22  1  0.94803900  0.00127350  0.06151850  1
  C  23  1  0.85687000  0.04683200  0.05975300  1
  C  24  1  0.81494400  0.06717050  0.03643550  1
  C  37  1  0.00479200  0.97185800  0.98983250  1
  C  38  1  0.81242100  0.06943350  0.99000700  1
  C  41  1  0.19696200  0.87659050  0.98726600  1
  C  44  1  0.98732100  0.97871750  0.89461350  1
  C  45  1  0.02482400  0.67645500  0.98819200  1
  C  46  1  0.98882000  0.98512850  0.08518500  1
  C  50  1  0.02061700  0.24866500  0.99055300  1
  C  52  1  0.86707900  0.02581900  0.32275150  1
  C  53  1  0.82467500  0.97684500  0.32105400  1
  C  54  1  0.96748700  0.83603200  0.32219200  1
  C  55  1  0.01426700  0.88083550  0.32302050  1
  C  56  1  0.10681800  0.82983100  0.32347000  1
  C  57  1  0.15283900  0.73756300  0.32327950  1
  C  58  1  0.10232000  0.69682800  0.32263300  1
  C  59  1  0.01186900  0.74483250  0.32208250  1
  C  60  1  0.73386100  0.01907000  0.31898550  1
  C  61  1  0.68402000  0.10938550  0.31888200  1
  C  62  1  0.72184400  0.16204750  0.32155850  1
  C  63  1  0.81392500  0.11822950  0.32312900  1
  C  64  1  0.99045800  0.00583550  0.34763600  1
  C  65  1  0.03529300  0.05262350  0.34707150  1
  C  66  1  0.03670900  0.05187000  0.29944150  1
  C  67  1  0.99120100  0.00579300  0.29875150  1
  C  68  1  0.06044300  0.07585250  0.27684150  1
  C  69  1  0.03914100  0.05562400  0.25345550  1
  C  70  1  0.99342800  0.01019450  0.25159800  1
  C  71  1  0.97039300  0.98604450  0.27457250  1
  C  72  1  0.97086400  0.98442050  0.37175000  1
  C  73  1  0.99384200  0.00829700  0.39481250  1
  C  74  1  0.03804900  0.05525750  0.39304900  1
  C  75  1  0.05824900  0.07697650  0.36972950  1
  C  88  1  0.96573200  0.97957700  0.32313300  1
  C  89  1  0.06053900  0.07723900  0.32330550  1
  C  92  1  0.87192400  0.88112250  0.32093600  1
  C  95  1  0.96956500  0.99332200  0.22794700  1
  C  96  1  0.66904100  0.25312100  0.32221300  1
  C  97  1  0.97747100  0.98391900  0.41848750  1
  C  101  1  0.24414900  0.68744800  0.32346400  1
  C  103  1  0.01575600  0.06699600  0.65607500  1
  C  104  1  0.96677900  0.15837500  0.65438650  1
  C  105  1  0.82597000  0.15636550  0.65552650  1
  C  106  1  0.87077600  0.06478500  0.65634800  1
  C  107  1  0.81978000  0.02322850  0.65679650  1
  C  108  1  0.72751400  0.06946650  0.65660800  1
  C  109  1  0.68677200  0.16072200  0.65595900  1
  C  110  1  0.73476900  0.20317450  0.65541200  1
  C  111  1  0.00900300  0.20696650  0.65232200  1
  C  112  1  0.09931800  0.16649400  0.65222150  1
  C  113  1  0.15198500  0.07600250  0.65488400  1
  C  114  1  0.10816900  0.02773550  0.65645200  1
  C  115  1  0.99578300  0.96359600  0.68096500  1
  C  116  1  0.04257300  0.87197300  0.68039550  1
  C  117  1  0.04177200  0.87134000  0.63276150  1
  C  118  1  0.99571000  0.96292450  0.63207000  1
  C  119  1  0.06571600  0.82362600  0.61016250  1
  C  120  1  0.04546500  0.86515700  0.58677550  1
  C  121  1  0.00010400  0.95629800  0.58491250  1
  C  122  1  0.97595900  0.00348350  0.60788850  1
  C  123  1  0.97440100  0.00457050  0.70508500  1
  C  124  1  0.99829400  0.95769650  0.72814700  1
  C  125  1  0.04524900  0.86653100  0.72637350  1
  C  126  1  0.06696000  0.82464400  0.70305150  1
  C  139  1  0.96951600  0.01458400  0.65645850  1
  C  140  1  0.06716700  0.82213050  0.65662650  1
  C  143  1  0.87105500  0.20684300  0.65427000  1
  C  146  1  0.98325900  0.99700600  0.56125250  1
  C  147  1  0.24306000  0.03773350  0.65553400  1
  C  148  1  0.97396400  0.99839400  0.75183300  1
  C  152  1  0.67741000  0.02825950  0.65679250  1
  C  154  1  0.96570800  0.00528650  0.84934550  1
  C  156  1  0.05009600  0.91593100  0.81494500  1
  C  157  1  0.99409700  0.97692000  0.79720050  1
  C  159  1  0.90942600  0.06777200  0.83160800  1
  C  162  1  0.81266000  0.19154400  0.85586050  1
  C  165  1  0.66978400  0.26016850  0.87266600  1
  C  169  1  0.73664800  0.34580850  0.85786950  1
  C  175  1  0.99564200  0.98878850  0.18267800  1
  C  177  1  0.90615400  0.99345600  0.14836400  1
  C  178  1  0.96718600  0.98806100  0.13057250  1
  C  180  1  0.05803200  0.98251600  0.16489650  1
  C  183  1  0.18187900  0.95557750  0.18910750  1
  C  186  1  0.25063700  0.02980450  0.20582600  1
  C  190  1  0.33612600  0.87715100  0.19115500  1
  C  196  1  0.97900900  0.97520400  0.51596950  1
  C  198  1  0.98385100  0.05980050  0.48161350  1
  C  199  1  0.97878500  0.00390650  0.46384650  1
  C  201  1  0.97290000  0.91893550  0.49821200  1
  C  204  1  0.94573500  0.82222650  0.52244400  1
  C  207  1  0.01994400  0.67931850  0.53920950  1
  C  211  1  0.86732400  0.74639400  0.52450850  1
  C  217  1  0.06312500  0.52186950  0.99099850  1
  C  219  1  0.98017300  0.44899350  0.98861150  1
  C  220  1  0.05575400  0.36736900  0.99093950  1
  C  222  1  0.13889300  0.43974850  0.99367850  1
  C  225  1  0.25380800  0.46245400  0.00667000  1
  C  228  1  0.37144900  0.47431800  0.98953850  1
  C  232  1  0.38351300  0.40467900  0.03100650  1
  C  238  1  0.51513600  0.36955800  0.32513050  1
  C  240  1  0.44446400  0.52527100  0.32260950  1
  C  241  1  0.36219800  0.53275000  0.32483550  1
  C  243  1  0.43237500  0.37729900  0.32773400  1
  C  246  1  0.45305100  0.24003050  0.34039000  1
  C  249  1  0.46397000  0.11153300  0.32280200  1
  C  253  1  0.39371200  0.16843100  0.36424200  1
  C  259  1  0.35950900  0.07517750  0.65846150  1
  C  261  1  0.51521700  0.99012250  0.65593250  1
  C  262  1  0.52271900  0.06488650  0.65820050  1
  C  264  1  0.36727700  0.15015850  0.66114800  1
  C  267  1  0.23001500  0.26679850  0.67377500  1
  C  270  1  0.10152800  0.38425100  0.65611900  1
  C  274  1  0.15828700  0.39786500  0.69755500  1
  H  25  1  0.81922500  0.06730900  0.07553100  1
  H  26  1  0.74878700  0.10107350  0.03612900  1
  H  27  1  0.74781200  0.10426100  0.94394100  1
  H  28  1  0.81768200  0.06815250  0.90440450  1
  H  29  1  0.05978300  0.94359250  0.94042750  1
  H  30  1  0.06096200  0.94447200  0.03915250  1
  H  31  1  0.94882800  0.14709800  0.99093550  1
  H  32  1  0.19068700  0.13444850  0.98950700  1
  H  33  1  0.26087800  0.98195000  0.98822300  1
  H  34  1  0.95041300  0.85083800  0.99111150  1
  H  35  1  0.26107500  0.70824800  0.98263950  1
  H  36  1  0.19166600  0.62544950  0.98181400  1
  H  39  1  0.77034600  0.04126100  0.98984600  1
  H  40  1  0.77154500  0.13984250  0.99024950  1
  H  42  1  0.23503100  0.85961500  0.96997100  1
  H  43  1  0.24171900  0.85247950  0.00314900  1
  H  47  1  0.05091700  0.96812750  0.08594750  1
  H  48  1  0.04873800  0.93196450  0.89367100  1
  H  49  1  0.96087800  0.70409450  0.98759250  1
  H  51  1  0.95656400  0.28354150  0.99045100  1
  H  76  1  0.05748200  0.07349950  0.40883250  1
  H  77  1  0.09092300  0.11047900  0.36942450  1
  H  78  1  0.09305900  0.10940550  0.27724500  1
  H  79  1  0.05665900  0.07592750  0.23770650  1
  H  80  1  0.93706200  0.95331100  0.27374100  1
  H  81  1  0.93920000  0.95001200  0.37244800  1
  H  82  1  0.14157800  0.86114450  0.32390050  1
  H  83  1  0.13072700  0.63090100  0.32235250  1
  H  84  1  0.97830100  0.71224200  0.32142000  1
  H  85  1  0.84347200  0.15452750  0.32445900  1
  H  86  1  0.70303100  0.98402200  0.31723900  1
  H  87  1  0.61888500  0.13617700  0.31668100  1
  H  90  1  0.03130600  0.14762650  0.32322600  1
  H  91  1  0.13084000  0.04875300  0.32346900  1
  H  93  1  0.85441700  0.86002450  0.30373850  1
  H  94  1  0.84898400  0.85980700  0.33695150  1
  H  98  1  0.96108200  0.93837500  0.41928400  1
  H  99  1  0.92309200  0.97825350  0.22703750  1
  H  100  1  0.69636600  0.28970750  0.32145650  1
  H  102  1  0.27899200  0.71664700  0.32271700  1
  H  127  1  0.06350000  0.82883350  0.74215250  1
  H  128  1  0.10043000  0.75846500  0.70274050  1
  H  129  1  0.09927000  0.75745800  0.61056600  1
  H  130  1  0.06579400  0.82732850  0.57102800  1
  H  131  1  0.94324400  0.06954650  0.60705550  1
  H  132  1  0.93998400  0.07064200  0.70578800  1
  H  133  1  0.85109800  0.95715450  0.65722600  1
  H  134  1  0.62084300  0.19823750  0.65567750  1
  H  135  1  0.70217300  0.26933600  0.65475050  1
  H  136  1  0.14446600  0.96189100  0.65777350  1
  H  137  1  0.97395300  0.27284750  0.65058850  1
  H  138  1  0.12611600  0.20483400  0.65002450  1
  H  141  1  0.13755100  0.78098100  0.65654050  1
  H  142  1  0.03868200  0.78031550  0.65679250  1
  H  144  1  0.84995000  0.24545950  0.63707250  1
  H  145  1  0.84974400  0.25109150  0.67028650  1
  H  149  1  0.92839200  0.06031350  0.75264150  1
  H  150  1  0.96820800  0.05853800  0.56033450  1
  H  151  1  0.27964900  0.97382650  0.65474800  1
  H  153  1  0.70661000  0.96422350  0.65602150  1
  H  160  1  0.10152200  0.85850050  0.80931550  1
  H  164  1  0.85006500  0.17900000  0.87089700  1
  H  166  1  0.66475700  0.20280350  0.86873000  1
  H  167  1  0.60548600  0.31641550  0.87021050  1
  H  168  1  0.68930500  0.25782350  0.89223050  1
  H  170  1  0.67276400  0.40231350  0.85505700  1
  H  171  1  0.77966200  0.34829550  0.84373200  1
  H  172  1  0.75997000  0.35021950  0.87647600  1
  H  181  1  0.84878600  0.99920600  0.14277900  1
  H  185  1  0.16927600  0.93093100  0.20418150  1
  H  187  1  0.19336000  0.09221100  0.20184000  1
  H  188  1  0.30696600  0.03771100  0.20336100  1
  H  189  1  0.24816900  0.01283800  0.22540450  1
  H  191  1  0.39270800  0.88439150  0.18832800  1
  H  192  1  0.33858700  0.83154600  0.17705900  1
  H  193  1  0.34042000  0.84962100  0.20978550  1
  H  202  1  0.98978700  0.11128850  0.47600500  1
  H  206  1  0.92098500  0.85957700  0.53749450  1
  H  208  1  0.08235400  0.67418600  0.53522600  1
  H  209  1  0.02786800  0.61506650  0.53676750  1
  H  210  1  0.00293800  0.69882550  0.55878250  1
  H  212  1  0.87458600  0.68255500  0.52170250  1
  H  213  1  0.82175100  0.78947900  0.51039750  1
  H  214  1  0.83974300  0.76969800  0.54313100  1
  H  223  1  0.92109200  0.45385150  0.98657150  1
  H  227  1  0.21807300  0.51666650  0.01629450  1
  H  229  1  0.34324700  0.48380200  0.97079150  1
  H  230  1  0.44156200  0.43793700  0.98734800  1
  H  231  1  0.35324400  0.53735900  0.99761850  1
  H  233  1  0.45377700  0.36859500  0.02924000  1
  H  234  1  0.36452200  0.36415750  0.04146500  1
  H  235  1  0.36505200  0.46336100  0.04182900  1
  H  244  1  0.45037700  0.57887850  0.32051400  1
  H  248  1  0.50729400  0.22068450  0.35008100  1
  H  250  1  0.47405700  0.13051900  0.30417300  1
  H  251  1  0.42714400  0.07833100  0.32035200  1
  H  252  1  0.52675300  0.06607900  0.33093600  1
  H  254  1  0.35717300  0.13476800  0.36220150  1
  H  255  1  0.35337700  0.22772800  0.37478800  1
  H  256  1  0.45209400  0.12752700  0.37511900  1
  H  265  1  0.56881400  0.93061850  0.65379200  1
  H  269  1  0.21057200  0.23191450  0.68343300  1
  H  271  1  0.12058000  0.35505800  0.63750800  1
  H  272  1  0.06832700  0.45425900  0.65363100  1
  H  273  1  0.05605800  0.36696100  0.66426500  1
  H  275  1  0.12459400  0.46805550  0.69547900  1
  H  276  1  0.21754900  0.37899850  0.70811000  1
  H  277  1  0.11738200  0.38041500  0.70844300  1
  N  155  1  0.03353200  0.93167900  0.83992650  1
  N  158  1  0.92572800  0.04995200  0.80663100  1
  N  161  1  0.83778500  0.14152200  0.83666000  1
  N  163  1  0.73198500  0.26527800  0.85514250  1
  N  173  1  0.94747800  0.01422650  0.87393900  1
  N  174  1  0.00623100  0.95779550  0.77267850  1
  N  176  1  0.92200400  0.99446450  0.17332650  1
  N  179  1  0.04023000  0.98356200  0.13993450  1
  N  182  1  0.13186100  0.98032100  0.16990500  1
  N  184  1  0.25568800  0.96238650  0.18835700  1
  N  194  1  0.00476000  0.99804400  0.20725750  1
  N  195  1  0.94807000  0.99451750  0.10606150  1
  N  197  1  0.98468500  0.04313550  0.50658800  1
  N  200  1  0.97427600  0.93541450  0.47324450  1
  N  203  1  0.97065200  0.84734900  0.50324550  1
  N  205  1  0.95255700  0.74160500  0.52172100  1
  N  215  1  0.98808600  0.95703700  0.54056350  1
  N  216  1  0.98581500  0.01614100  0.43933800  1
  N  218  1  0.98682400  0.52212050  0.98852350  1
  N  221  1  0.13099500  0.36799550  0.99320150  1
  N  224  1  0.21974600  0.42280500  0.99575200  1
  N  226  1  0.34282400  0.42538900  0.00569350  1
  N  236  1  0.07003900  0.59314700  0.98985350  1
  N  237  1  0.06382600  0.28887600  0.99079850  1
  N  239  1  0.51678000  0.44489500  0.32262950  1
  N  242  1  0.36141100  0.45755950  0.32713950  1
  N  245  1  0.41429300  0.31407150  0.32961700  1
  N  247  1  0.41521400  0.18878400  0.33908700  1
  N  257  1  0.58578100  0.29088900  0.32399050  1
  N  258  1  0.28433400  0.60402400  0.32443400  1
  N  260  1  0.43483400  0.99820300  0.65593450  1
  N  263  1  0.44753800  0.14085400  0.66053850  1
  N  266  1  0.30407100  0.23147900  0.66301300  1
  N  268  1  0.17872800  0.35586750  0.67242200  1
  N  278  1  0.28082800  0.08322050  0.65732700  1
  N  279  1  0.59398800  0.07148500  0.65778600  1
