# generated using pymatgen
data_EuH8C16NO7
_symmetry_space_group_name_H-M   'P 1'
_cell_length_a   14.48061000
_cell_length_b   23.54901568
_cell_length_c   26.52369361
_cell_angle_alpha   85.17036063
_cell_angle_beta   74.13887085
_cell_angle_gamma   72.22700357
_symmetry_Int_Tables_number   1
_chemical_formula_structural   EuH8C16NO7
_chemical_formula_sum   'Eu8 H64 C128 N8 O56'
_cell_volume   8285.08929762
_cell_formula_units_Z   8
loop_
 _symmetry_equiv_pos_site_id
 _symmetry_equiv_pos_as_xyz
  1  'x, y, z'
loop_
 _atom_site_type_symbol
 _atom_site_label
 _atom_site_symmetry_multiplicity
 _atom_site_fract_x
 _atom_site_fract_y
 _atom_site_fract_z
 _atom_site_occupancy
  Eu  Eu0  1  0.16623000  0.74971000  0.16822000  1
  Eu  Eu1  1  0.58449000  0.75023000  0.33162000  1
  Eu  Eu2  1  0.83372000  0.25049000  0.83168000  1
  Eu  Eu3  1  0.41550000  0.25025000  0.66814000  1
  Eu  Eu4  1  0.91458000  0.66815000  0.25057000  1
  Eu  Eu5  1  0.33354000  0.83176000  0.24981000  1
  Eu  Eu6  1  0.08525000  0.33201000  0.74941000  1
  Eu  Eu7  1  0.66641000  0.16850000  0.75024000  1
  H  H8  1  0.76216000  0.78830000  0.22246000  1
  H  H9  1  0.58336000  0.90920000  0.13046000  1
  H  H10  1  0.90747000  0.87100000  0.08655000  1
  H  H11  1  0.57740000  0.99275000  0.96163000  1
  H  H12  1  0.61187000  0.05977000  0.88578000  1
  H  H13  1  0.82738000  0.10245000  0.94785000  1
  H  H14  1  0.79785000  0.03307000  0.02272000  1
  H  H15  1  0.81129000  0.93894000  0.04038000  1
  H  H16  1  0.51623000  0.71314000  0.22086000  1
  H  H17  1  0.78634000  0.59131000  0.12958000  1
  H  H18  1  0.50578000  0.62875000  0.08626000  1
  H  H19  1  0.96075000  0.50680000  0.96225000  1
  H  H20  1  0.00398000  0.43988000  0.88622000  1
  H  H21  1  0.72653000  0.39662000  0.94687000  1
  H  H22  1  0.67963000  0.46582000  0.02201000  1
  H  H23  1  0.64751000  0.56034000  0.04047000  1
  H  H24  1  0.94882000  0.78725000  0.27942000  1
  H  H25  1  0.00680000  0.90913000  0.37064000  1
  H  H26  1  0.72023000  0.87169000  0.41414000  1
  H  H27  1  0.92850000  0.99394000  0.53829000  1
  H  H28  1  0.82809000  0.06080000  0.61426000  1
  H  H29  1  0.56928000  0.10314000  0.55309000  1
  H  H30  1  0.66682000  0.03393000  0.47818000  1
  H  H31  1  0.74795000  0.94009000  0.45961000  1
  H  H32  1  0.27289000  0.71169000  0.27715000  1
  H  H33  1  0.12229000  0.59109000  0.36978000  1
  H  H34  1  0.36527000  0.62919000  0.41290000  1
  H  H35  1  0.03262000  0.50649000  0.53814000  1
  H  H36  1  0.05846000  0.44034000  0.61442000  1
  H  H37  1  0.37830000  0.39856000  0.55202000  1
  H  H38  1  0.35404000  0.46725000  0.47681000  1
  H  H39  1  0.29026000  0.56169000  0.45959000  1
  H  H40  1  0.23732000  0.21216000  0.77763000  1
  H  H41  1  0.41646000  0.09113000  0.86937000  1
  H  H42  1  0.09244000  0.12894000  0.91328000  1
  H  H43  1  0.42288000  0.00752000  0.03802000  1
  H  H44  1  0.38835000  0.94101000  0.11414000  1
  H  H45  1  0.17277000  0.89794000  0.05234000  1
  H  H46  1  0.20244000  0.96687000  0.97722000  1
  H  H47  1  0.18868000  0.06099000  0.95934000  1
  H  H48  1  0.48359000  0.28698000  0.77916000  1
  H  H49  1  0.21364000  0.40880000  0.87040000  1
  H  H50  1  0.49411000  0.37139000  0.91377000  1
  H  H51  1  0.03889000  0.49338000  0.03762000  1
  H  H52  1  0.99618000  0.56003000  0.11372000  1
  H  H53  1  0.27364000  0.60311000  0.05314000  1
  H  H54  1  0.32038000  0.53418000  0.97797000  1
  H  H55  1  0.35223000  0.43943000  0.95984000  1
  H  H56  1  0.05126000  0.21278000  0.72061000  1
  H  H57  1  0.99330000  0.09079000  0.62946000  1
  H  H58  1  0.27982000  0.12836000  0.58591000  1
  H  H59  1  0.07153000  0.00629000  0.46175000  1
  H  H60  1  0.17196000  0.93934000  0.38571000  1
  H  H61  1  0.43084000  0.89696000  0.44695000  1
  H  H62  1  0.33317000  0.96626000  0.52188000  1
  H  H63  1  0.25207000  0.05992000  0.54048000  1
  H  H64  1  0.72685000  0.28865000  0.72283000  1
  H  H65  1  0.87784000  0.40903000  0.63011000  1
  H  H66  1  0.63482000  0.37103000  0.58698000  1
  H  H67  1  0.96705000  0.49383000  0.46172000  1
  H  H68  1  0.94105000  0.56001000  0.38550000  1
  H  H69  1  0.62118000  0.60176000  0.44810000  1
  H  H70  1  0.64562000  0.53296000  0.52320000  1
  H  H71  1  0.70970000  0.43838000  0.54030000  1
  C  C72  1  0.94701000  0.79214000  0.16199000  1
  C  C73  1  0.84555000  0.82487000  0.15399000  1
  C  C74  1  0.75798000  0.81701000  0.18841000  1
  C  C75  1  0.66411000  0.84752000  0.17966000  1
  C  C76  1  0.65616000  0.88637000  0.13725000  1
  C  C77  1  0.74405000  0.89579000  0.10363000  1
  C  C78  1  0.83838000  0.86472000  0.11220000  1
  C  C79  1  0.57130000  0.83903000  0.21752000  1
  C  C80  1  0.66230000  0.96714000  0.04134000  1
  C  C81  1  0.68773000  0.00677000  0.99614000  1
  C  C82  1  0.63421000  0.01530000  0.95787000  1
  C  C83  1  0.65289000  0.05318000  0.91561000  1
  C  C84  1  0.72299000  0.08437000  0.91194000  1
  C  C85  1  0.77516000  0.07678000  0.95073000  1
  C  C86  1  0.75867000  0.03762000  0.99224000  1
  C  C87  1  0.74074000  0.12738000  0.86792000  1
  C  C88  1  0.39114000  0.70803000  0.16073000  1
  C  C89  1  0.50075000  0.67562000  0.15306000  1
  C  C90  1  0.55420000  0.68406000  0.18708000  1
  C  C91  1  0.65686000  0.65370000  0.17832000  1
  C  C92  1  0.70678000  0.61416000  0.13635000  1
  C  C93  1  0.65228000  0.60425000  0.10306000  1
  C  C94  1  0.54954000  0.63540000  0.11156000  1
  C  C95  1  0.71253000  0.66310000  0.21551000  1
  C  C96  1  0.79567000  0.53254000  0.04100000  1
  C  C97  1  0.81577000  0.49276000  0.99591000  1
  C  C98  1  0.90802000  0.48431000  0.95802000  1
  C  C99  1  0.93273000  0.44644000  0.91573000  1
  C  C100  1  0.86670000  0.41520000  0.91169000  1
  C  C101  1  0.77528000  0.42255000  0.95009000  1
  C  C102  1  0.74929000  0.46168000  0.99165000  1
  C  C103  1  0.89398000  0.37224000  0.86772000  1
  C  C104  1  0.75909000  0.79222000  0.33949000  1
  C  C105  1  0.82846000  0.82474000  0.34725000  1
  C  C106  1  0.92420000  0.81638000  0.31315000  1
  C  C107  1  0.98791000  0.84683000  0.32181000  1
  C  C108  1  0.95672000  0.88630000  0.36380000  1
  C  C109  1  0.85909000  0.89616000  0.39713000  1
  C  C110  1  0.79582000  0.86496000  0.38871000  1
  C  C111  1  0.08999000  0.83710000  0.28442000  1
  C  C112  1  0.86915000  0.96784000  0.45923000  1
  C  C113  1  0.80398000  0.00774000  0.50417000  1
  C  C114  1  0.84923000  0.01638000  0.54230000  1
  C  C115  1  0.79330000  0.05411000  0.58462000  1
  C  C116  1  0.69213000  0.08508000  0.58855000  1
  C  C117  1  0.64709000  0.07745000  0.54996000  1
  C  C118  1  0.70216000  0.03842000  0.50838000  1
  C  C119  1  0.63208000  0.12807000  0.63250000  1
  C  C120  1  0.40229000  0.70740000  0.33719000  1
  C  C121  1  0.32475000  0.67508000  0.34542000  1
  C  C122  1  0.26327000  0.68307000  0.31128000  1
  C  C123  1  0.19052000  0.65283000  0.32043000  1
  C  C124  1  0.17931000  0.61386000  0.36281000  1
  C  C125  1  0.24339000  0.60436000  0.39618000  1
  C  C126  1  0.31543000  0.63541000  0.38737000  1
  C  C127  1  0.12583000  0.66170000  0.28318000  1
  C  C128  1  0.17140000  0.53251000  0.45813000  1
  C  C129  1  0.19119000  0.49299000  0.50340000  1
  C  C130  1  0.10818000  0.48436000  0.54188000  1
  C  C131  1  0.12257000  0.44696000  0.58439000  1
  C  C132  1  0.22011000  0.41627000  0.58809000  1
  C  C133  1  0.30333000  0.42391000  0.54911000  1
  C  C134  1  0.28904000  0.46265000  0.50739000  1
  C  C135  1  0.23713000  0.37340000  0.63210000  1
  C  C136  1  0.05278000  0.20798000  0.83794000  1
  C  C137  1  0.15420000  0.17532000  0.84595000  1
  C  C138  1  0.24167000  0.18335000  0.81160000  1
  C  C139  1  0.33562000  0.15291000  0.82026000  1
  C  C140  1  0.34364000  0.11396000  0.86261000  1
  C  C141  1  0.25579000  0.10441000  0.89620000  1
  C  C142  1  0.16143000  0.13538000  0.88767000  1
  C  C143  1  0.42819000  0.16157000  0.78224000  1
  C  C144  1  0.33769000  0.03329000  0.95845000  1
  C  C145  1  0.31256000  0.99347000  0.00363000  1
  C  C146  1  0.36591000  0.98505000  0.04197000  1
  C  C147  1  0.34719000  0.94730000  0.08439000  1
  C  C148  1  0.27717000  0.91599000  0.08812000  1
  C  C149  1  0.22500000  0.92362000  0.04934000  1
  C  C150  1  0.24154000  0.96262000  0.00770000  1
  C  C151  1  0.25928000  0.87269000  0.13191000  1
  C  C152  1  0.60880000  0.29209000  0.83930000  1
  C  C153  1  0.49923000  0.32443000  0.84697000  1
  C  C154  1  0.44574000  0.31603000  0.81296000  1
  C  C155  1  0.34311000  0.34644000  0.82168000  1
  C  C156  1  0.29319000  0.38597000  0.86363000  1
  C  C157  1  0.34778000  0.39582000  0.89691000  1
  C  C158  1  0.45047000  0.36467000  0.88844000  1
  C  C159  1  0.28746000  0.33705000  0.78448000  1
  C  C160  1  0.20449000  0.46792000  0.95832000  1
  C  C161  1  0.18392000  0.50747000  0.00370000  1
  C  C162  1  0.09177000  0.51584000  0.04169000  1
  C  C163  1  0.06735000  0.55350000  0.08413000  1
  C  C164  1  0.13340000  0.58467000  0.08830000  1
  C  C165  1  0.22476000  0.57730000  0.04987000  1
  C  C166  1  0.25051000  0.53838000  0.00819000  1
  C  C167  1  0.10613000  0.62768000  0.13228000  1
  C  C168  1  0.24100000  0.20787000  0.66058000  1
  C  C169  1  0.17170000  0.17526000  0.65285000  1
  C  C170  1  0.07591000  0.18363000  0.68689000  1
  C  C171  1  0.01216000  0.15322000  0.67822000  1
  C  C172  1  0.04337000  0.11365000  0.63629000  1
  C  C173  1  0.14097000  0.10387000  0.60296000  1
  C  C174  1  0.20426000  0.13508000  0.61136000  1
  C  C175  1  0.91007000  0.16297000  0.71556000  1
  C  C176  1  0.13088000  0.03224000  0.54082000  1
  C  C177  1  0.19612000  0.99241000  0.49582000  1
  C  C178  1  0.15081000  0.98382000  0.45769000  1
  C  C179  1  0.20672000  0.94607000  0.41537000  1
  C  C180  1  0.30789000  0.91508000  0.41149000  1
  C  C181  1  0.35304000  0.92268000  0.45006000  1
  C  C182  1  0.29795000  0.96174000  0.49163000  1
  C  C183  1  0.36778000  0.87205000  0.36757000  1
  C  C184  1  0.59755000  0.29291000  0.66274000  1
  C  C185  1  0.67517000  0.32517000  0.65451000  1
  C  C186  1  0.73659000  0.31721000  0.68868000  1
  C  C187  1  0.80951000  0.34735000  0.67946000  1
  C  C188  1  0.82081000  0.38627000  0.63705000  1
  C  C189  1  0.75668000  0.39581000  0.60370000  1
  C  C190  1  0.68464000  0.36476000  0.61252000  1
  C  C191  1  0.87403000  0.33861000  0.71678000  1
  C  C192  1  0.82851000  0.46766000  0.54172000  1
  C  C193  1  0.80852000  0.50726000  0.49651000  1
  C  C194  1  0.89145000  0.51595000  0.45800000  1
  C  C195  1  0.87694000  0.55343000  0.41554000  1
  C  C196  1  0.77931000  0.58421000  0.41195000  1
  C  C197  1  0.69621000  0.57642000  0.45093000  1
  C  C198  1  0.71060000  0.53757000  0.49259000  1
  C  C199  1  0.76233000  0.62721000  0.36799000  1
  N  N200  1  0.74299000  0.93543000  0.06119000  1
  N  N201  1  0.69527000  0.56405000  0.06100000  1
  N  N202  1  0.82000000  0.93643000  0.43910000  1
  N  N203  1  0.23979000  0.56469000  0.43860000  1
  N  N204  1  0.25692000  0.06459000  0.93852000  1
  N  N205  1  0.30487000  0.43600000  0.93894000  1
  N  N206  1  0.18003000  0.06361000  0.56099000  1
  N  N207  1  0.76017000  0.43545000  0.56128000  1
  O  O208  1  0.02282000  0.80608000  0.13349000  1
  O  O209  1  0.95385000  0.75180000  0.19771000  1
  O  O210  1  0.57976000  0.81968000  0.26280000  1
  O  O211  1  0.49042000  0.85150000  0.20321000  1
  O  O212  1  0.57666000  0.96281000  0.05924000  1
  O  O213  1  0.72104000  0.11999000  0.82521000  1
  O  O214  1  0.77426000  0.16870000  0.87611000  1
  O  O215  1  0.34527000  0.69428000  0.13136000  1
  O  O216  1  0.34674000  0.74780000  0.19689000  1
  O  O217  1  0.65976000  0.68569000  0.25995000  1
  O  O218  1  0.80795000  0.64833000  0.20160000  1
  O  O219  1  0.86349000  0.53721000  0.05863000  1
  O  O220  1  0.95668000  0.37976000  0.82521000  1
  O  O221  1  0.85232000  0.33086000  0.87610000  1
  O  O222  1  0.67007000  0.80573000  0.36876000  1
  O  O223  1  0.79102000  0.75258000  0.30318000  1
  O  O224  1  0.10289000  0.81460000  0.24009000  1
  O  O225  1  0.15755000  0.85132000  0.29814000  1
  O  O226  1  0.95948000  0.96289000  0.44189000  1
  O  O227  1  0.65887000  0.12046000  0.67529000  1
  O  O228  1  0.55813000  0.16957000  0.62394000  1
  O  O229  1  0.46204000  0.69410000  0.36644000  1
  O  O230  1  0.40693000  0.74663000  0.30055000  1
  O  O231  1  0.15866000  0.68188000  0.23794000  1
  O  O232  1  0.04338000  0.64881000  0.29806000  1
  O  O233  1  0.09996000  0.53665000  0.43978000  1
  O  O234  1  0.16725000  0.38012000  0.67475000  1
  O  O235  1  0.32060000  0.33271000  0.62392000  1
  O  O236  1  0.97702000  0.19397000  0.86644000  1
  O  O237  1  0.04592000  0.24828000  0.80219000  1
  O  O238  1  0.41883000  0.18181000  0.73731000  1
  O  O239  1  0.50967000  0.14857000  0.79602000  1
  O  O240  1  0.42292000  0.03830000  0.94059000  1
  O  O241  1  0.27942000  0.87967000  0.17460000  1
  O  O242  1  0.22510000  0.83169000  0.12367000  1
  O  O243  1  0.65471000  0.30575000  0.86868000  1
  O  O244  1  0.65309000  0.25242000  0.80303000  1
  O  O245  1  0.34028000  0.31461000  0.74001000  1
  O  O246  1  0.19205000  0.35163000  0.79840000  1
  O  O247  1  0.13758000  0.46361000  0.93974000  1
  O  O248  1  0.04334000  0.62021000  0.17479000  1
  O  O249  1  0.14768000  0.66910000  0.12396000  1
  O  O250  1  0.33003000  0.19436000  0.63134000  1
  O  O251  1  0.20884000  0.24766000  0.69678000  1
  O  O252  1  0.89704000  0.18547000  0.75993000  1
  O  O253  1  0.84255000  0.14874000  0.70183000  1
  O  O254  1  0.04058000  0.03713000  0.55815000  1
  O  O255  1  0.34075000  0.87964000  0.32486000  1
  O  O256  1  0.44176000  0.83055000  0.37608000  1
  O  O257  1  0.53818000  0.30601000  0.63328000  1
  O  O258  1  0.59247000  0.25390000  0.69955000  1
  O  O259  1  0.84062000  0.31898000  0.76217000  1
  O  O260  1  0.95672000  0.35122000  0.70185000  1
  O  O261  1  0.90004000  0.46345000  0.56001000  1
  O  O262  1  0.83231000  0.62019000  0.32535000  1
  O  O263  1  0.67904000  0.66808000  0.37617000  1
