# generated using pymatgen
data_ScH4C8O5
_symmetry_space_group_name_H-M   'P 1'
_cell_length_a   12.50871000
_cell_length_b   15.48768000
_cell_length_c   25.21196791
_cell_angle_alpha   107.87417318
_cell_angle_beta   104.36772604
_cell_angle_gamma   89.98236000
_symmetry_Int_Tables_number   1
_chemical_formula_structural   ScH4C8O5
_chemical_formula_sum   'Sc12 H48 C96 O60'
_cell_volume   4487.92358912
_cell_formula_units_Z   12
loop_
 _symmetry_equiv_pos_site_id
 _symmetry_equiv_pos_as_xyz
  1  'x, y, z'
loop_
 _atom_site_type_symbol
 _atom_site_label
 _atom_site_symmetry_multiplicity
 _atom_site_fract_x
 _atom_site_fract_y
 _atom_site_fract_z
 _atom_site_occupancy
  Sc  Sc1  1  0.73057000  0.17073000  0.21077000  1.0
  Sc  Sc2  1  0.43690000  0.12647000  0.12274000  1.0
  Sc  Sc3  1  0.85306000  0.66218000  0.45610000  1.0
  Sc  Sc4  1  0.98036000  0.03980000  0.21068000  1.0
  Sc  Sc5  1  0.18656000  0.99578000  0.12283000  1.0
  Sc  Sc6  1  0.10346000  0.79301000  0.45601000  1.0
  Sc  Sc7  1  0.51990000  0.32880000  0.78940000  1.0
  Sc  Sc8  1  0.31363000  0.37275000  0.87712000  1.0
  Sc  Sc9  1  0.39721000  0.83774000  0.54400000  1.0
  Sc  Sc10  1  0.77022000  0.45983000  0.78944000  1.0
  Sc  Sc11  1  0.06393000  0.50434000  0.87720000  1.0
  Sc  Sc12  1  0.64693000  0.70625000  0.54395000  1.0
  H  H1  1  0.58691000  0.02223000  0.16082000  1.0
  H  H2  1  0.32528000  0.31102000  0.25049000  1.0
  H  H3  1  0.19492000  0.27088000  0.29085000  1.0
  H  H4  1  0.91954000  0.41682000  0.33347000  1.0
  H  H5  1  0.23767000  0.56204000  0.37582000  1.0
  H  H6  1  0.40869000  0.52192000  0.41636000  1.0
  H  H7  1  0.66374333  0.41614000  0.33333333  1.0
  H  H8  1  0.84130000  0.22812000  0.08314000  1.0
  H  H9  1  0.97123000  0.14643000  0.04201000  1.0
  H  H10  1  0.07312000  0.13729000  0.16027000  1.0
  H  H11  1  0.42488000  0.93939000  0.25038000  1.0
  H  H12  1  0.59652000  0.01987000  0.29071000  1.0
  H  H13  1  0.91418000  0.91651000  0.33364000  1.0
  H  H14  1  0.63812000  0.81386000  0.37590000  1.0
  H  H15  1  0.50787000  0.89441000  0.41634000  1.0
  H  H16  1  0.16965333  0.91707000  0.33333333  1.0
  H  H17  1  0.74200000  0.85504000  0.08314000  1.0
  H  H18  1  0.57068000  0.89550000  0.04191000  1.0
  H  H19  1  0.42515000  0.47663000  0.83896000  1.0
  H  H20  1  0.07513000  0.18877000  0.74954000  1.0
  H  H21  1  0.90444000  0.22892000  0.70899000  1.0
  H  H22  1  0.58627000  0.08369000  0.66671000  1.0
  H  H23  1  0.86162000  0.93773000  0.62412000  1.0
  H  H24  1  0.99233000  0.97782000  0.58367000  1.0
  H  H25  1  0.33047000  0.08318000  0.66661000  1.0
  H  H26  1  0.75789000  0.27201000  0.91684000  1.0
  H  H27  1  0.92995000  0.35356000  0.95787000  1.0
  H  H28  1  0.91407000  0.36201000  0.83987000  1.0
  H  H29  1  0.17469000  0.56086000  0.74952000  1.0
  H  H30  1  0.30481000  0.48030000  0.70916000  1.0
  H  H31  1  0.58068000  0.58315000  0.66685000  1.0
  H  H32  1  0.26286000  0.68627000  0.62394000  1.0
  H  H33  1  0.09100000  0.60566000  0.58349000  1.0
  H  H34  1  0.83634000  0.58341000  0.66678000  1.0
  H  H35  1  0.65881000  0.64485000  0.91696000  1.0
  H  H36  1  0.52861000  0.60423000  0.95804000  1.0
  H  H37  1  0.35294000  0.10351000  0.20554000  1.0
  H  H38  1  0.14719000  0.39717000  0.79436000  1.0
  H  H39  1  0.81375000  0.06388000  0.12750000  1.0
  H  H40  1  0.68657000  0.43698000  0.87253000  1.0
  H  H41  1  0.01968000  0.77039000  0.53904000  1.0
  H  H42  1  0.48044000  0.73067000  0.46096000  1.0
  H  H43  1  0.74910000  0.80761000  0.49966000  1.0
  H  H44  1  0.25065000  0.69152000  0.50049000  1.0
  H  H45  1  0.50303000  0.24999000  0.00002000  1.0
  H  H46  1  0.24751000  0.24951000  0.00010000  1.0
  H  H47  1  0.99706000  0.74982000  0.99999000  1.0
  H  H48  1  0.25278000  0.75012000  0.00005000  1.0
  C  C1  1  0.53290000  0.28616000  0.24081000  1.0
  C  C2  1  0.49763000  0.35499000  0.28804000  1.0
  C  C3  1  0.38536000  0.35679000  0.28750000  1.0
  C  C4  1  0.35080000  0.41646000  0.33341000  1.0
  C  C5  1  0.23240000  0.41644000  0.33343000  1.0
  C  C6  1  0.16257000  0.33544000  0.30909000  1.0
  C  C7  1  0.04996000  0.33578000  0.30795000  1.0
  C  C8  1  0.97528000  0.25027000  0.27829000  1.0
  C  C9  1  0.00647000  0.41667000  0.33347000  1.0
  C  C10  1  0.07568000  0.49739000  0.35898000  1.0
  C  C11  1  0.03117000  0.58324000  0.38843000  1.0
  C  C12  1  0.18708000  0.49750000  0.35773000  1.0
  C  C13  1  0.43148000  0.47607000  0.37928000  1.0
  C  C14  1  0.54319000  0.47756000  0.37870000  1.0
  C  C15  1  0.57682333  0.41625000  0.33333333  1.0
  C  C16  1  0.62613000  0.54606000  0.42599000  1.0
  C  C17  1  0.63319000  0.21332000  0.09279000  1.0
  C  C18  1  0.66907000  0.23440000  0.04551000  1.0
  C  C19  1  0.78132000  0.23673000  0.04604000  1.0
  C  C20  1  0.00408000  0.19316000  0.02423000  1.0
  C  C21  1  0.11683000  0.19445000  0.02558000  1.0
  C  C22  1  0.19094000  0.13798000  0.05506000  1.0
  C  C23  1  0.20773000  0.95434000  0.24083000  1.0
  C  C24  1  0.29041000  0.93285000  0.28805000  1.0
  C  C25  1  0.40211000  0.93063000  0.28747000  1.0
  C  C26  1  0.48272000  0.91699000  0.33342000  1.0
  C  C27  1  0.60126000  0.91707000  0.33351000  1.0
  C  C28  1  0.64687000  0.97355000  0.30909000  1.0
  C  C29  1  0.75836000  0.97184000  0.30798000  1.0
  C  C30  1  0.80342000  0.02720000  0.27809000  1.0
  C  C31  1  0.82729000  0.91662000  0.33365000  1.0
  C  C32  1  0.78358000  0.86146000  0.35919000  1.0
  C  C33  1  0.85762000  0.80476000  0.38849000  1.0
  C  C34  1  0.67087000  0.86029000  0.35789000  1.0
  C  C35  1  0.44792000  0.90318000  0.37929000  1.0
  C  C36  1  0.33562000  0.90098000  0.37873000  1.0
  C  C37  1  0.25655333  0.91696000  0.33333333  1.0
  C  C38  1  0.29977000  0.87969000  0.42596000  1.0
  C  C39  1  0.95974000  0.87919000  0.09295000  1.0
  C  C40  1  0.87657000  0.81105000  0.04549000  1.0
  C  C41  1  0.76485000  0.80938000  0.04602000  1.0
  C  C42  1  0.52023000  0.83089000  0.02411000  1.0
  C  C43  1  0.40887000  0.83070000  0.02544000  1.0
  C  C44  1  0.36447000  0.91656000  0.05502000  1.0
  C  C45  1  0.29267000  0.21294000  0.75919000  1.0
  C  C46  1  0.20980000  0.14447000  0.71197000  1.0
  C  C47  1  0.09808000  0.14288000  0.71252000  1.0
  C  C48  1  0.01749000  0.08325000  0.66662000  1.0
  C  C49  1  0.89903000  0.08332000  0.66657000  1.0
  C  C50  1  0.85372000  0.16443000  0.69084000  1.0
  C  C51  1  0.74226000  0.16432000  0.69200000  1.0
  C  C52  1  0.69761000  0.25016000  0.72145000  1.0
  C  C53  1  0.67314000  0.08351000  0.66662000  1.0
  C  C54  1  0.71663000  0.00259000  0.64110000  1.0
  C  C55  1  0.64213000  0.91693000  0.61163000  1.0
  C  C56  1  0.82925000  0.00232000  0.64228000  1.0
  C  C57  1  0.05223000  0.02358000  0.62077000  1.0
  C  C58  1  0.16453000  0.02202000  0.62133000  1.0
  C  C59  1  0.24360667  0.08323000  0.66666667  1.0
  C  C60  1  0.20018000  0.95375000  0.57398000  1.0
  C  C61  1  0.53983000  0.28547000  0.90693000  1.0
  C  C62  1  0.62340000  0.26548000  0.95455000  1.0
  C  C63  1  0.73518000  0.26355000  0.95402000  1.0
  C  C64  1  0.98026000  0.30682000  0.97583000  1.0
  C  C65  1  0.09162000  0.30497000  0.97447000  1.0
  C  C66  1  0.13644000  0.36077000  0.94470000  1.0
  C  C67  1  0.96649000  0.54630000  0.75928000  1.0
  C  C68  1  0.00236000  0.56759000  0.71210000  1.0
  C  C69  1  0.11459000  0.56974000  0.71254000  1.0
  C  C70  1  0.14906000  0.58340000  0.66654000  1.0
  C  C71  1  0.26751000  0.58325000  0.66647000  1.0
  C  C72  1  0.33720000  0.52669000  0.69100000  1.0
  C  C73  1  0.44997000  0.52822000  0.69252000  1.0
  C  C74  1  0.52376000  0.47240000  0.72267000  1.0
  C  C75  1  0.49374000  0.58309000  0.66681000  1.0
  C  C76  1  0.42463000  0.63800000  0.64089000  1.0
  C  C77  1  0.46975000  0.69379000  0.61124000  1.0
  C  C78  1  0.31319000  0.63973000  0.64209000  1.0
  C  C79  1  0.06827000  0.59703000  0.62062000  1.0
  C  C80  1  0.95655000  0.59900000  0.62124000  1.0
  C  C81  1  0.92320000  0.58342000  0.66676000  1.0
  C  C82  1  0.87272000  0.61925000  0.57387000  1.0
  C  C83  1  0.86688000  0.62072000  0.90721000  1.0
  C  C84  1  0.83118000  0.68878000  0.95468000  1.0
  C  C85  1  0.71887000  0.69041000  0.95410000  1.0
  C  C86  1  0.49601000  0.66884000  0.97588000  1.0
  C  C87  1  0.38332000  0.66906000  0.97457000  1.0
  C  C88  1  0.30902000  0.58330000  0.94501000  1.0
  C  C89  1  0.58993000  0.24999000  0.00006000  1.0
  C  C90  1  0.81596000  0.25027000  0.00005000  1.0
  C  C91  1  0.93450000  0.25016000  0.00006000  1.0
  C  C92  1  0.16058000  0.24965000  0.00007000  1.0
  C  C93  1  0.91022000  0.74992000  0.00007000  1.0
  C  C94  1  0.68422000  0.74989000  0.00005000  1.0
  C  C95  1  0.56576000  0.74986000  0.00001000  1.0
  C  C96  1  0.33970000  0.74994000  0.00001000  1.0
  O  O1  1  0.45910000  0.24684000  0.19410000  1.0
  O  O2  1  0.63454000  0.26946000  0.25068000  1.0
  O  O3  1  0.71760000  0.56249000  0.41578000  1.0
  O  O4  1  0.59970000  0.58486000  0.47296000  1.0
  O  O5  1  0.08762000  0.65822000  0.39950000  1.0
  O  O6  1  0.94050000  0.57601000  0.40180000  1.0
  O  O7  1  0.87146000  0.25873000  0.26457000  1.0
  O  O8  1  0.01930000  0.17462000  0.26755000  1.0
  O  O9  1  0.53144000  0.18662000  0.08237000  1.0
  O  O10  1  0.70630000  0.22117000  0.13979000  1.0
  O  O11  1  0.14548000  0.07401000  0.06611000  1.0
  O  O12  1  0.29500000  0.15871000  0.06840000  1.0
  O  O13  1  0.58427000  0.08685000  0.16631000  1.0
  O  O14  1  0.23437000  0.94649000  0.19394000  1.0
  O  O15  1  0.11634000  0.98132000  0.25097000  1.0
  O  O16  1  0.19801000  0.85318000  0.41571000  1.0
  O  O17  1  0.37290000  0.88758000  0.47295000  1.0
  O  O18  1  0.81231000  0.74069000  0.39947000  1.0
  O  O19  1  0.96180000  0.82535000  0.40175000  1.0
  O  O20  1  0.89355000  0.00509000  0.26438000  1.0
  O  O21  1  0.74820000  0.09170000  0.26707000  1.0
  O  O22  1  0.05132000  0.89552000  0.08282000  1.0
  O  O23  1  0.93320000  0.91795000  0.13990000  1.0
  O  O24  1  0.42113000  0.99151000  0.06619000  1.0
  O  O25  1  0.27388000  0.90934000  0.06842000  1.0
  O  O26  1  0.08238000  0.07855000  0.16627000  1.0
  O  O27  1  0.26607000  0.25198000  0.80608000  1.0
  O  O28  1  0.38425000  0.22938000  0.74911000  1.0
  O  O29  1  0.30248000  0.93907000  0.58331000  1.0
  O  O30  1  0.12598000  0.91328000  0.52770000  1.0
  O  O31  1  0.68630000  0.84132000  0.60085000  1.0
  O  O32  1  0.53832000  0.92530000  0.59800000  1.0
  O  O33  1  0.60724000  0.24273000  0.73509000  1.0
  O  O34  1  0.75342000  0.32530000  0.73221000  1.0
  O  O35  1  0.44773000  0.31109000  0.91683000  1.0
  O  O36  1  0.56650000  0.27746000  0.86004000  1.0
  O  O37  1  0.08057000  0.42494000  0.93351000  1.0
  O  O38  1  0.22680000  0.33928000  0.93119000  1.0
  O  O39  1  0.41762000  0.41209000  0.83389000  1.0
  O  O40  1  0.03956000  0.55407000  0.80627000  1.0
  O  O41  1  0.86478000  0.51965000  0.74905000  1.0
  O  O42  1  0.78091000  0.64497000  0.58410000  1.0
  O  O43  1  0.89846000  0.61100000  0.52672000  1.0
  O  O44  1  0.41438000  0.75828000  0.60021000  1.0
  O  O45  1  0.56007000  0.67199000  0.59772000  1.0
  O  O46  1  0.62773000  0.49423000  0.73728000  1.0
  O  O47  1  0.47863000  0.40748000  0.73288000  1.0
  O  O48  1  0.96915000  0.60598000  0.91648000  1.0
  O  O49  1  0.79255000  0.58023000  0.86098000  1.0
  O  O50  1  0.35355000  0.50785000  0.93409000  1.0
  O  O51  1  0.20517000  0.59136000  0.93145000  1.0
  O  O52  1  0.91763000  0.42036000  0.83339000  1.0
  O  O53  1  0.33245000  0.08172000  0.16371000  1.0
  O  O54  1  0.16944000  0.41953000  0.83618000  1.0
  O  O55  1  0.83588000  0.08603000  0.16932000  1.0
  O  O56  1  0.66630000  0.41452000  0.83071000  1.0
  O  O57  1  0.99925000  0.74803000  0.49721000  1.0
  O  O58  1  0.50267000  0.75285000  0.50279000  1.0
  O  O59  1  0.74993000  0.74527000  0.50013000  1.0
  O  O60  1  0.25098000  0.75379000  0.49991000  1.0
