# generated using pymatgen
data_Tm2H3(C5O4)3
_symmetry_space_group_name_H-M   'P 1'
_cell_length_a   10.28500000
_cell_length_b   11.57170000
_cell_length_c   13.51140000
_cell_angle_alpha   85.58100000
_cell_angle_beta   69.20900000
_cell_angle_gamma   63.75500000
_symmetry_Int_Tables_number   1
_chemical_formula_structural   Tm2H3(C5O4)3
_chemical_formula_sum   'Tm4 H6 C30 O24'
_cell_volume   1342.22806792
_cell_formula_units_Z   2
loop_
 _symmetry_equiv_pos_site_id
 _symmetry_equiv_pos_as_xyz
  1  'x, y, z'
loop_
 _atom_site_type_symbol
 _atom_site_label
 _atom_site_symmetry_multiplicity
 _atom_site_fract_x
 _atom_site_fract_y
 _atom_site_fract_z
 _atom_site_occupancy
  Tm  Tm1  1  0.44461000  0.72456000  0.67969000  1.0
  Tm  Tm2  1  0.46882000  0.20302000  0.69070000  1.0
  Tm  Tm3  1  0.55539000  0.27544000  0.32031000  1.0
  Tm  Tm4  1  0.53118000  0.79698000  0.30930000  1.0
  H  H1  1  0.98950000  0.88940000  0.60220000  1.0
  H  H2  1  0.63460000  0.79610000  0.90870000  1.0
  H  H3  1  0.00700000  0.58330000  0.38980000  1.0
  H  H4  1  0.01050000  0.11060000  0.39780000  1.0
  H  H5  1  0.36540000  0.20390000  0.09130000  1.0
  H  H6  1  0.99300000  0.41670000  0.61020000  1.0
  C  C1  1  0.86180000  0.75280000  0.48130000  1.0
  C  C2  1  0.13450000  0.72240000  0.50790000  1.0
  C  C3  1  0.44330000  0.95130000  0.81600000  1.0
  C  C4  1  0.85720000  0.84370000  0.54780000  1.0
  C  C5  1  0.13970000  0.62810000  0.44570000  1.0
  C  C6  1  0.99330000  0.82800000  0.55930000  1.0
  C  C7  1  0.72220000  0.76580000  0.46110000  1.0
  C  C8  1  0.47200000  0.97860000  0.91080000  1.0
  C  C9  1  0.58000000  0.87770000  0.94600000  1.0
  C  C10  1  0.00310000  0.64520000  0.43230000  1.0
  C  C11  1  0.26560000  0.21660000  0.93980000  1.0
  C  C12  1  0.39320000  0.10280000  0.96500000  1.0
  C  C13  1  0.27370000  0.72170000  0.52200000  1.0
  C  C14  1  0.28730000  0.50810000  0.39660000  1.0
  C  C15  1  0.71190000  0.96230000  0.60460000  1.0
  C  C16  1  0.13820000  0.24720000  0.51870000  1.0
  C  C17  1  0.86550000  0.27760000  0.49210000  1.0
  C  C18  1  0.55670000  0.04870000  0.18400000  1.0
  C  C19  1  0.14280000  0.15630000  0.45220000  1.0
  C  C20  1  0.86030000  0.37190000  0.55430000  1.0
  C  C21  1  0.00670000  0.17200000  0.44070000  1.0
  C  C22  1  0.27780000  0.23420000  0.53890000  1.0
  C  C23  1  0.52800000  0.02140000  0.08920000  1.0
  C  C24  1  0.42000000  0.12230000  0.05400000  1.0
  C  C25  1  0.99690000  0.35480000  0.56770000  1.0
  C  C26  1  0.73440000  0.78340000  0.06020000  1.0
  C  C27  1  0.60680000  0.89720000  0.03500000  1.0
  C  C28  1  0.72630000  0.27830000  0.47800000  1.0
  C  C29  1  0.71270000  0.49190000  0.60340000  1.0
  C  C30  1  0.28810000  0.03770000  0.39540000  1.0
  O  O1  1  0.60710000  0.01510000  0.56473000  1.0
  O  O2  1  0.38040000  0.04620000  0.76827000  1.0
  O  O3  1  0.40070000  0.48140000  0.42600000  1.0
  O  O4  1  0.28480000  0.69760000  0.61150000  1.0
  O  O5  1  0.29970000  0.27970000  0.86117000  1.0
  O  O6  1  0.29670000  0.43320000  0.32800000  1.0
  O  O7  1  0.72840000  0.77470000  0.36550000  1.0
  O  O8  1  0.48560000  0.83500000  0.78800000  1.0
  O  O9  1  0.13180000  0.24630000  0.00300000  1.0
  O  O10  1  0.69950000  0.01240000  0.68970000  1.0
  O  O11  1  0.36170000  0.75460000  0.44840000  1.0
  O  O12  1  0.60870000  0.76440000  0.53630000  1.0
  O  O13  1  0.39290000  0.98490000  0.43527000  1.0
  O  O14  1  0.61960000  0.95380000  0.23173000  1.0
  O  O15  1  0.59930000  0.51860000  0.57400000  1.0
  O  O16  1  0.71520000  0.30240000  0.38850000  1.0
  O  O17  1  0.70030000  0.72030000  0.13883000  1.0
  O  O18  1  0.70330000  0.56680000  0.67200000  1.0
  O  O19  1  0.27160000  0.22530000  0.63450000  1.0
  O  O20  1  0.51440000  0.16500000  0.21200000  1.0
  O  O21  1  0.86820000  0.75370000  0.99700000  1.0
  O  O22  1  0.30050000  0.98760000  0.31030000  1.0
  O  O23  1  0.63830000  0.24540000  0.55160000  1.0
  O  O24  1  0.39130000  0.23560000  0.46370000  1.0
