# generated using pymatgen
data_NdH19(C17O4)2
_symmetry_space_group_name_H-M   'P 1'
_cell_length_a   9.50187000
_cell_length_b   12.21869000
_cell_length_c   15.91993000
_cell_angle_alpha   88.55518000
_cell_angle_beta   74.62456000
_cell_angle_gamma   69.95823000
_symmetry_Int_Tables_number   1
_chemical_formula_structural   NdH19(C17O4)2
_chemical_formula_sum   'Nd2 H38 C68 O16'
_cell_volume   1669.83246184
_cell_formula_units_Z   2
loop_
 _symmetry_equiv_pos_site_id
 _symmetry_equiv_pos_as_xyz
  1  'x, y, z'
loop_
 _atom_site_type_symbol
 _atom_site_label
 _atom_site_symmetry_multiplicity
 _atom_site_fract_x
 _atom_site_fract_y
 _atom_site_fract_z
 _atom_site_occupancy
  Nd  Nd1  1  0.29459000  0.97627000  0.01900000  1.0
  Nd  Nd2  1  0.70541000  0.02373000  0.98100000  1.0
  H  H1  1  0.99619000  0.80734000  0.04523000  1.0
  H  H2  1  0.34237000  0.28130000  0.51653000  1.0
  H  H3  1  0.16500000  0.70935000  0.51791000  1.0
  H  H4  1  0.27652000  0.74944000  0.38352000  1.0
  H  H5  1  0.21612000  0.85584000  0.25537000  1.0
  H  H6  1  0.03275000  0.60100000  0.19415000  1.0
  H  H7  1  0.08469000  0.49779000  0.32388000  1.0
  H  H8  1  0.47207000  0.39526000  0.27634000  1.0
  H  H9  1  0.50661000  0.25586000  0.15564000  1.0
  H  H10  1  0.14687000  0.14498000  0.31693000  1.0
  H  H11  1  0.12047000  0.27900000  0.44100000  1.0
  H  H12  1  0.21786000  0.24699000  0.64855000  1.0
  H  H13  1  0.27087000  0.13702000  0.77633000  1.0
  H  H14  1  0.49008000  0.36831000  0.83500000  1.0
  H  H15  1  0.43230000  0.48197000  0.70928000  1.0
  H  H16  1  0.04776000  0.55975000  0.75684000  1.0
  H  H17  1  0.98468000  0.69343000  0.88688000  1.0
  H  H18  1  0.27565000  0.87254000  0.73865000  1.0
  H  H19  1  0.33048000  0.74419000  0.60608000  1.0
  H  H20  1  0.00380000  0.19266000  0.95477000  1.0
  H  H21  1  0.65762000  0.71870000  0.48347000  1.0
  H  H22  1  0.83499000  0.29065000  0.48209000  1.0
  H  H23  1  0.72348000  0.25055000  0.61648000  1.0
  H  H24  1  0.78387000  0.14416000  0.74463000  1.0
  H  H25  1  0.96724000  0.39900000  0.80585000  1.0
  H  H26  1  0.91530000  0.50221000  0.67612000  1.0
  H  H27  1  0.52792000  0.60474000  0.72366000  1.0
  H  H28  1  0.49338000  0.74414000  0.84436000  1.0
  H  H29  1  0.85313000  0.85502000  0.68307000  1.0
  H  H30  1  0.87952000  0.72100000  0.55900000  1.0
  H  H31  1  0.78213000  0.75301000  0.35145000  1.0
  H  H32  1  0.72912000  0.86298000  0.22367000  1.0
  H  H33  1  0.50991000  0.63169000  0.16499000  1.0
  H  H34  1  0.56769000  0.51803000  0.29071000  1.0
  H  H35  1  0.95224000  0.44025000  0.24316000  1.0
  H  H36  1  0.01531000  0.30657000  0.11311000  1.0
  H  H37  1  0.72434000  0.12746000  0.26135000  1.0
  H  H38  1  0.66951000  0.25581000  0.39392000  1.0
  C  C1  1  0.22504000  0.55062000  0.43974000  1.0
  C  C2  1  0.27205000  0.42722000  0.44137000  1.0
  C  C3  1  0.30028000  0.37618000  0.51775000  1.0
  C  C4  1  0.28244000  0.43993000  0.59435000  1.0
  C  C5  1  0.23192000  0.56350000  0.59370000  1.0
  C  C6  1  0.20796000  0.61444000  0.51636000  1.0
  C  C7  1  0.18699000  0.61432000  0.36348000  1.0
  C  C8  1  0.21916000  0.71800000  0.34385000  1.0
  C  C9  1  0.18687000  0.77778000  0.27170000  1.0
  C  C10  1  0.12105000  0.73495000  0.21663000  1.0
  C  C11  1  0.08605000  0.63285000  0.23608000  1.0
  C  C12  1  0.11688000  0.57451000  0.30876000  1.0
  C  C13  1  0.08977000  0.79789000  0.13944000  1.0
  C  C14  1  0.29388000  0.34663000  0.36692000  1.0
  C  C15  1  0.40126000  0.34020000  0.28573000  1.0
  C  C16  1  0.42021000  0.26253000  0.21758000  1.0
  C  C17  1  0.32798000  0.19210000  0.22875000  1.0
  C  C18  1  0.22024000  0.19798000  0.30984000  1.0
  C  C19  1  0.20552000  0.27287000  0.37854000  1.0
  C  C20  1  0.33676000  0.11363000  0.15611000  1.0
  C  C21  1  0.31864000  0.37432000  0.67008000  1.0
  C  C22  1  0.27849000  0.27374000  0.68867000  1.0
  C  C23  1  0.30729000  0.21197000  0.76045000  1.0
  C  C24  1  0.38200000  0.24651000  0.81434000  1.0
  C  C25  1  0.42788000  0.34377000  0.79475000  1.0
  C  C26  1  0.39521000  0.40724000  0.72414000  1.0
  C  C27  1  0.41485000  0.17686000  0.88982000  1.0
  C  C28  1  0.19465000  0.64207000  0.67217000  1.0
  C  C29  1  0.09687000  0.62865000  0.75220000  1.0
  C  C30  1  0.06167000  0.70290000  0.82529000  1.0
  C  C31  1  0.12837000  0.78985000  0.82128000  1.0
  C  C32  1  0.22343000  0.80555000  0.74164000  1.0
  C  C33  1  0.25381000  0.73363000  0.66751000  1.0
  C  C34  1  0.10333000  0.85850000  0.90329000  1.0
  C  C35  1  0.77495000  0.44938000  0.56026000  1.0
  C  C36  1  0.72794000  0.57278000  0.55863000  1.0
  C  C37  1  0.69971000  0.62382000  0.48224000  1.0
  C  C38  1  0.71756000  0.56007000  0.40565000  1.0
  C  C39  1  0.76807000  0.43650000  0.40629000  1.0
  C  C40  1  0.79204000  0.38556000  0.48363000  1.0
  C  C41  1  0.81301000  0.38568000  0.63652000  1.0
  C  C42  1  0.78083000  0.28200000  0.65615000  1.0
  C  C43  1  0.81312000  0.22222000  0.72829000  1.0
  C  C44  1  0.87894000  0.26505000  0.78336000  1.0
  C  C45  1  0.91394000  0.36714000  0.76392000  1.0
  C  C46  1  0.88311000  0.42549000  0.69123000  1.0
  C  C47  1  0.91023000  0.20211000  0.86056000  1.0
  C  C48  1  0.70611000  0.65337000  0.63308000  1.0
  C  C49  1  0.59873000  0.65980000  0.71427000  1.0
  C  C50  1  0.57978000  0.73747000  0.78242000  1.0
  C  C51  1  0.67201000  0.80790000  0.77125000  1.0
  C  C52  1  0.77975000  0.80202000  0.69015000  1.0
  C  C53  1  0.79448000  0.72713000  0.62146000  1.0
  C  C54  1  0.66323000  0.88637000  0.84389000  1.0
  C  C55  1  0.68136000  0.62568000  0.32992000  1.0
  C  C56  1  0.72150000  0.72626000  0.31133000  1.0
  C  C57  1  0.69270000  0.78803000  0.23954000  1.0
  C  C58  1  0.61799000  0.75349000  0.18565000  1.0
  C  C59  1  0.57211000  0.65623000  0.20525000  1.0
  C  C60  1  0.60478000  0.59276000  0.27586000  1.0
  C  C61  1  0.58514000  0.82313000  0.11017000  1.0
  C  C62  1  0.80534000  0.35792000  0.32783000  1.0
  C  C63  1  0.90312000  0.37135000  0.24779000  1.0
  C  C64  1  0.93832000  0.29710000  0.17470000  1.0
  C  C65  1  0.87163000  0.21015000  0.17872000  1.0
  C  C66  1  0.77656000  0.19445000  0.25835000  1.0
  C  C67  1  0.74618000  0.26637000  0.33249000  1.0
  C  C68  1  0.89666000  0.14150000  0.09670000  1.0
  O  O1  1  0.12592000  0.88574000  0.11865000  1.0
  O  O2  1  0.01854000  0.75496000  0.09481000  1.0
  O  O3  1  0.23295000  0.06723000  0.16629000  1.0
  O  O4  1  0.44462000  0.09567000  0.08344000  1.0
  O  O5  1  0.53559000  0.17131000  0.91273000  1.0
  O  O6  1  0.31967000  0.12536000  0.92518000  1.0
  O  O7  1  0.21389000  0.88860000  0.91280000  1.0
  O  O8  1  0.97289000  0.87793000  0.96236000  1.0
  O  O9  1  0.87407000  0.11426000  0.88135000  1.0
  O  O10  1  0.98145000  0.24503000  0.90519000  1.0
  O  O11  1  0.76704000  0.93277000  0.83370000  1.0
  O  O12  1  0.55538000  0.90433000  0.91656000  1.0
  O  O13  1  0.46440000  0.82869000  0.08727000  1.0
  O  O14  1  0.68032000  0.87464000  0.07481000  1.0
  O  O15  1  0.78610000  0.11140000  0.08720000  1.0
  O  O16  1  0.02710000  0.12206000  0.03763000  1.0
