# generated using pymatgen
data_H10C15(NO)4
_symmetry_space_group_name_H-M   'P 1'
_cell_length_a   22.36970000
_cell_length_b   40.15743248
_cell_length_c   40.15743248
_cell_angle_alpha   85.55074137
_cell_angle_beta   73.82780652
_cell_angle_gamma   73.82780652
_symmetry_Int_Tables_number   1
_chemical_formula_structural   H10C15(NO)4
_chemical_formula_sum   'H160 C240 N64 O64'
_cell_volume   33275.34289379
_cell_formula_units_Z   16
loop_
 _symmetry_equiv_pos_site_id
 _symmetry_equiv_pos_as_xyz
  1  'x, y, z'
loop_
 _atom_site_type_symbol
 _atom_site_label
 _atom_site_symmetry_multiplicity
 _atom_site_fract_x
 _atom_site_fract_y
 _atom_site_fract_z
 _atom_site_occupancy
  C  1  1  0.10243750  0.60829600  0.19307700  1
  C  2  1  0.16425350  0.58534050  0.20326450  1
  C  3  1  0.05147000  0.58631700  0.20186200  1
  C  4  1  0.07699850  0.55066600  0.18192300  1
  C  7  1  0.14022650  0.53012650  0.19235650  1
  C  8  1  0.19425700  0.54988700  0.18384200  1
  C  13  1  0.20985100  0.55734300  0.14397200  1
  C  14  1  0.14991700  0.57924900  0.13148700  1
  C  17  1  0.09793350  0.55808500  0.14181200  1
  C  20  1  0.12223800  0.61417350  0.15264450  1
  C  23  1  0.92364600  0.35220300  0.80695100  1
  C  24  1  0.97266650  0.37517550  0.79680350  1
  C  25  1  0.85949800  0.37417650  0.79814750  1
  C  26  1  0.82938250  0.40981650  0.81810150  1
  C  29  1  0.88247800  0.43037300  0.80770500  1
  C  30  1  0.94773650  0.41062150  0.81624250  1
  C  35  1  0.93086950  0.40314650  0.85610850  1
  C  36  1  0.88038200  0.38122300  0.86855700  1
  C  39  1  0.81757700  0.40237850  0.85821250  1
  C  42  1  0.90883900  0.34630700  0.84738200  1
  C  45  1  0.73058250  0.17325650  0.37188850  1
  C  46  1  0.76944450  0.18343450  0.39485150  1
  C  47  1  0.65763250  0.18206050  0.39386250  1
  C  48  1  0.64748300  0.16212350  0.42951450  1
  C  51  1  0.69017400  0.17254400  0.45006100  1
  C  52  1  0.76397000  0.16400950  0.43030550  1
  C  57  1  0.78698400  0.12414050  0.42285350  1
  C  58  1  0.74895300  0.11166750  0.40094250  1
  C  61  1  0.67580400  0.12200950  0.42209850  1
  C  64  1  0.75622900  0.13282250  0.36601550  1
  C  67  1  0.29552900  0.78714050  0.62804350  1
  C  68  1  0.36753300  0.77696350  0.60508050  1
  C  69  1  0.25333900  0.77838000  0.60605700  1
  C  70  1  0.25891600  0.79834750  0.57042150  1
  C  73  1  0.33257300  0.78792100  0.54987400  1
  C  74  1  0.37809650  0.79641600  0.56964200  1
  C  79  1  0.35381850  0.83628100  0.57712900  1
  C  80  1  0.28140700  0.84875500  0.59904500  1
  C  83  1  0.23973950  0.83845300  0.57787100  1
  C  86  1  0.27489900  0.82757000  0.63395200  1
  C  89  1  0.91720200  0.78856650  0.37322450  1
  C  90  1  0.85424250  0.77964300  0.39629900  1
  C  91  1  0.96888400  0.77821850  0.39472150  1
  C  92  1  0.94549400  0.79815800  0.43022400  1
  C  95  1  0.88087750  0.78922150  0.45112350  1
  C  96  1  0.82595400  0.79908450  0.43179350  1
  C  101  1  0.81182400  0.83911850  0.42472450  1
  C  102  1  0.87337750  0.85012300  0.40300500  1
  C  105  1  0.92740800  0.83826700  0.42274900  1
  C  108  1  0.89960200  0.82904450  0.36791050  1
  C  111  1  0.09882450  0.17185000  0.62671600  1
  C  112  1  0.05003400  0.18072650  0.60363250  1
  C  113  1  0.16165000  0.18219600  0.60520900  1
  C  114  1  0.19373600  0.16221900  0.56972800  1
  C  117  1  0.14110100  0.17111250  0.54882050  1
  C  118  1  0.07671550  0.16124900  0.56815600  1
  C  123  1  0.09557150  0.12122300  0.57527000  1
  C  124  1  0.14639400  0.11026200  0.59700200  1
  C  127  1  0.20830650  0.12211650  0.57724250  1
  C  130  1  0.11641200  0.13137950  0.63207550  1
  C  133  1  0.29046150  0.60702350  0.80838550  1
  C  134  1  0.25054600  0.58394600  0.79950100  1
  C  135  1  0.36363400  0.58552150  0.79802250  1
  C  136  1  0.37576000  0.55002800  0.81797800  1
  C  139  1  0.33201250  0.52912500  0.80908000  1
  C  140  1  0.25776100  0.54846050  0.81896050  1
  C  145  1  0.23661150  0.55555150  0.85899050  1
  C  146  1  0.27648200  0.57727400  0.86995800  1
  C  149  1  0.35024950  0.55752000  0.85808600  1
  C  152  1  0.26759750  0.61235700  0.84886000  1
  C  155  1  0.72553800  0.35347300  0.19165800  1
  C  156  1  0.65365400  0.37654600  0.20058100  1
  C  157  1  0.76687300  0.37497500  0.20199600  1
  C  158  1  0.76341750  0.41047550  0.18204850  1
  C  161  1  0.68986400  0.43137250  0.19098850  1
  C  162  1  0.64479950  0.41203900  0.18113400  1
  C  167  1  0.67069800  0.40496300  0.14110000  1
  C  168  1  0.74325650  0.38324400  0.13009400  1
  C  171  1  0.78543350  0.40299250  0.14194250  1
  C  174  1  0.74840550  0.34815200  0.15118100  1
  C  353  1  0.25444750  0.58157000  0.90920300  1
  C  354  1  0.22560950  0.61386200  0.92670600  1
  C  356  1  0.21255000  0.58738750  0.98271450  1
  C  357  1  0.23994700  0.55406150  0.96746050  1
  C  358  1  0.26037500  0.55191300  0.93096000  1
  C  360  1  0.19467300  0.59177700  0.01900900  1
  C  361  1  0.13136750  0.60729300  0.03920900  1
  C  362  1  0.11867850  0.60425850  0.07580750  1
  C  363  1  0.16665600  0.58609700  0.09250800  1
  C  364  1  0.22954550  0.57353000  0.07005100  1
  C  375  1  0.76469300  0.37896400  0.09084800  1
  C  376  1  0.78561650  0.34668050  0.07333150  1
  C  378  1  0.80203200  0.37318050  0.01733650  1
  C  379  1  0.78087800  0.40649800  0.03260300  1
  C  380  1  0.76269400  0.40862900  0.06910300  1
  C  382  1  0.82485050  0.36882200  0.98103700  1
  C  383  1  0.79744400  0.35321150  0.96081250  1
  C  384  1  0.81845100  0.35618800  0.92421500  1
  C  385  1  0.86493600  0.37437500  0.90753500  1
  C  386  1  0.89271400  0.38697400  0.93001600  1
  C  397  1  0.85555850  0.88937100  0.39873200  1
  C  398  1  0.85898150  0.90689100  0.36645000  1
  C  400  1  0.81941150  0.96288300  0.39295700  1
  C  401  1  0.81352800  0.94761050  0.42627350  1
  C  402  1  0.83184400  0.91111100  0.42840100  1
  C  404  1  0.80592050  0.99918150  0.38859550  1
  C  405  1  0.75829350  0.01939250  0.37297750  1
  C  406  1  0.74271000  0.05599350  0.37592850  1
  C  407  1  0.77250700  0.07268650  0.39410950  1
  C  408  1  0.82272900  0.05021300  0.40674300  1
  C  419  1  0.16357350  0.07101950  0.60132150  1
  C  420  1  0.15225950  0.05353750  0.63362650  1
  C  422  1  0.19521300  0.99751250  0.60718650  1
  C  423  1  0.20734700  0.01274550  0.57385150  1
  C  424  1  0.19127600  0.04924450  0.57167850  1
  C  426  1  0.21365300  0.96122150  0.61160450  1
  C  427  1  0.17055950  0.94101500  0.62711600  1
  C  428  1  0.19449450  0.90441800  0.62410800  1
  C  429  1  0.25917050  0.88772700  0.60593800  1
  C  430  1  0.29961800  0.91018500  0.59341100  1
  C  529  1  0.25651000  0.53058900  0.19306200  1
  C  530  1  0.26801650  0.49657750  0.20686150  1
  C  532  1  0.37969950  0.49214800  0.20106500  1
  C  533  1  0.37119700  0.52687550  0.18921050  1
  C  534  1  0.30950350  0.54541650  0.18580350  1
  C  536  1  0.44144300  0.46946200  0.20017300  1
  C  537  1  0.46255650  0.43561650  0.18597750  1
  C  538  1  0.52811250  0.41728500  0.18144600  1
  C  539  1  0.57348600  0.43151350  0.18991050  1
  C  540  1  0.54771200  0.46474100  0.20549900  1
  C  551  1  0.99988050  0.42993850  0.80707250  1
  C  552  1  0.99116300  0.46395800  0.79329100  1
  C  554  1  0.09261100  0.46838150  0.79908850  1
  C  555  1  0.10697650  0.43365850  0.81095350  1
  C  556  1  0.06043250  0.41511450  0.81434150  1
  C  558  1  0.13080450  0.49105650  0.79996550  1
  C  559  1  0.10389550  0.52489400  0.81418200  1
  C  560  1  0.14660450  0.54321700  0.81870300  1
  C  561  1  0.21466900  0.52898400  0.81022000  1
  C  562  1  0.23769250  0.49576300  0.79461700  1
  C  573  1  0.80694850  0.17319500  0.44961000  1
  C  574  1  0.78446050  0.18697800  0.48362700  1
  C  576  1  0.89172250  0.18116800  0.48804600  1
  C  577  1  0.91793050  0.16931300  0.45331800  1
  C  578  1  0.87476600  0.16593650  0.43477550  1
  C  580  1  0.93080900  0.18025450  0.51072150  1
  C  581  1  0.91807900  0.16604850  0.54456250  1
  C  582  1  0.96530850  0.16151350  0.56289150  1
  C  583  1  0.02489850  0.16999050  0.54866750  1
  C  584  1  0.03234950  0.18558050  0.51544150  1
  C  595  1  0.44956300  0.78720850  0.55033750  1
  C  596  1  0.47485600  0.77343100  0.51631900  1
  C  598  1  0.58076500  0.77918250  0.51189750  1
  C  599  1  0.56041050  0.79104000  0.54662400  1
  C  600  1  0.49530900  0.79445000  0.56516900  1
  C  602  1  0.64162400  0.78006000  0.48921300  1
  C  603  1  0.64854900  0.79425100  0.45536600  1
  C  604  1  0.70957550  0.79878000  0.43703900  1
  C  605  1  0.76341350  0.79030700  0.45126500  1
  C  606  1  0.75323500  0.77470400  0.48448700  1
  C  705  1  0.76528600  0.42944450  0.81064450  1
  C  706  1  0.75250900  0.46366350  0.79721050  1
  C  708  1  0.63981800  0.46865950  0.80507550  1
  C  709  1  0.64914350  0.43387750  0.81705550  1
  C  710  1  0.71169900  0.41500600  0.81935700  1
  C  712  1  0.57819400  0.49139950  0.80469750  1
  C  713  1  0.55746200  0.52657950  0.81543950  1
  C  714  1  0.49277250  0.54549050  0.81739850  1
  C  715  1  0.44752600  0.53069800  0.80957500  1
  C  716  1  0.47328850  0.49614200  0.79704200  1
  C  727  1  0.02509750  0.53102550  0.18935050  1
  C  728  1  0.03310550  0.49680500  0.20278100  1
  C  730  1  0.93328100  0.49181050  0.19491450  1
  C  731  1  0.91981700  0.52658650  0.18291850  1
  C  732  1  0.96579450  0.54546000  0.18062400  1
  C  734  1  0.89399650  0.46907900  0.19531000  1
  C  735  1  0.91917250  0.43390500  0.18454100  1
  C  736  1  0.87534500  0.41500000  0.18258400  1
  C  737  1  0.80748250  0.42980750  0.19041450  1
  C  738  1  0.78616450  0.46434500  0.20299400  1
  C  749  1  0.21443200  0.79094000  0.55077600  1
  C  750  1  0.23587500  0.77748950  0.51656250  1
  C  752  1  0.12818250  0.78534050  0.51157250  1
  C  753  1  0.10272850  0.79734400  0.54634500  1
  C  754  1  0.14640850  0.79965000  0.56521700  1
  C  756  1  0.08929150  0.78494600  0.48884200  1
  C  757  1  0.10371600  0.79569200  0.45366300  1
  C  758  1  0.05794400  0.79762800  0.43475300  1
  C  759  1  0.99792550  0.78978200  0.44955700  1
  C  760  1  0.98916050  0.77724500  0.48410900  1
  C  771  1  0.57593250  0.16956650  0.44914550  1
  C  772  1  0.54972000  0.18299100  0.48336800  1
  C  774  1  0.44490350  0.17511500  0.48836600  1
  C  775  1  0.46621800  0.16312450  0.45358750  1
  C  776  1  0.53106650  0.16083950  0.43471150  1
  C  778  1  0.38289850  0.17549550  0.51110350  1
  C  779  1  0.37290000  0.16476050  0.54628650  1
  C  780  1  0.31017050  0.16279600  0.56519400  1
  C  781  1  0.25710300  0.17061900  0.55039400  1
  C  782  1  0.27033450  0.18315900  0.51584300  1
  C  881  1  0.07534850  0.64312400  0.21184200  1
  C  882  1  0.10511350  0.65435200  0.23423200  1
  C  884  1  0.02187150  0.70708300  0.24878100  1
  C  885  1  0.98906850  0.69848000  0.22661300  1
  C  886  1  0.01739400  0.66689500  0.20789100  1
  C  888  1  0.99422050  0.73322000  0.27428000  1
  C  889  1  0.02795600  0.75502600  0.28262400  1
  C  890  1  0.00056300  0.77376450  0.31420150  1
  C  891  1  0.94262450  0.77016550  0.33822750  1
  C  892  1  0.91170750  0.74823500  0.32723400  1
  C  903  1  0.95019800  0.31739150  0.78815250  1
  C  904  1  0.01358300  0.30620600  0.76574700  1
  C  906  1  0.99763900  0.25353700  0.75109200  1
  C  907  1  0.93405750  0.26208100  0.77324300  1
  C  908  1  0.91207650  0.29362000  0.79204100  1
  C  910  1  0.02160700  0.22748850  0.72549650  1
  C  911  1  0.08543050  0.20559100  0.71723000  1
  C  912  1  0.10832500  0.18675150  0.68571250  1
  C  913  1  0.07082900  0.19030150  0.66168550  1
  C  914  1  0.00697750  0.21221800  0.67266200  1
  C  925  1  0.73835800  0.19201800  0.33705800  1
  C  926  1  0.77937200  0.21439850  0.32583750  1
  C  928  1  0.74901650  0.22888750  0.27305950  1
  C  929  1  0.70743400  0.20682350  0.28170650  1
  C  930  1  0.70416100  0.18808700  0.31328400  1
  C  932  1  0.74728700  0.25459750  0.24712650  1
  C  933  1  0.80280350  0.26289650  0.22522050  1
  C  934  1  0.79411950  0.29445350  0.20644750  1
  C  935  1  0.73257750  0.31848250  0.21007050  1
  C  936  1  0.67974650  0.30748400  0.23200900  1
  C  947  1  0.28721700  0.76835350  0.66285650  1
  C  948  1  0.33937650  0.74594650  0.67407050  1
  C  950  1  0.27070300  0.73140150  0.72680650  1
  C  951  1  0.21572750  0.75357550  0.71821550  1
  C  952  1  0.22532200  0.77231700  0.68664300  1
  C  954  1  0.26855300  0.70592150  0.75296550  1
  C  955  1  0.31064450  0.69759400  0.77476300  1
  C  956  1  0.31478700  0.66604450  0.79354950  1
  C  957  1  0.28087200  0.64201200  0.78997000  1
  C  958  1  0.23887900  0.65300950  0.76808350  1
  H  5  1  0.00749050  0.60136200  0.19533200  1
  H  6  1  0.03788150  0.58155850  0.22983350  1
  H  9  1  0.12774600  0.52455250  0.22019150  1
  H  10  1  0.15992750  0.50530650  0.17856850  1
  H  11  1  0.15262400  0.58035150  0.23123950  1
  H  12  1  0.20032100  0.60004400  0.19730300  1
  H  15  1  0.23024350  0.53243850  0.13029150  1
  H  16  1  0.24673050  0.57156550  0.13675050  1
  H  18  1  0.11676550  0.53348600  0.12759500  1
  H  19  1  0.05546900  0.57247700  0.13345500  1
  H  21  1  0.15830900  0.62900200  0.14606000  1
  H  22  1  0.08011500  0.62998550  0.14475350  1
  H  27  1  0.82404550  0.35912500  0.80465300  1
  H  28  1  0.86915200  0.37894950  0.77017750  1
  H  31  1  0.89229000  0.43595600  0.77987100  1
  H  32  1  0.86353650  0.45518900  0.82150300  1
  H  33  1  0.98405950  0.38017750  0.76883250  1
  H  34  1  0.01746100  0.36048100  0.80278400  1
  H  37  1  0.91264000  0.42804650  0.86979550  1
  H  38  1  0.97474050  0.38892900  0.86334400  1
  H  40  1  0.79755100  0.42697200  0.87244000  1
  H  41  1  0.78116350  0.38797450  0.86654350  1
  H  43  1  0.95314150  0.33148200  0.85398300  1
  H  44  1  0.87465300  0.33048300  0.85524600  1
  H  49  1  0.62869050  0.17553850  0.37881550  1
  H  50  1  0.63930700  0.21003200  0.39862000  1
  H  53  1  0.67214100  0.20037850  0.45563450  1
  H  54  1  0.68503750  0.15875450  0.47488250  1
  H  55  1  0.75284500  0.21140650  0.39984150  1
  H  56  1  0.82021900  0.17746200  0.38015100  1
  H  59  1  0.78244700  0.11046650  0.44776050  1
  H  60  1  0.83809050  0.11690400  0.40863600  1
  H  62  1  0.67001150  0.10779500  0.44669900  1
  H  63  1  0.64772700  0.11366100  0.40770200  1
  H  65  1  0.80713100  0.12622350  0.35119250  1
  H  66  1  0.72991050  0.12494250  0.35020050  1
  H  71  1  0.20283000  0.78490600  0.62110600  1
  H  72  1  0.26771800  0.75041300  0.60127700  1
  H  75  1  0.34792550  0.76009200  0.54428400  1
  H  76  1  0.33848000  0.80172700  0.52506400  1
  H  77  1  0.38387400  0.74899500  0.60007000  1
  H  78  1  0.39764600  0.78291050  0.61978850  1
  H  81  1  0.36052300  0.84997950  0.55223550  1
  H  82  1  0.38348500  0.84348800  0.59135800  1
  H  84  1  0.24434800  0.85268950  0.55328250  1
  H  85  1  0.18891900  0.84680200  0.59226700  1
  H  87  1  0.30439050  0.83413850  0.64878650  1
  H  88  1  0.22488850  0.83545300  0.64976800  1
  H  93  1  0.01372800  0.78366700  0.37942300  1
  H  94  1  0.98033250  0.75023350  0.39953550  1
  H  97  1  0.89179050  0.76138100  0.45670400  1
  H  98  1  0.86245800  0.80299050  0.47594950  1
  H  99  1  0.86413150  0.75167700  0.40125100  1
  H  100  1  0.81788900  0.78649250  0.38173850  1
  H  103  1  0.79179500  0.85230300  0.44982400  1
  H  104  1  0.77484900  0.84780550  0.41062550  1
  H  106  1  0.91226600  0.85172650  0.44759550  1
  H  107  1  0.96979200  0.84618450  0.40722150  1
  H  109  1  0.86332100  0.83619200  0.35322000  1
  H  110  1  0.94231750  0.83654750  0.35221550  1
  H  115  1  0.19663300  0.17677700  0.62051200  1
  H  116  1  0.14991450  0.21017600  0.60036600  1
  H  119  1  0.12974050  0.19895100  0.54321600  1
  H  120  1  0.16129500  0.15732300  0.52400700  1
  H  121  1  0.03688750  0.20868700  0.59865200  1
  H  122  1  0.00597300  0.17387250  0.61819650  1
  H  125  1  0.11384450  0.10801400  0.55018500  1
  H  126  1  0.05318650  0.11253650  0.58937750  1
  H  128  1  0.23148400  0.10863600  0.55241100  1
  H  129  1  0.24307000  0.11423150  0.59277750  1
  H  131  1  0.07259400  0.12423200  0.64677300  1
  H  132  1  0.15092300  0.12391100  0.64777700  1
  H  137  1  0.39320250  0.60081900  0.80344500  1
  H  138  1  0.37986450  0.58069350  0.77003950  1
  H  141  1  0.34847250  0.52353400  0.78124100  1
  H  142  1  0.33842700  0.50430550  0.82285850  1
  H  143  1  0.26535550  0.57897800  0.77153800  1
  H  144  1  0.19963200  0.59851000  0.80636100  1
  H  147  1  0.24168850  0.53045900  0.87218600  1
  H  148  1  0.18554150  0.56965500  0.86768900  1
  H  150  1  0.35995700  0.53268050  0.87155350  1
  H  151  1  0.37713100  0.57305050  0.86597450  1
  H  153  1  0.21663200  0.62705150  0.85602050  1
  H  154  1  0.29464250  0.62805500  0.85633800  1
  H  159  1  0.81716750  0.35967750  0.19654750  1
  H  160  1  0.75034300  0.37979450  0.22997950  1
  H  163  1  0.67294200  0.43695550  0.21882950  1
  H  164  1  0.68521000  0.45619700  0.17721700  1
  H  165  1  0.63557750  0.38150250  0.22854750  1
  H  166  1  0.62414700  0.36198350  0.19373750  1
  H  169  1  0.66385000  0.43005750  0.12791450  1
  H  170  1  0.64240600  0.39086100  0.13242000  1
  H  172  1  0.78374550  0.42783650  0.12847950  1
  H  173  1  0.83573500  0.38746600  0.13402600  1
  H  175  1  0.71926900  0.33345950  0.14403950  1
  H  176  1  0.79862650  0.33245800  0.14367300  1
  H  359  1  0.27977250  0.52768450  0.92035450  1
  H  366  1  0.07234300  0.61437250  0.09027650  1
  H  367  1  0.26828800  0.56035250  0.07868050  1
  H  368  1  0.21872950  0.63675200  0.91358000  1
  H  381  1  0.74727100  0.43285400  0.07972000  1
  H  388  1  0.79673100  0.34606600  0.90973300  1
  H  389  1  0.92692150  0.40014350  0.92140650  1
  H  390  1  0.78849850  0.32378550  0.08644850  1
  H  403  1  0.82704600  0.90049200  0.45262200  1
  H  410  1  0.70650350  0.07046950  0.36580850  1
  H  411  1  0.84831900  0.05884300  0.41990300  1
  H  412  1  0.87499900  0.89377600  0.34355400  1
  H  425  1  0.20006250  0.05983450  0.54744250  1
  H  432  1  0.16260900  0.88994750  0.63416350  1
  H  433  1  0.34694850  0.90157050  0.58016050  1
  H  434  1  0.13226450  0.06667750  0.65650750  1
  H  535  1  0.30503300  0.56987100  0.17581300  1
  H  542  1  0.54301000  0.39337800  0.17018400  1
  H  543  1  0.57573250  0.47740500  0.21272500  1
  H  544  1  0.23345500  0.48344000  0.21309600  1
  H  557  1  0.07042350  0.39065550  0.82432850  1
  H  564  1  0.12634800  0.56712300  0.82997000  1
  H  565  1  0.28559950  0.48309750  0.78737550  1
  H  566  1  0.94977250  0.47704950  0.78695550  1
  H  579  1  0.89474100  0.15595550  0.41031450  1
  H  586  1  0.95630550  0.15025000  0.58679800  1
  H  587  1  0.07299800  0.19285100  0.50279900  1
  H  588  1  0.73674900  0.19326900  0.49674800  1
  H  601  1  0.48086050  0.80442700  0.58962900  1
  H  608  1  0.71321250  0.81004750  0.41313250  1
  H  609  1  0.78845750  0.76751000  0.49716700  1
  H  610  1  0.44654200  0.76715800  0.50319600  1
  H  711  1  0.71694300  0.39044450  0.82918550  1
  H  718  1  0.47791950  0.57027550  0.82665150  1
  H  719  1  0.44569600  0.48281850  0.79038450  1
  H  720  1  0.78707050  0.47675750  0.78986150  1
  H  733  1  0.95631750  0.57001750  0.17078750  1
  H  740  1  0.89451700  0.39022100  0.17331500  1
  H  741  1  0.73859100  0.47766600  0.20967300  1
  H  742  1  0.07334750  0.48374650  0.21020750  1
  H  755  1  0.12708750  0.80948350  0.58977850  1
  H  762  1  0.06784550  0.80688850  0.40997250  1
  H  763  1  0.94829250  0.77053000  0.49741400  1
  H  764  1  0.28353650  0.77009850  0.50348650  1
  H  777  1  0.54613900  0.15100850  0.41014950  1
  H  784  1  0.30456400  0.15354350  0.58997750  1
  H  785  1  0.23611300  0.18977450  0.50250150  1
  H  786  1  0.57691300  0.19038150  0.49644550  1
  H  887  1  0.99354950  0.66090700  0.19186200  1
  H  894  1  0.02525550  0.78940500  0.32005900  1
  H  895  1  0.87012100  0.74334950  0.34210450  1
  H  896  1  0.14654350  0.63974000  0.23947100  1
  H  909  1  0.86621050  0.29958850  0.80806350  1
  H  916  1  0.15451450  0.17111100  0.67987800  1
  H  917  1  0.97534550  0.21702700  0.65781200  1
  H  918  1  0.04567450  0.32079150  0.76061950  1
  H  931  1  0.67425300  0.17210050  0.31928650  1
  H  938  1  0.83444100  0.30031650  0.19080150  1
  H  939  1  0.63326450  0.32233250  0.23685650  1
  H  940  1  0.80614000  0.21965450  0.34046950  1
  H  953  1  0.18543700  0.78832850  0.68065050  1
  H  960  1  0.34542050  0.66017400  0.80914300  1
  H  961  1  0.21225000  0.63810550  0.76316550  1
  H  962  1  0.38604000  0.74070200  0.65944900  1
  N  355  1  0.20643900  0.61567250  0.96184550  1
  N  365  1  0.24050900  0.57606950  0.03534050  1
  N  369  1  0.08246700  0.62322050  0.02262050  1
  N  370  1  0.24474200  0.52387500  0.98842300  1
  N  377  1  0.80335500  0.34488350  0.03819050  1
  N  387  1  0.87138100  0.38448850  0.96472450  1
  N  391  1  0.74788250  0.33727750  0.97738250  1
  N  392  1  0.77645700  0.43669200  0.01165300  1
  N  399  1  0.84158800  0.94203200  0.36465900  1
  N  409  1  0.83611750  0.01550450  0.40426550  1
  N  413  1  0.72530900  0.00281600  0.35704400  1
  N  414  1  0.78818650  0.96855900  0.45646900  1
  N  421  1  0.16823850  0.01839850  0.63545950  1
  N  431  1  0.27583150  0.94489600  0.59591200  1
  N  435  1  0.10504950  0.95759750  0.64300950  1
  N  436  1  0.23311450  0.99176000  0.54368200  1
  N  531  1  0.32763000  0.47899150  0.20954650  1
  N  541  1  0.48496000  0.48208400  0.20936600  1
  N  545  1  0.42042800  0.42150900  0.17439900  1
  N  546  1  0.42406150  0.54171750  0.17845850  1
  N  553  1  0.03589300  0.48153650  0.79057950  1
  N  563  1  0.19613350  0.47842750  0.79075650  1
  N  567  1  0.03608200  0.53900850  0.82576150  1
  N  568  1  0.16391750  0.41882150  0.82171950  1
  N  575  1  0.82649600  0.18966550  0.50120750  1
  N  585  1  0.98692700  0.18946600  0.49810400  1
  N  589  1  0.86185450  0.15445850  0.55866350  1
  N  590  1  0.98563350  0.15857200  0.43846800  1
  N  597  1  0.53716600  0.77071500  0.49874000  1
  N  607  1  0.69433300  0.77086100  0.50183600  1
  N  611  1  0.59484600  0.80584300  0.44125600  1
  N  612  1  0.60254350  0.80176900  0.56147000  1
  N  707  1  0.69232250  0.48143450  0.79550250  1
  N  717  1  0.53502650  0.47832450  0.79570050  1
  N  721  1  0.59914750  0.54157250  0.82635050  1
  N  722  1  0.59613150  0.41926000  0.82862800  1
  N  729  1  0.98896150  0.47904150  0.20451250  1
  N  739  1  0.82875750  0.48215500  0.20433200  1
  N  743  1  0.98676250  0.41891050  0.17362250  1
  N  744  1  0.86377150  0.54119650  0.17133350  1
  N  751  1  0.19346350  0.77575700  0.49879900  1
  N  761  1  0.03308650  0.77591200  0.50192000  1
  N  765  1  0.16036500  0.80663350  0.43866750  1
  N  766  1  0.03509600  0.80890750  0.56096250  1
  N  773  1  0.48782350  0.18470300  0.50113700  1
  N  783  1  0.33073900  0.18448400  0.49802500  1
  N  787  1  0.42549000  0.15385250  0.56128450  1
  N  788  1  0.42478550  0.15154050  0.43897450  1
  N  883  1  0.07762450  0.68451450  0.25174850  1
  N  893  1  0.93841850  0.73060100  0.29707900  1
  N  897  1  0.08747500  0.75728900  0.25966400  1
  N  898  1  0.92973250  0.72127700  0.22387500  1
  N  905  1  0.03382850  0.27606950  0.74818150  1
  N  915  1  0.98592850  0.22995300  0.70275600  1
  N  919  1  0.12426100  0.20335300  0.74018300  1
  N  920  1  0.89479300  0.23929200  0.77589900  1
  N  927  1  0.78209650  0.23190300  0.29566600  1
  N  937  1  0.68884900  0.27734500  0.24967000  1
  N  941  1  0.86460450  0.23993200  0.22290400  1
  N  942  1  0.67079500  0.20417000  0.25893400  1
  N  949  1  0.32941600  0.72842850  0.70423150  1
  N  959  1  0.23550150  0.68313150  0.75039450  1
  N  963  1  0.34726600  0.72054000  0.77697200  1
  N  964  1  0.15365700  0.75631250  0.74101650  1
  O  371  1  0.05813700  0.65452400  0.03125000  1
  O  372  1  0.30237900  0.50613000  0.98366200  1
  O  373  1  0.21206300  0.50520900  0.98259400  1
  O  374  1  0.03819300  0.60813050  0.03002650  1
  O  393  1  0.76357450  0.30595300  0.96880800  1
  O  394  1  0.81162150  0.45442000  0.01641300  1
  O  395  1  0.71929250  0.45537350  0.01750150  1
  O  396  1  0.69597650  0.35231100  0.96989700  1
  O  415  1  0.73244750  0.01137550  0.32571450  1
  O  416  1  0.82813050  0.96379150  0.47418550  1
  O  417  1  0.73687350  0.96271250  0.47516050  1
  O  418  1  0.66591500  0.01030800  0.37207000  1
  O  437  1  0.08930200  0.94898550  0.67431550  1
  O  438  1  0.28599600  0.99651600  0.52593000  1
  O  439  1  0.19461750  0.99756900  0.52501200  1
  O  440  1  0.06823000  0.95017000  0.62790200  1
  O  547  1  0.41442900  0.39371300  0.18986000  1
  O  548  1  0.41429300  0.56850450  0.19560150  1
  O  549  1  0.43576050  0.54924750  0.14675150  1
  O  550  1  0.43957750  0.41594800  0.14229200  1
  O  569  1  0.01775700  0.56680850  0.81030550  1
  O  570  1  0.19809700  0.39203650  0.80458150  1
  O  571  1  0.15141250  0.41129400  0.85342800  1
  O  572  1  0.01757400  0.54456750  0.85787050  1
  O  591  1  0.82805900  0.16990550  0.58646650  1
  O  592  1  0.00263550  0.17573400  0.41169300  1
  O  593  1  0.00486600  0.12687100  0.43091400  1
  O  594  1  0.87546300  0.12234750  0.56421450  1
  O  613  1  0.60429950  0.79039000  0.41345800  1
  O  614  1  0.60991300  0.78461350  0.58824850  1
  O  615  1  0.58255950  0.83347350  0.56900850  1
  O  616  1  0.58190350  0.83795300  0.43570000  1
  O  723  1  0.60809700  0.56770950  0.80844050  1
  O  724  1  0.60471700  0.39257350  0.81159850  1
  O  725  1  0.58617250  0.41154300  0.86026900  1
  O  726  1  0.57746750  0.55026450  0.85774350  1
  O  745  1  0.00394150  0.39276600  0.19152100  1
  O  746  1  0.82863200  0.56788550  0.18835150  1
  O  747  1  0.87775900  0.54890250  0.13969150  1
  O  748  1  0.00515450  0.41022850  0.14222650  1
  O  767  1  0.19547100  0.78873200  0.41252800  1
  O  768  1  0.01700600  0.79188100  0.58765100  1
  O  769  1  0.01740750  0.84054800  0.56867200  1
  O  770  1  0.14732750  0.83802550  0.42997650  1
  O  789  1  0.41651950  0.17176550  0.58742150  1
  O  790  1  0.41632500  0.16856500  0.41229000  1
  O  791  1  0.44648450  0.11990100  0.43126000  1
  O  792  1  0.43520350  0.12246000  0.56998100  1
  O  899  1  0.13261100  0.74757750  0.27409650  1
  O  900  1  0.88478700  0.70668400  0.23316200  1
  O  901  1  0.93337550  0.73187900  0.19329500  1
  O  902  1  0.08463150  0.78779250  0.24899750  1
  O  921  1  0.17420200  0.21297350  0.72571350  1
  O  922  1  0.84454450  0.25392350  0.76662650  1
  O  923  1  0.87845250  0.22862000  0.80645200  1
  O  924  1  0.14110550  0.17287800  0.75094800  1
  O  943  1  0.90012100  0.25436650  0.23252950  1
  O  944  1  0.61127700  0.21353100  0.27355300  1
  O  945  1  0.68486600  0.17359900  0.24833500  1
  O  946  1  0.89213650  0.22923300  0.19239900  1
  O  965  1  0.40681950  0.70608200  0.76726000  1
  O  966  1  0.11798400  0.74704000  0.72642400  1
  O  967  1  0.12673100  0.78689050  0.75163250  1
  O  968  1  0.33379550  0.73124450  0.80745850  1
