# generated using pymatgen
data_CdH14C20(NO)4
_symmetry_space_group_name_H-M   'P 1'
_cell_length_a   16.82897000
_cell_length_b   17.28427000
_cell_length_c   18.60565000
_cell_angle_alpha   90.03406000
_cell_angle_beta   90.00000000
_cell_angle_gamma   90.00000000
_symmetry_Int_Tables_number   1
_chemical_formula_structural   CdH14C20(NO)4
_chemical_formula_sum   'Cd8 H112 C160 N32 O32'
_cell_volume   5411.94467598
_cell_formula_units_Z   8
loop_
 _symmetry_equiv_pos_site_id
 _symmetry_equiv_pos_as_xyz
  1  'x, y, z'
loop_
 _atom_site_type_symbol
 _atom_site_label
 _atom_site_symmetry_multiplicity
 _atom_site_fract_x
 _atom_site_fract_y
 _atom_site_fract_z
 _atom_site_occupancy
  Cd  Cd0  1  0.77906000  0.99154000  0.51951000  1
  Cd  Cd1  1  0.27906000  0.50846000  0.48049000  1
  Cd  Cd2  1  0.27898000  0.99174000  0.98093000  1
  Cd  Cd3  1  0.77898000  0.50826000  0.01907000  1
  Cd  Cd4  1  0.72103000  0.00826000  0.01907000  1
  Cd  Cd5  1  0.22102000  0.49174000  0.98093000  1
  Cd  Cd6  1  0.22094000  0.00846000  0.48049000  1
  Cd  Cd7  1  0.72095000  0.49154000  0.51951000  1
  H  H8  1  0.60263000  0.93212000  0.61395000  1
  H  H9  1  0.47069000  0.02933000  0.62277000  1
  H  H10  1  0.64704000  0.13081000  0.48950000  1
  H  H11  1  0.38448000  0.10407000  0.55163000  1
  H  H12  1  0.30156000  0.22150000  0.53311000  1
  H  H13  1  0.51149000  0.36001000  0.50919000  1
  H  H14  1  0.59599000  0.24508000  0.53143000  1
  H  H15  1  0.69034000  0.05359000  0.36222000  1
  H  H16  1  0.68725000  0.96772000  0.23574000  1
  H  H17  1  0.81710000  0.84724000  0.39698000  1
  H  H18  1  0.77033000  0.73809000  0.33848000  1
  H  H19  1  0.78953000  0.62839000  0.25320000  1
  H  H20  1  0.77566000  0.78507000  0.07483000  1
  H  H21  1  0.76415000  0.89628000  0.15865000  1
  H  H22  1  0.10263000  0.56788000  0.38606000  1
  H  H23  1  0.97069000  0.47067000  0.37723000  1
  H  H24  1  0.14703000  0.36919000  0.51051000  1
  H  H25  1  0.88448000  0.39593000  0.44837000  1
  H  H26  1  0.80156000  0.27850000  0.46689000  1
  H  H27  1  0.01149000  0.13999000  0.49082000  1
  H  H28  1  0.09599000  0.25492000  0.46858000  1
  H  H29  1  0.19034000  0.44641000  0.63779000  1
  H  H30  1  0.18725000  0.53227000  0.76426000  1
  H  H31  1  0.31710000  0.65276000  0.60302000  1
  H  H32  1  0.27033000  0.76191000  0.66153000  1
  H  H33  1  0.28953000  0.87161000  0.74680000  1
  H  H34  1  0.27566000  0.71492000  0.92518000  1
  H  H35  1  0.26415000  0.60371000  0.84135000  1
  H  H36  1  0.10263000  0.93210000  0.88610000  1
  H  H37  1  0.97071000  0.02934000  0.87730000  1
  H  H38  1  0.14700000  0.13087000  0.01063000  1
  H  H39  1  0.88451000  0.10397000  0.94842000  1
  H  H40  1  0.80152000  0.22144000  0.96694000  1
  H  H41  1  0.01142000  0.36001000  0.99085000  1
  H  H42  1  0.09598000  0.24506000  0.96868000  1
  H  H43  1  0.19030000  0.05357000  0.13776000  1
  H  H44  1  0.18721000  0.96782000  0.26425000  1
  H  H45  1  0.31711000  0.84723000  0.10294000  1
  H  H46  1  0.27029000  0.73825000  0.16134000  1
  H  H47  1  0.28953000  0.62859000  0.24671000  1
  H  H48  1  0.27565000  0.78526000  0.42511000  1
  H  H49  1  0.26410000  0.89650000  0.34131000  1
  H  H50  1  0.60263000  0.56789000  0.11390000  1
  H  H51  1  0.47071000  0.47066000  0.12270000  1
  H  H52  1  0.64700000  0.36912000  0.98937000  1
  H  H53  1  0.38451000  0.39603000  0.05159000  1
  H  H54  1  0.30152000  0.27856000  0.03307000  1
  H  H55  1  0.51142000  0.13999000  0.00915000  1
  H  H56  1  0.59598000  0.25494000  0.03132000  1
  H  H57  1  0.69030000  0.44643000  0.86224000  1
  H  H58  1  0.68721000  0.53218000  0.73575000  1
  H  H59  1  0.81711000  0.65276000  0.89706000  1
  H  H60  1  0.77029000  0.76174000  0.83867000  1
  H  H61  1  0.78953000  0.87141000  0.75330000  1
  H  H62  1  0.77565000  0.71474000  0.57489000  1
  H  H63  1  0.76411000  0.60349000  0.65869000  1
  H  H64  1  0.89737000  0.06790000  0.11390000  1
  H  H65  1  0.02929000  0.97066000  0.12270000  1
  H  H66  1  0.85300000  0.86912000  0.98937000  1
  H  H67  1  0.11549000  0.89602000  0.05159000  1
  H  H68  1  0.19848000  0.77855000  0.03307000  1
  H  H69  1  0.98858000  0.63998000  0.00915000  1
  H  H70  1  0.90402000  0.75494000  0.03132000  1
  H  H71  1  0.80971000  0.94642000  0.86224000  1
  H  H72  1  0.81279000  0.03218000  0.73575000  1
  H  H73  1  0.68289000  0.15276000  0.89706000  1
  H  H74  1  0.72971000  0.26174000  0.83867000  1
  H  H75  1  0.71047000  0.37141000  0.75329000  1
  H  H76  1  0.72435000  0.21474000  0.57489000  1
  H  H77  1  0.73590000  0.10349000  0.65869000  1
  H  H78  1  0.39737000  0.43210000  0.88610000  1
  H  H79  1  0.52930000  0.52933000  0.87730000  1
  H  H80  1  0.35300000  0.63087000  0.01063000  1
  H  H81  1  0.61549000  0.60397000  0.94842000  1
  H  H82  1  0.69848000  0.72144000  0.96694000  1
  H  H83  1  0.48858000  0.86001000  0.99085000  1
  H  H84  1  0.40402000  0.74506000  0.96868000  1
  H  H85  1  0.30971000  0.55357000  0.13776000  1
  H  H86  1  0.31279000  0.46782000  0.26425000  1
  H  H87  1  0.18289000  0.34724000  0.10294000  1
  H  H88  1  0.22971000  0.23826000  0.16134000  1
  H  H89  1  0.21047000  0.12859000  0.24671000  1
  H  H90  1  0.22435000  0.28526000  0.42511000  1
  H  H91  1  0.23590000  0.39651000  0.34131000  1
  H  H92  1  0.39738000  0.06788000  0.38606000  1
  H  H93  1  0.52931000  0.97067000  0.37723000  1
  H  H94  1  0.35297000  0.86919000  0.51051000  1
  H  H95  1  0.61553000  0.89593000  0.44837000  1
  H  H96  1  0.69845000  0.77850000  0.46689000  1
  H  H97  1  0.48851000  0.63999000  0.49082000  1
  H  H98  1  0.40401000  0.75492000  0.46858000  1
  H  H99  1  0.30966000  0.94641000  0.63779000  1
  H  H100  1  0.31275000  0.03227000  0.76426000  1
  H  H101  1  0.18290000  0.15276000  0.60302000  1
  H  H102  1  0.22967000  0.26191000  0.66153000  1
  H  H103  1  0.21047000  0.37161000  0.74680000  1
  H  H104  1  0.22434000  0.21492000  0.92518000  1
  H  H105  1  0.23585000  0.10372000  0.84135000  1
  H  H106  1  0.89738000  0.43212000  0.61395000  1
  H  H107  1  0.02931000  0.52933000  0.62277000  1
  H  H108  1  0.85297000  0.63081000  0.48950000  1
  H  H109  1  0.11552000  0.60407000  0.55163000  1
  H  H110  1  0.19844000  0.72150000  0.53311000  1
  H  H111  1  0.98851000  0.86001000  0.50919000  1
  H  H112  1  0.90401000  0.74507000  0.53143000  1
  H  H113  1  0.80966000  0.55359000  0.36222000  1
  H  H114  1  0.81275000  0.46772000  0.23574000  1
  H  H115  1  0.68290000  0.34724000  0.39698000  1
  H  H116  1  0.72967000  0.23809000  0.33848000  1
  H  H117  1  0.71047000  0.12839000  0.25320000  1
  H  H118  1  0.72434000  0.28508000  0.07483000  1
  H  H119  1  0.73585000  0.39628000  0.15865000  1
  C  C120  1  0.59154000  0.98761000  0.58885000  1
  C  C121  1  0.52603000  0.03475000  0.59359000  1
  C  C122  1  0.61726000  0.08955000  0.52388000  1
  C  C123  1  0.49516000  0.16695000  0.54226000  1
  C  C124  1  0.41234000  0.16018000  0.54379000  1
  C  C125  1  0.36595000  0.22594000  0.53347000  1
  C  C126  1  0.40152000  0.29790000  0.52053000  1
  C  C127  1  0.48454000  0.30372000  0.51868000  1
  C  C128  1  0.53168000  0.23875000  0.53039000  1
  C  C129  1  0.35063000  0.36762000  0.50897000  1
  C  C130  1  0.71546000  0.99741000  0.35025000  1
  C  C131  1  0.71317000  0.95531000  0.28772000  1
  C  C132  1  0.78146000  0.89135000  0.37128000  1
  C  C133  1  0.76706000  0.82422000  0.25362000  1
  C  C134  1  0.77476000  0.74897000  0.28100000  1
  C  C135  1  0.78487000  0.68744000  0.23350000  1
  C  C136  1  0.78614000  0.69981000  0.15897000  1
  C  C137  1  0.77749000  0.77532000  0.13255000  1
  C  C138  1  0.76905000  0.83766000  0.17948000  1
  C  C139  1  0.79250000  0.63249000  0.10850000  1
  C  C140  1  0.09154000  0.51239000  0.41115000  1
  C  C141  1  0.02603000  0.46525000  0.40641000  1
  C  C142  1  0.11726000  0.41045000  0.47613000  1
  C  C143  1  0.99517000  0.33305000  0.45774000  1
  C  C144  1  0.91234000  0.33982000  0.45622000  1
  C  C145  1  0.86596000  0.27406000  0.46653000  1
  C  C146  1  0.90152000  0.20210000  0.47947000  1
  C  C147  1  0.98454000  0.19628000  0.48132000  1
  C  C148  1  0.03168000  0.26125000  0.46962000  1
  C  C149  1  0.85063000  0.13238000  0.49104000  1
  C  C150  1  0.21546000  0.50259000  0.64975000  1
  C  C151  1  0.21317000  0.54468000  0.71228000  1
  C  C152  1  0.28146000  0.60864000  0.62872000  1
  C  C153  1  0.26706000  0.67578000  0.74638000  1
  C  C154  1  0.27476000  0.75102000  0.71900000  1
  C  C155  1  0.28487000  0.81256000  0.76651000  1
  C  C156  1  0.28614000  0.80019000  0.84103000  1
  C  C157  1  0.27749000  0.72467000  0.86745000  1
  C  C158  1  0.26905000  0.66233000  0.82052000  1
  C  C159  1  0.29250000  0.86751000  0.89150000  1
  C  C160  1  0.09151000  0.98757000  0.91127000  1
  C  C161  1  0.02603000  0.03472000  0.90652000  1
  C  C162  1  0.11721000  0.08954000  0.97631000  1
  C  C163  1  0.99515000  0.16691000  0.95791000  1
  C  C164  1  0.91233000  0.16011000  0.95633000  1
  C  C165  1  0.86592000  0.22589000  0.96651000  1
  C  C166  1  0.90148000  0.29790000  0.97927000  1
  C  C167  1  0.98450000  0.30372000  0.98128000  1
  C  C168  1  0.03167000  0.23872000  0.96977000  1
  C  C169  1  0.85068000  0.36770000  0.99085000  1
  C  C170  1  0.21539000  0.99741000  0.14975000  1
  C  C171  1  0.21315000  0.95540000  0.21227000  1
  C  C172  1  0.28146000  0.89135000  0.12869000  1
  C  C173  1  0.26708000  0.82440000  0.24632000  1
  C  C174  1  0.27477000  0.74919000  0.21880000  1
  C  C175  1  0.28491000  0.68772000  0.26624000  1
  C  C176  1  0.28616000  0.70003000  0.34073000  1
  C  C177  1  0.27750000  0.77551000  0.36736000  1
  C  C178  1  0.26906000  0.83786000  0.32048000  1
  C  C179  1  0.29243000  0.63236000  0.39059000  1
  C  C180  1  0.59152000  0.51243000  0.08873000  1
  C  C181  1  0.52603000  0.46528000  0.09349000  1
  C  C182  1  0.61721000  0.41046000  0.02369000  1
  C  C183  1  0.49514000  0.33309000  0.04209000  1
  C  C184  1  0.41233000  0.33989000  0.04367000  1
  C  C185  1  0.36592000  0.27411000  0.03349000  1
  C  C186  1  0.40148000  0.20210000  0.02073000  1
  C  C187  1  0.48450000  0.19628000  0.01872000  1
  C  C188  1  0.53167000  0.26128000  0.03024000  1
  C  C189  1  0.35068000  0.13230000  0.00915000  1
  C  C190  1  0.71539000  0.50259000  0.85025000  1
  C  C191  1  0.71315000  0.54460000  0.78773000  1
  C  C192  1  0.78146000  0.60865000  0.87131000  1
  C  C193  1  0.76708000  0.67560000  0.75368000  1
  C  C194  1  0.77477000  0.75080000  0.78120000  1
  C  C195  1  0.78491000  0.81228000  0.73377000  1
  C  C196  1  0.78616000  0.79997000  0.65927000  1
  C  C197  1  0.77750000  0.72448000  0.63264000  1
  C  C198  1  0.76906000  0.66214000  0.67952000  1
  C  C199  1  0.79243000  0.86764000  0.60942000  1
  C  C200  1  0.90849000  0.01243000  0.08873000  1
  C  C201  1  0.97398000  0.96528000  0.09349000  1
  C  C202  1  0.88279000  0.91045000  0.02369000  1
  C  C203  1  0.00486000  0.83309000  0.04209000  1
  C  C204  1  0.08767000  0.83989000  0.04367000  1
  C  C205  1  0.13408000  0.77411000  0.03349000  1
  C  C206  1  0.09852000  0.70210000  0.02073000  1
  C  C207  1  0.01550000  0.69628000  0.01872000  1
  C  C208  1  0.96834000  0.76128000  0.03024000  1
  C  C209  1  0.14932000  0.63230000  0.00915000  1
  C  C210  1  0.78461000  0.00259000  0.85025000  1
  C  C211  1  0.78685000  0.04460000  0.78773000  1
  C  C212  1  0.71854000  0.10865000  0.87131000  1
  C  C213  1  0.73292000  0.17560000  0.75368000  1
  C  C214  1  0.72523000  0.25081000  0.78120000  1
  C  C215  1  0.71510000  0.31228000  0.73377000  1
  C  C216  1  0.71385000  0.29997000  0.65927000  1
  C  C217  1  0.72251000  0.22448000  0.63264000  1
  C  C218  1  0.73094000  0.16214000  0.67952000  1
  C  C219  1  0.70757000  0.36764000  0.60942000  1
  C  C220  1  0.40849000  0.48757000  0.91127000  1
  C  C221  1  0.47397000  0.53472000  0.90652000  1
  C  C222  1  0.38279000  0.58954000  0.97631000  1
  C  C223  1  0.50486000  0.66690000  0.95791000  1
  C  C224  1  0.58767000  0.66011000  0.95633000  1
  C  C225  1  0.63408000  0.72589000  0.96651000  1
  C  C226  1  0.59852000  0.79790000  0.97927000  1
  C  C227  1  0.51550000  0.80371000  0.98128000  1
  C  C228  1  0.46833000  0.73872000  0.96977000  1
  C  C229  1  0.64932000  0.86770000  0.99085000  1
  C  C230  1  0.28461000  0.49741000  0.14975000  1
  C  C231  1  0.28685000  0.45540000  0.21227000  1
  C  C232  1  0.21854000  0.39135000  0.12869000  1
  C  C233  1  0.23292000  0.32440000  0.24632000  1
  C  C234  1  0.22523000  0.24919000  0.21880000  1
  C  C235  1  0.21509000  0.18772000  0.26624000  1
  C  C236  1  0.21385000  0.20003000  0.34073000  1
  C  C237  1  0.22250000  0.27552000  0.36736000  1
  C  C238  1  0.23094000  0.33786000  0.32048000  1
  C  C239  1  0.20757000  0.13236000  0.39059000  1
  C  C240  1  0.40847000  0.01239000  0.41115000  1
  C  C241  1  0.47397000  0.96525000  0.40641000  1
  C  C242  1  0.38274000  0.91044000  0.47613000  1
  C  C243  1  0.50484000  0.83304000  0.45774000  1
  C  C244  1  0.58766000  0.83982000  0.45622000  1
  C  C245  1  0.63405000  0.77406000  0.46653000  1
  C  C246  1  0.59848000  0.70209000  0.47947000  1
  C  C247  1  0.51547000  0.69627000  0.48132000  1
  C  C248  1  0.46832000  0.76125000  0.46962000  1
  C  C249  1  0.64938000  0.63238000  0.49104000  1
  C  C250  1  0.28454000  0.00259000  0.64975000  1
  C  C251  1  0.28683000  0.04468000  0.71228000  1
  C  C252  1  0.21854000  0.10864000  0.62872000  1
  C  C253  1  0.23294000  0.17578000  0.74638000  1
  C  C254  1  0.22524000  0.25102000  0.71900000  1
  C  C255  1  0.21513000  0.31256000  0.76651000  1
  C  C256  1  0.21386000  0.30019000  0.84103000  1
  C  C257  1  0.22251000  0.22468000  0.86745000  1
  C  C258  1  0.23095000  0.16234000  0.82052000  1
  C  C259  1  0.20750000  0.36751000  0.89150000  1
  C  C260  1  0.90847000  0.48761000  0.58885000  1
  C  C261  1  0.97397000  0.53475000  0.59359000  1
  C  C262  1  0.88274000  0.58955000  0.52388000  1
  C  C263  1  0.00484000  0.66695000  0.54226000  1
  C  C264  1  0.08766000  0.66018000  0.54379000  1
  C  C265  1  0.13405000  0.72594000  0.53347000  1
  C  C266  1  0.09848000  0.79790000  0.52053000  1
  C  C267  1  0.01547000  0.80372000  0.51868000  1
  C  C268  1  0.96833000  0.73875000  0.53039000  1
  C  C269  1  0.14938000  0.86761000  0.50897000  1
  C  C270  1  0.78454000  0.49741000  0.35025000  1
  C  C271  1  0.78683000  0.45531000  0.28772000  1
  C  C272  1  0.71854000  0.39136000  0.37128000  1
  C  C273  1  0.73294000  0.32422000  0.25362000  1
  C  C274  1  0.72524000  0.24898000  0.28100000  1
  C  C275  1  0.71513000  0.18744000  0.23350000  1
  C  C276  1  0.71386000  0.19981000  0.15897000  1
  C  C277  1  0.72251000  0.27532000  0.13255000  1
  C  C278  1  0.73095000  0.33766000  0.17948000  1
  C  C279  1  0.70750000  0.13249000  0.10850000  1
  N  N280  1  0.64783000  0.02236000  0.54516000  1
  N  N281  1  0.54329000  0.09987000  0.55233000  1
  N  N282  1  0.75802000  0.95702000  0.40163000  1
  N  N283  1  0.75528000  0.88750000  0.30171000  1
  N  N284  1  0.14783000  0.47764000  0.45484000  1
  N  N285  1  0.04329000  0.40013000  0.44767000  1
  N  N286  1  0.25802000  0.54298000  0.59837000  1
  N  N287  1  0.25527000  0.61249000  0.69830000  1
  N  N288  1  0.14777000  0.02233000  0.95503000  1
  N  N289  1  0.04326000  0.09984000  0.94786000  1
  N  N290  1  0.25794000  0.95696000  0.09838000  1
  N  N291  1  0.25531000  0.88762000  0.19828000  1
  N  N292  1  0.64777000  0.47767000  0.04497000  1
  N  N293  1  0.54326000  0.40016000  0.05214000  1
  N  N294  1  0.75795000  0.54304000  0.90162000  1
  N  N295  1  0.75531000  0.61238000  0.80172000  1
  N  N296  1  0.85223000  0.97767000  0.04497000  1
  N  N297  1  0.95674000  0.90016000  0.05214000  1
  N  N298  1  0.74206000  0.04304000  0.90162000  1
  N  N299  1  0.74469000  0.11238000  0.80172000  1
  N  N300  1  0.35223000  0.52233000  0.95503000  1
  N  N301  1  0.45674000  0.59984000  0.94786000  1
  N  N302  1  0.24206000  0.45696000  0.09838000  1
  N  N303  1  0.24469000  0.38762000  0.19828000  1
  N  N304  1  0.35217000  0.97764000  0.45484000  1
  N  N305  1  0.45671000  0.90012000  0.44767000  1
  N  N306  1  0.24198000  0.04298000  0.59837000  1
  N  N307  1  0.24473000  0.11250000  0.69830000  1
  N  N308  1  0.85217000  0.52236000  0.54516000  1
  N  N309  1  0.95671000  0.59987000  0.55233000  1
  N  N310  1  0.74198000  0.45702000  0.40163000  1
  N  N311  1  0.74473000  0.38750000  0.30171000  1
  O  O312  1  0.38448000  0.42858000  0.48362000  1
  O  O313  1  0.27716000  0.36369000  0.52407000  1
  O  O314  1  0.79793000  0.64521000  0.04094000  1
  O  O315  1  0.78961000  0.56409000  0.13481000  1
  O  O316  1  0.88448000  0.07142000  0.51638000  1
  O  O317  1  0.77716000  0.13631000  0.47593000  1
  O  O318  1  0.29792000  0.85479000  0.95906000  1
  O  O319  1  0.28961000  0.93591000  0.86519000  1
  O  O320  1  0.88495000  0.42916000  0.01451000  1
  O  O321  1  0.77679000  0.36346000  0.97758000  1
  O  O322  1  0.29781000  0.64478000  0.45824000  1
  O  O323  1  0.28959000  0.56414000  0.36380000  1
  O  O324  1  0.38495000  0.07084000  0.98549000  1
  O  O325  1  0.27679000  0.13654000  0.02243000  1
  O  O326  1  0.79781000  0.85522000  0.54177000  1
  O  O327  1  0.78959000  0.93586000  0.63620000  1
  O  O328  1  0.11505000  0.57083000  0.98549000  1
  O  O329  1  0.22321000  0.63654000  0.02243000  1
  O  O330  1  0.70219000  0.35522000  0.54177000  1
  O  O331  1  0.71041000  0.43586000  0.63620000  1
  O  O332  1  0.61505000  0.92916000  0.01451000  1
  O  O333  1  0.72321000  0.86345000  0.97758000  1
  O  O334  1  0.20219000  0.14478000  0.45824000  1
  O  O335  1  0.21041000  0.06414000  0.36380000  1
  O  O336  1  0.61552000  0.57141000  0.51638000  1
  O  O337  1  0.72285000  0.63631000  0.47593000  1
  O  O338  1  0.20208000  0.35479000  0.95906000  1
  O  O339  1  0.21039000  0.43591000  0.86519000  1
  O  O340  1  0.11552000  0.92858000  0.48362000  1
  O  O341  1  0.22285000  0.86368000  0.52407000  1
  O  O342  1  0.70208000  0.14521000  0.04094000  1
  O  O343  1  0.71039000  0.06409000  0.13481000  1
