# generated using pymatgen
data_V4H23C44ClO20
_symmetry_space_group_name_H-M   'P 1'
_cell_length_a   6.94349000
_cell_length_b   13.63256000
_cell_length_c   20.42528000
_cell_angle_alpha   77.86621000
_cell_angle_beta   89.61725000
_cell_angle_gamma   89.33575000
_symmetry_Int_Tables_number   1
_chemical_formula_structural   V4H23C44ClO20
_chemical_formula_sum   'V4 H23 C44 Cl1 O20'
_cell_volume   1890.06862669
_cell_formula_units_Z   1
loop_
 _symmetry_equiv_pos_site_id
 _symmetry_equiv_pos_as_xyz
  1  'x, y, z'
loop_
 _atom_site_type_symbol
 _atom_site_label
 _atom_site_symmetry_multiplicity
 _atom_site_fract_x
 _atom_site_fract_y
 _atom_site_fract_z
 _atom_site_occupancy
  V  V0  1  0.93532000  0.51180000  0.49778000  1
  V  V1  1  0.43599000  0.48820000  0.50222000  1
  V  V2  1  0.35183000  0.98820000  0.00222000  1
  V  V3  1  0.85119000  0.01193000  0.99782000  1
  H  H4  1  0.17904000  0.16151000  0.47983000  1
  H  H5  1  0.17430000  0.98594000  0.30408000  1
  H  H6  1  0.18220000  0.03297000  0.41211000  1
  H  H7  1  0.13061000  0.39354000  0.30455000  1
  H  H8  1  0.11314000  0.33476000  0.01736000  1
  H  H9  1  0.12465000  0.43217000  0.20084000  1
  H  H10  1  0.10965000  0.46910000  0.08069000  1
  H  H11  1  0.15892000  0.02867000  0.18360000  1
  H  H12  1  0.85700000  0.31721000  0.69375000  1
  H  H13  1  0.29603000  0.28779000  0.70024000  1
  H  H14  1  0.84382000  0.20158000  0.80337000  1
  H  H15  1  0.28626000  0.20145000  0.80084000  1
  H  H16  1  0.93407000  0.80797000  0.19087000  1
  H  H17  1  0.49597000  0.78532000  0.19844000  1
  H  H18  1  0.50788000  0.71855000  0.30472000  1
  H  H19  1  0.58714000  0.83634000  0.52059000  1
  H  H20  1  0.55416000  0.01087000  0.69675000  1
  H  H21  1  0.55603000  0.96385000  0.58864000  1
  H  H22  1  0.68608000  0.60813000  0.69502000  1
  H  H23  1  0.69530000  0.66731000  0.98217000  1
  H  H24  1  0.70338000  0.57004000  0.79856000  1
  H  H25  1  0.72796000  0.53405000  0.91849000  1
  H  H26  1  0.58026000  0.96910000  0.81702000  1
  C  C27  1  0.65264000  0.61428000  0.38575000  1
  C  C28  1  0.65274000  0.63789000  0.56481000  1
  C  C29  1  0.15989000  0.38410000  0.61346000  1
  C  C30  1  0.15780000  0.36224000  0.43506000  1
  C  C31  1  0.17080000  0.11126000  0.38718000  1
  C  C32  1  0.15297000  0.28529000  0.39499000  1
  C  C33  1  0.12162000  0.31546000  0.07152000  1
  C  C34  1  0.11911000  0.39161000  0.10724000  1
  C  C35  1  0.12758000  0.36891000  0.17694000  1
  C  C36  1  0.13922000  0.26815000  0.21305000  1
  C  C37  1  0.14367000  0.19038000  0.17594000  1
  C  C38  1  0.14648000  0.24197000  0.28457000  1
  C  C39  1  0.16028000  0.13905000  0.31707000  1
  C  C40  1  0.16430000  0.06448000  0.27956000  1
  C  C41  1  0.15566000  0.08950000  0.21020000  1
  C  C42  1  0.14130000  0.31419000  0.32523000  1
  C  C43  1  0.16850000  0.18405000  0.42584000  1
  C  C44  1  0.13438000  0.21518000  0.10507000  1
  C  C45  1  0.99433000  0.28874000  0.71535000  1
  C  C46  1  0.15729000  0.31577000  0.68022000  1
  C  C47  1  0.98665000  0.22069000  0.78298000  1
  C  C48  1  0.14205000  0.18320000  0.81960000  1
  C  C49  1  0.79638000  0.78151000  0.21290000  1
  C  C50  1  0.63491000  0.81345000  0.17902000  1
  C  C51  1  0.80206000  0.70678000  0.27764000  1
  C  C52  1  0.64643000  0.68357000  0.31901000  1
  C  C53  1  0.58455000  0.88663000  0.61332000  1
  C  C54  1  0.63997000  0.71462000  0.60499000  1
  C  C55  1  0.68212000  0.68606000  0.92812000  1
  C  C56  1  0.70108000  0.61056000  0.89220000  1
  C  C57  1  0.68672000  0.63272000  0.82262000  1
  C  C58  1  0.65231000  0.73224000  0.78684000  1
  C  C59  1  0.63139000  0.80925000  0.82415000  1
  C  C60  1  0.63811000  0.75793000  0.71545000  1
  C  C61  1  0.60161000  0.85950000  0.68328000  1
  C  C62  1  0.58168000  0.93334000  0.72100000  1
  C  C63  1  0.59664000  0.90887000  0.79024000  1
  C  C64  1  0.65818000  0.68645000  0.67459000  1
  C  C65  1  0.60259000  0.81444000  0.57446000  1
  C  C66  1  0.64701000  0.78504000  0.89489000  1
  C  C67  1  0.63421000  0.86228000  0.93500000  1
  C  C68  1  0.63504000  0.88380000  0.11328000  1
  C  C69  1  0.12951000  0.13766000  0.06507000  1
  C  C70  1  0.12783000  0.11570000  0.88647000  1
  Cl  Cl71  1  0.03082000  0.64965000  0.29634000  1
  O  O72  1  0.49314000  0.59939000  0.55076000  1
  O  O73  1  0.81978000  0.59460000  0.41322000  1
  O  O74  1  0.99550000  0.40061000  0.44924000  1
  O  O75  1  0.82251000  0.61129000  0.54803000  1
  O  O76  1  0.99825000  0.41742000  0.58501000  1
  O  O77  1  0.49039000  0.58258000  0.41499000  1
  O  O78  1  0.66258000  0.43637000  0.51198000  1
  O  O79  1  0.32829000  0.40540000  0.58678000  1
  O  O80  1  0.32556000  0.38871000  0.45197000  1
  O  O81  1  0.15886000  0.56363000  0.48802000  1
  O  O82  1  0.79677000  0.91731000  0.08498000  1
  O  O83  1  0.46450000  0.88869000  0.95196000  1
  O  O84  1  0.28892000  0.08261000  0.91500000  1
  O  O85  1  0.46737000  0.90537000  0.08677000  1
  O  O86  1  0.29181000  0.09941000  0.05077000  1
  O  O87  1  0.79388000  0.90051000  0.94921000  1
  O  O88  1  0.62464000  0.06357000  0.98801000  1
  O  O89  1  0.96176000  0.11139000  0.04806000  1
  O  O90  1  0.95888000  0.09471000  0.91325000  1
  O  O91  1  0.12825000  0.93643000  0.01199000  1
