# generated using pymatgen
data_H11C21N3O
_symmetry_space_group_name_H-M   'P 1'
_cell_length_a   9.98966667
_cell_length_b   44.93710000
_cell_length_c   44.93710000
_cell_angle_alpha   120.00000000
_cell_angle_beta   90.00000000
_cell_angle_gamma   90.00000000
_symmetry_Int_Tables_number   1
_chemical_formula_structural   H11C21N3O
_chemical_formula_sum   'H66 C126 N18 O6'
_cell_volume   17469.95203495
_cell_formula_units_Z   6
loop_
 _symmetry_equiv_pos_site_id
 _symmetry_equiv_pos_as_xyz
  1  'x, y, z'
loop_
 _atom_site_type_symbol
 _atom_site_label
 _atom_site_symmetry_multiplicity
 _atom_site_fract_x
 _atom_site_fract_y
 _atom_site_fract_z
 _atom_site_occupancy
  C  7  1  0.99927700  0.02498100  0.98600800  1
  C  8  1  0.99927300  0.97175400  0.98600800  1
  C  9  1  0.99927700  0.02497900  0.03923500  1
  C  11  1  0.99900600  0.93505800  0.96765800  1
  C  12  1  0.99876300  0.91614700  0.93121200  1
  C  13  1  0.99810000  0.87998600  0.91307800  1
  C  14  1  0.99766400  0.86161700  0.93093700  1
  C  15  1  0.99809500  0.87998500  0.96716400  1
  C  16  1  0.99876000  0.91614500  0.98519100  1
  C  17  1  0.99901100  0.04333000  0.96766400  1
  C  18  1  0.99876600  0.02579800  0.93121700  1
  C  19  1  0.99810400  0.04382500  0.91308500  1
  C  20  1  0.99767300  0.08005300  0.93094500  1
  C  21  1  0.99810400  0.09791100  0.96717100  1
  C  22  1  0.99876300  0.07977700  0.98519800  1
  C  23  1  0.99901000  0.04332800  0.07593200  1
  C  24  1  0.99876300  0.07977400  0.09484300  1
  C  25  1  0.99810400  0.09790800  0.13100200  1
  C  26  1  0.99767300  0.08005000  0.14937200  1
  C  27  1  0.99810400  0.04382200  0.13100500  1
  C  28  1  0.99876600  0.02579500  0.09484500  1
  C  41  1  0.99707300  0.55250500  0.74974100  1
  C  43  1  0.99785400  0.60562100  0.80298400  1
  C  45  1  0.99683200  0.55249400  0.80308900  1
  C  47  1  0.99824300  0.64231900  0.82133100  1
  C  48  1  0.99828500  0.66123100  0.80379500  1
  C  49  1  0.99793800  0.69738600  0.82181300  1
  C  50  1  0.99754200  0.71575400  0.85803900  1
  C  51  1  0.99792000  0.69739500  0.87590700  1
  C  52  1  0.99825900  0.66123800  0.85777900  1
  C  53  1  0.99725200  0.53293400  0.71307400  1
  C  54  1  0.99796300  0.54861300  0.69240900  1
  C  55  1  0.99895600  0.52871800  0.65619100  1
  C  56  1  0.99926100  0.49251800  0.63971700  1
  C  57  1  0.99820300  0.47665800  0.66001500  1
  C  58  1  0.99715400  0.49651000  0.69596900  1
  C  59  1  0.99684800  0.53290700  0.82016700  1
  C  60  1  0.99674100  0.49648100  0.80082900  1
  C  61  1  0.99786900  0.47660900  0.81691000  1
  C  62  1  0.99907600  0.49245200  0.85306300  1
  C  63  1  0.99848200  0.52864800  0.87281100  1
  C  64  1  0.99746200  0.54856200  0.85650700  1
  C  77  1  0.99740800  0.20799900  0.45847400  1
  C  79  1  0.99797500  0.20813400  0.40536300  1
  C  81  1  0.99695100  0.26136300  0.45849700  1
  C  83  1  0.99829400  0.18978000  0.36866700  1
  C  84  1  0.99831500  0.15333300  0.34976100  1
  C  85  1  0.99793800  0.13518800  0.31360200  1
  C  86  1  0.99751700  0.15304300  0.29523200  1
  C  87  1  0.99789500  0.18927100  0.31358700  1
  C  88  1  0.99827300  0.20730500  0.34974400  1
  C  89  1  0.99764300  0.19089200  0.47803400  1
  C  90  1  0.99830300  0.15454600  0.46234200  1
  C  91  1  0.99913100  0.13821300  0.48222700  1
  C  92  1  0.99934600  0.15793000  0.51842800  1
  C  93  1  0.99834000  0.19408700  0.53429800  1
  C  94  1  0.99750300  0.21020100  0.51445600  1
  C  95  1  0.99689200  0.29802800  0.47809100  1
  C  96  1  0.99674700  0.31510900  0.51451700  1
  C  97  1  0.99783900  0.35106300  0.53439700  1
  C  98  1  0.99905200  0.37138000  0.51856200  1
  C  99  1  0.99849300  0.35493600  0.48236200  1
  C  100  1  0.99748300  0.31872000  0.46244200  1
  C  113  1  0.99714300  0.26125100  0.80303900  1
  C  115  1  0.99792300  0.20800600  0.80290800  1
  C  117  1  0.99705200  0.20790400  0.74967700  1
  C  119  1  0.99826300  0.18965800  0.82125600  1
  C  120  1  0.99828800  0.20719500  0.85770500  1
  C  121  1  0.99792400  0.18917200  0.87583900  1
  C  122  1  0.99752300  0.15294800  0.85798000  1
  C  123  1  0.99791400  0.13508100  0.82175300  1
  C  124  1  0.99827300  0.15321000  0.80372500  1
  C  125  1  0.99727400  0.29791700  0.82013800  1
  C  126  1  0.99796800  0.31857900  0.85647900  1
  C  127  1  0.99894600  0.35479700  0.87280600  1
  C  128  1  0.99924200  0.37127300  0.85308200  1
  C  129  1  0.99818900  0.35097900  0.81692300  1
  C  130  1  0.99716200  0.31502700  0.80082100  1
  C  131  1  0.99712400  0.19083100  0.71301300  1
  C  132  1  0.99707700  0.21017400  0.69593200  1
  C  133  1  0.99813000  0.19409700  0.65997900  1
  C  134  1  0.99924100  0.15794400  0.63966300  1
  C  135  1  0.99856600  0.13819000  0.65610700  1
  C  136  1  0.99764400  0.15448900  0.69232500  1
  C  149  1  0.99660100  0.75200000  0.87615500  1
  C  150  1  0.11765400  0.77064800  0.88546800  1
  C  151  1  0.11680400  0.80643000  0.90334800  1
  C  152  1  0.99650300  0.82535600  0.91280800  1
  C  153  1  0.87470700  0.80681400  0.90354600  1
  C  154  1  0.87471700  0.77052900  0.88541500  1
  C  159  1  0.31693900  0.78775300  0.89401000  1
  C  161  1  0.99658200  0.13490600  0.25898600  1
  C  162  1  0.11763900  0.12556500  0.24034200  1
  C  163  1  0.11680300  0.10765400  0.20456000  1
  C  164  1  0.99650300  0.09818500  0.18563300  1
  C  165  1  0.87470100  0.10746800  0.20417100  1
  C  166  1  0.87470100  0.12563200  0.24045700  1
  C  171  1  0.31693000  0.11699600  0.22323800  1
  C  173  1  0.99658700  0.13483100  0.87610900  1
  C  174  1  0.11764500  0.12552000  0.88544300  1
  C  175  1  0.11680400  0.10764200  0.90334700  1
  C  176  1  0.99650700  0.09818200  0.91281200  1
  C  177  1  0.87470600  0.10744300  0.90353300  1
  C  178  1  0.87470700  0.12557100  0.88537900  1
  C  183  1  0.31693500  0.11697900  0.89400600  1
  C  185  1  0.00162000  0.40750100  0.53995200  1
  C  186  1  0.88070200  0.42485900  0.55484400  1
  C  187  1  0.88175300  0.45553000  0.58620600  1
  C  188  1  0.00176400  0.47117600  0.60357900  1
  C  189  1  0.12338900  0.45513700  0.58731900  1
  C  190  1  0.12344200  0.42366900  0.55598100  1
  C  195  1  0.68185800  0.43720800  0.57227000  1
  C  197  1  0.00126800  0.14323100  0.60355800  1
  C  198  1  0.88042300  0.14080000  0.58619200  1
  C  199  1  0.88133200  0.14165300  0.55560900  1
  C  200  1  0.00112300  0.14313100  0.53976000  1
  C  201  1  0.12285500  0.14279300  0.55573400  1
  C  202  1  0.12288000  0.14312900  0.58730900  1
  C  207  1  0.68172800  0.14611700  0.57400000  1
  C  209  1  0.00161900  0.47107200  0.86778900  1
  C  210  1  0.88079100  0.45613600  0.87026400  1
  C  211  1  0.88176800  0.42478500  0.86959700  1
  C  212  1  0.00174500  0.40741200  0.86788000  1
  C  213  1  0.12334100  0.42367400  0.86810000  1
  C  214  1  0.12334400  0.45500100  0.86795000  1
  C  219  1  0.68190200  0.43872800  0.86520600  1
  H  29  1  0.99779900  0.03030900  0.88677500  1
  H  30  1  0.99891000  0.99952900  0.91726600  1
  H  31  1  0.99780400  0.12421900  0.98068700  1
  H  32  1  0.99891300  0.09372800  0.01146800  1
  H  33  1  0.99891300  0.09372300  0.08252300  1
  H  34  1  0.99779900  0.12421600  0.14379300  1
  H  35  1  0.99891300  0.99952600  0.08252700  1
  H  36  1  0.99780000  0.03030700  0.14379900  1
  H  37  1  0.99890700  0.92846300  0.01146100  1
  H  38  1  0.99779400  0.86719100  0.98067900  1
  H  39  1  0.99780300  0.86719300  0.88676900  1
  H  40  1  0.99891300  0.92846500  0.91726200  1
  H  65  1  0.99992833  0.54076600  0.64197500  1
  H  66  1  0.99811400  0.57479800  0.70353000  1
  H  67  1  0.99847500  0.45041100  0.64876400  1
  H  68  1  0.99671300  0.48366800  0.70940900  1
  H  69  1  0.99627000  0.48365100  0.77454700  1
  H  70  1  0.99814400  0.45036400  0.80189700  1
  H  71  1  0.99759000  0.57474900  0.87158800  1
  H  72  1  0.99943200  0.54068000  0.89907400  1
  H  73  1  0.99826500  0.64893400  0.87174200  1
  H  74  1  0.99771500  0.71019200  0.90221600  1
  H  75  1  0.99775400  0.71017800  0.80829600  1
  H  76  1  0.99830300  0.64892100  0.77752500  1
  H  101  1  0.99993333  0.11194800  0.47017200  1
  H  102  1  0.99844400  0.13948800  0.43615500  1
  H  103  1  0.99845200  0.20908000  0.56054600  1
  H  104  1  0.99704200  0.23648500  0.52730600  1
  H  105  1  0.99628200  0.30165000  0.52733900  1
  H  106  1  0.99810900  0.36229000  0.56064000  1
  H  107  1  0.99763800  0.30761800  0.43625700  1
  H  108  1  0.99943200  0.36917400  0.47033800  1
  H  109  1  0.99829400  0.23357300  0.36204600  1
  H  110  1  0.99768500  0.20277700  0.30078400  1
  H  111  1  0.99775800  0.10888000  0.30081700  1
  H  112  1  0.99836300  0.13937500  0.36207200  1
  H  137  1  0.99992033  0.36901200  0.89907000  1
  H  138  1  0.99813400  0.30745800  0.87154500  1
  H  139  1  0.99846000  0.36223100  0.80192900  1
  H  140  1  0.99672800  0.30158700  0.77453800  1
  H  141  1  0.99665200  0.23645600  0.70938900  1
  H  142  1  0.99835300  0.20911600  0.64875300  1
  H  143  1  0.99766400  0.13940700  0.70342700  1
  H  144  1  0.99932800  0.11192600  0.64186800  1
  H  145  1  0.99829300  0.13924900  0.77745900  1
  H  146  1  0.99771400  0.10877200  0.80824100  1
  H  147  1  0.99773400  0.20269100  0.90214900  1
  H  148  1  0.99831300  0.23346200  0.87166400  1
  H  155  1  0.78515300  0.75774900  0.87903100  1
  H  156  1  0.78513500  0.81958900  0.90993200  1
  H  160  1  0.41915100  0.78799100  0.89412700  1
  H  167  1  0.78513500  0.13203100  0.25323600  1
  H  168  1  0.78513400  0.10107900  0.19139600  1
  H  172  1  0.41914200  0.11687600  0.22300400  1
  H  179  1  0.78514200  0.13195700  0.87898400  1
  H  180  1  0.78513500  0.10105300  0.90992200  1
  H  184  1  0.41914600  0.11686300  0.89412600  1
  H  191  1  0.21202200  0.41064800  0.54733900  1
  H  192  1  0.21214100  0.46385000  0.60023300  1
  H  196  1  0.58164400  0.43484800  0.57504900  1
  H  203  1  0.21167200  0.14744300  0.60023600  1
  H  204  1  0.21157800  0.14705900  0.54706200  1
  H  208  1  0.58063200  0.14997600  0.57574500  1
  H  215  1  0.21196100  0.46363300  0.86357700  1
  H  216  1  0.21211200  0.41076800  0.86391000  1
  H  220  1  0.58168300  0.43595600  0.86007200  1
  N  1  1  0.99925000  0.99004300  0.96935800  1
  N  2  1  0.99925000  0.99004200  0.02094600  1
  N  10  1  0.99925100  0.04162900  0.02094700  1
  N  42  1  0.99766800  0.58742800  0.76792800  1
  N  44  1  0.99744400  0.58741800  0.81983800  1
  N  46  1  0.99672400  0.53622400  0.76827400  1
  N  78  1  0.99792400  0.19126700  0.42355200  1
  N  80  1  0.99750300  0.24319200  0.42357000  1
  N  82  1  0.99698200  0.24281200  0.47476000  1
  N  114  1  0.99769300  0.24306300  0.81977200  1
  N  116  1  0.99760400  0.19115400  0.76785300  1
  N  118  1  0.99689100  0.24272000  0.76822500  1
  N  157  1  0.24390400  0.81671000  0.90848100  1
  N  169  1  0.24390300  0.10250600  0.19428200  1
  N  181  1  0.24390500  0.10250700  0.90849000  1
  N  193  1  0.75548700  0.46228600  0.59711100  1
  N  205  1  0.75498800  0.14555200  0.54871100  1
  N  217  1  0.75549300  0.41388800  0.86545500  1
  O  158  1  0.24457600  0.75787600  0.87908300  1
  O  170  1  0.24456000  0.13195300  0.25311500  1
  O  182  1  0.24456600  0.13190600  0.87905600  1
  O  194  1  0.75447600  0.41178900  0.54609200  1
  O  206  1  0.75415300  0.14487800  0.59918700  1
  O  218  1  0.75456200  0.46489100  0.86595000  1
