# generated using pymatgen
data_H17C19N3O2
_symmetry_space_group_name_H-M   'P 1'
_cell_length_a   27.79365000
_cell_length_b   27.79365000
_cell_length_c   31.31040000
_cell_angle_alpha   90.00000000
_cell_angle_beta   90.00000000
_cell_angle_gamma   120.00000000
_symmetry_Int_Tables_number   1
_chemical_formula_structural   H17C19N3O2
_chemical_formula_sum   'H306 C342 N54 O36'
_cell_volume   20946.44935616
_cell_formula_units_Z   18
loop_
 _symmetry_equiv_pos_site_id
 _symmetry_equiv_pos_as_xyz
  1  'x, y, z'
loop_
 _atom_site_type_symbol
 _atom_site_label
 _atom_site_symmetry_multiplicity
 _atom_site_fract_x
 _atom_site_fract_y
 _atom_site_fract_z
 _atom_site_occupancy
  C  1  1  0.51542650  0.45911850  0.97392000  1
  C  2  1  0.56855350  0.48464750  0.00285500  1
  C  3  1  0.51838700  0.50762200  0.94608800  1
  C  4  1  0.52143450  0.55619850  0.97387100  1
  C  7  1  0.57437250  0.57934950  0.00290100  1
  C  8  1  0.57280900  0.53262900  0.03189600  1
  C  13  1  0.51856300  0.50777700  0.05983300  1
  C  14  1  0.46423250  0.48284550  0.03199200  1
  C  17  1  0.46839800  0.53074800  0.00290000  1
  C  20  1  0.46258200  0.43604600  0.00304500  1
  C  23  1  0.51335250  0.41207650  0.94870400  1
  C  24  1  0.41115100  0.45989100  0.05703500  1
  C  25  1  0.52342050  0.60316650  0.94860800  1
  C  26  1  0.62595500  0.55565900  0.05685900  1
  C  31  1  0.97275700  0.51026600  0.30766700  1
  C  32  1  0.94552750  0.45713550  0.33661300  1
  C  33  1  0.01852300  0.50772900  0.27982700  1
  C  34  1  0.06430600  0.50512400  0.30760000  1
  C  37  1  0.03487550  0.45217050  0.33664200  1
  C  38  1  0.98950700  0.45331700  0.36564500  1
  C  43  1  0.01855550  0.50759550  0.39355900  1
  C  44  1  0.04759350  0.56194350  0.36572200  1
  C  47  1  0.09155100  0.55818100  0.33661900  1
  C  50  1  0.00220550  0.56315150  0.33678200  1
  C  53  1  0.92757900  0.51197000  0.28246200  1
  C  54  1  0.07734250  0.61505650  0.39077700  1
  C  55  1  0.10948500  0.50351400  0.28232800  1
  C  56  1  0.95979700  0.40015400  0.39064300  1
  C  61  1  0.56709000  0.05330900  0.64041300  1
  C  62  1  0.54144800  0.08077800  0.66936200  1
  C  63  1  0.51862500  0.00761500  0.61264600  1
  C  64  1  0.47019600  0.96200700  0.64049300  1
  C  67  1  0.44692400  0.99167200  0.66954100  1
  C  68  1  0.49360750  0.03698050  0.69846800  1
  C  73  1  0.51869700  0.00779700  0.72638600  1
  C  74  1  0.54375600  0.97852900  0.69853600  1
  C  77  1  0.49588000  0.93463300  0.66950600  1
  C  80  1  0.59039700  0.02374300  0.66952500  1
  C  83  1  0.61400550  0.09832950  0.61513400  1
  C  84  1  0.56701800  0.94868800  0.72359300  1
  C  85  1  0.42324450  0.91690450  0.61529400  1
  C  86  1  0.47043650  0.06696650  0.72344200  1
  C  91  1  0.48134050  0.12351650  0.78389650  1
  C  92  1  0.52206750  0.17619250  0.76856300  1
  C  93  1  0.52909900  0.22598700  0.78640700  1
  C  94  1  0.49415150  0.22203150  0.82105000  1
  C  95  1  0.45421350  0.16939350  0.83709000  1
  C  96  1  0.44835750  0.12051350  0.81900600  1
  C  99  1  0.49925650  0.26964650  0.84140300  1
  C  100  1  0.45962550  0.28635550  0.83408300  1
  C  101  1  0.46474800  0.33361800  0.85470300  1
  C  102  1  0.50866600  0.36396600  0.88367800  1
  C  103  1  0.54908750  0.34794650  0.88993700  1
  C  104  1  0.54438900  0.30106100  0.86908900  1
  C  117  1  0.67150000  0.54467400  0.11738200  1
  C  118  1  0.68323750  0.50375350  0.10217000  1
  C  119  1  0.72590750  0.49660550  0.12006500  1
  C  120  1  0.75701500  0.53163000  0.15464200  1
  C  121  1  0.74453400  0.57178300  0.17054400  1
  C  122  1  0.70162550  0.57777750  0.15239600  1
  C  125  1  0.79947100  0.52645500  0.17502800  1
  C  126  1  0.85582950  0.56609550  0.16780300  1
  C  127  1  0.89791750  0.56094750  0.18849000  1
  C  128  1  0.88428700  0.51696600  0.21741600  1
  C  129  1  0.82782800  0.47654400  0.22359000  1
  C  130  1  0.78569000  0.48128600  0.20269600  1
  C  143  1  0.90325250  0.35460250  0.45093000  1
  C  144  1  0.85080300  0.34388500  0.43601100  1
  C  145  1  0.80075150  0.30112950  0.45354200  1
  C  146  1  0.80421350  0.26894150  0.48749600  1
  C  147  1  0.85666900  0.28042900  0.50311700  1
  C  148  1  0.90582000  0.32336000  0.48528900  1
  C  151  1  0.75635250  0.22644750  0.50764300  1
  C  152  1  0.73956450  0.17008350  0.50034200  1
  C  153  1  0.69233050  0.12798450  0.52102200  1
  C  154  1  0.66202700  0.14160700  0.54999900  1
  C  155  1  0.67810850  0.19806250  0.55624600  1
  C  156  1  0.72499850  0.24020850  0.53536800  1
  C  169  1  0.55567650  0.89183750  0.78397600  1
  C  170  1  0.51502600  0.83921800  0.76850200  1
  C  171  1  0.50788350  0.78936250  0.78631100  1
  C  172  1  0.54264800  0.79320400  0.82105600  1
  C  173  1  0.58249400  0.84578800  0.83724200  1
  C  174  1  0.58845750  0.89472650  0.81919300  1
  C  177  1  0.53745450  0.74552250  0.84135600  1
  C  178  1  0.57706550  0.72878650  0.83404300  1
  C  179  1  0.57187750  0.68147450  0.85462800  1
  C  180  1  0.52790950  0.65110850  0.88356100  1
  C  181  1  0.48750350  0.66714950  0.88980500  1
  C  182  1  0.49227250  0.71408850  0.86899400  1
  C  195  1  0.36577400  0.47106600  0.11754500  1
  C  196  1  0.35412650  0.51204150  0.10232000  1
  C  197  1  0.31141550  0.51918450  0.12013500  1
  C  198  1  0.28017450  0.48410150  0.15464500  1
  C  199  1  0.29257800  0.44390200  0.17056600  1
  C  200  1  0.33553550  0.43791550  0.15250500  1
  C  203  1  0.23768250  0.48928250  0.17496400  1
  C  204  1  0.18133400  0.44960600  0.16773300  1
  C  205  1  0.13921400  0.45475500  0.18836200  1
  C  206  1  0.15281000  0.49875500  0.21726300  1
  C  207  1  0.20925350  0.53921950  0.22343300  1
  C  208  1  0.25142000  0.53448700  0.20258100  1
  C  221  1  0.13384400  0.66059400  0.45108300  1
  C  222  1  0.18633750  0.67153450  0.43608800  1
  C  223  1  0.23634550  0.71426750  0.45369200  1
  C  224  1  0.23279500  0.74620100  0.48780600  1
  C  225  1  0.18030450  0.73449450  0.50350300  1
  C  226  1  0.13120200  0.69157200  0.48561200  1
  C  229  1  0.28061950  0.78868350  0.50799100  1
  C  230  1  0.29743050  0.84504950  0.50067400  1
  C  231  1  0.34473100  0.88714500  0.52129000  1
  C  232  1  0.37504600  0.87351600  0.55025100  1
  C  233  1  0.35892500  0.81705500  0.55652400  1
  C  234  1  0.31197900  0.77491100  0.53570000  1
  C  985  1  0.51542650  0.45911850  0.68647600  1
  C  986  1  0.56855350  0.48464750  0.71541100  1
  C  987  1  0.51838700  0.50762200  0.65864400  1
  C  988  1  0.52143450  0.55619850  0.68642700  1
  C  991  1  0.57437250  0.57934950  0.71545700  1
  C  992  1  0.57280900  0.53262900  0.74445200  1
  C  997  1  0.51856300  0.50777700  0.77238900  1
  C  998  1  0.46423250  0.48284550  0.74454800  1
  C  1001  1  0.46839800  0.53074800  0.71545600  1
  C  1004  1  0.46258200  0.43604600  0.71560100  1
  C  1007  1  0.51335250  0.41207650  0.66126000  1
  C  1008  1  0.41115100  0.45989100  0.76959100  1
  C  1009  1  0.52342050  0.60316650  0.66116400  1
  C  1010  1  0.62595500  0.55565900  0.76941500  1
  C  1015  1  0.97275700  0.51026600  0.02022300  1
  C  1016  1  0.94552750  0.45713550  0.04916900  1
  C  1017  1  0.01852300  0.50772900  0.99238257  1
  C  1018  1  0.06430600  0.50512400  0.02015600  1
  C  1021  1  0.03487550  0.45217050  0.04919800  1
  C  1022  1  0.98950700  0.45331700  0.07820100  1
  C  1027  1  0.01855550  0.50759550  0.10611500  1
  C  1028  1  0.04759350  0.56194350  0.07827800  1
  C  1031  1  0.09155100  0.55818100  0.04917500  1
  C  1034  1  0.00220550  0.56315150  0.04933800  1
  C  1037  1  0.92757900  0.51197000  0.99501757  1
  C  1038  1  0.07734250  0.61505650  0.10333300  1
  C  1039  1  0.10948500  0.50351400  0.99488357  1
  C  1040  1  0.95979700  0.40015400  0.10319900  1
  C  1045  1  0.56709000  0.05330900  0.35296900  1
  C  1046  1  0.54144800  0.08077800  0.38191800  1
  C  1047  1  0.51862500  0.00761500  0.32520200  1
  C  1048  1  0.47019600  0.96200700  0.35304900  1
  C  1051  1  0.44692400  0.99167200  0.38209700  1
  C  1052  1  0.49360750  0.03698050  0.41102400  1
  C  1057  1  0.51869700  0.00779700  0.43894200  1
  C  1058  1  0.54375600  0.97852900  0.41109200  1
  C  1061  1  0.49588000  0.93463300  0.38206200  1
  C  1064  1  0.59039700  0.02374300  0.38208100  1
  C  1067  1  0.61400550  0.09832950  0.32769000  1
  C  1068  1  0.56701800  0.94868800  0.43614900  1
  C  1069  1  0.42324450  0.91690450  0.32785000  1
  C  1070  1  0.47043650  0.06696650  0.43599800  1
  C  1075  1  0.48134050  0.12351650  0.49645250  1
  C  1076  1  0.52206750  0.17619250  0.48111900  1
  C  1077  1  0.52909900  0.22598700  0.49896300  1
  C  1078  1  0.49415150  0.22203150  0.53360600  1
  C  1079  1  0.45421350  0.16939350  0.54964600  1
  C  1080  1  0.44835750  0.12051350  0.53156200  1
  C  1083  1  0.49925650  0.26964650  0.55395900  1
  C  1084  1  0.45962550  0.28635550  0.54663900  1
  C  1085  1  0.46474800  0.33361800  0.56725900  1
  C  1086  1  0.50866600  0.36396600  0.59623400  1
  C  1087  1  0.54908750  0.34794650  0.60249300  1
  C  1088  1  0.54438900  0.30106100  0.58164500  1
  C  1101  1  0.67150000  0.54467400  0.82993800  1
  C  1102  1  0.68323750  0.50375350  0.81472600  1
  C  1103  1  0.72590750  0.49660550  0.83262100  1
  C  1104  1  0.75701500  0.53163000  0.86719800  1
  C  1105  1  0.74453400  0.57178300  0.88310000  1
  C  1106  1  0.70162550  0.57777750  0.86495200  1
  C  1109  1  0.79947100  0.52645500  0.88758400  1
  C  1110  1  0.85582950  0.56609550  0.88035900  1
  C  1111  1  0.89791750  0.56094750  0.90104560  1
  C  1112  1  0.88428700  0.51696600  0.92997160  1
  C  1113  1  0.82782800  0.47654400  0.93614560  1
  C  1114  1  0.78569000  0.48128600  0.91525160  1
  C  1127  1  0.90325250  0.35460250  0.16348600  1
  C  1128  1  0.85080300  0.34388500  0.14856700  1
  C  1129  1  0.80075150  0.30112950  0.16609800  1
  C  1130  1  0.80421350  0.26894150  0.20005200  1
  C  1131  1  0.85666900  0.28042900  0.21567300  1
  C  1132  1  0.90582000  0.32336000  0.19784500  1
  C  1135  1  0.75635250  0.22644750  0.22019900  1
  C  1136  1  0.73956450  0.17008350  0.21289800  1
  C  1137  1  0.69233050  0.12798450  0.23357800  1
  C  1138  1  0.66202700  0.14160700  0.26255500  1
  C  1139  1  0.67810850  0.19806250  0.26880200  1
  C  1140  1  0.72499850  0.24020850  0.24792400  1
  C  1153  1  0.55567650  0.89183750  0.49653200  1
  C  1154  1  0.51502600  0.83921800  0.48105800  1
  C  1155  1  0.50788350  0.78936250  0.49886700  1
  C  1156  1  0.54264800  0.79320400  0.53361200  1
  C  1157  1  0.58249400  0.84578800  0.54979800  1
  C  1158  1  0.58845750  0.89472650  0.53174900  1
  C  1161  1  0.53745450  0.74552250  0.55391200  1
  C  1162  1  0.57706550  0.72878650  0.54659900  1
  C  1163  1  0.57187750  0.68147450  0.56718400  1
  C  1164  1  0.52790950  0.65110850  0.59611700  1
  C  1165  1  0.48750350  0.66714950  0.60236100  1
  C  1166  1  0.49227250  0.71408850  0.58155000  1
  C  1179  1  0.36577400  0.47106600  0.83010100  1
  C  1180  1  0.35412650  0.51204150  0.81487600  1
  C  1181  1  0.31141550  0.51918450  0.83269100  1
  C  1182  1  0.28017450  0.48410150  0.86720100  1
  C  1183  1  0.29257800  0.44390200  0.88312200  1
  C  1184  1  0.33553550  0.43791550  0.86506100  1
  C  1187  1  0.23768250  0.48928250  0.88752000  1
  C  1188  1  0.18133400  0.44960600  0.88028900  1
  C  1189  1  0.13921400  0.45475500  0.90091760  1
  C  1190  1  0.15281000  0.49875500  0.92981860  1
  C  1191  1  0.20925350  0.53921950  0.93598860  1
  C  1192  1  0.25142000  0.53448700  0.91513660  1
  C  1205  1  0.13384400  0.66059400  0.16363900  1
  C  1206  1  0.18633750  0.67153450  0.14864400  1
  C  1207  1  0.23634550  0.71426750  0.16624800  1
  C  1208  1  0.23279500  0.74620100  0.20036200  1
  C  1209  1  0.18030450  0.73449450  0.21605900  1
  C  1210  1  0.13120200  0.69157200  0.19816800  1
  C  1213  1  0.28061950  0.78868350  0.22054700  1
  C  1214  1  0.29743050  0.84504950  0.21323000  1
  C  1215  1  0.34473100  0.88714500  0.23384600  1
  C  1216  1  0.37504600  0.87351600  0.26280700  1
  C  1217  1  0.35892500  0.81705500  0.26908000  1
  C  1218  1  0.31197900  0.77491100  0.24825600  1
  C  1969  1  0.51542650  0.45911850  0.39903100  1
  C  1970  1  0.56855350  0.48464750  0.42796600  1
  C  1971  1  0.51838700  0.50762200  0.37119900  1
  C  1972  1  0.52143450  0.55619850  0.39898200  1
  C  1975  1  0.57437250  0.57934950  0.42801200  1
  C  1976  1  0.57280900  0.53262900  0.45700700  1
  C  1981  1  0.51856300  0.50777700  0.48494400  1
  C  1982  1  0.46423250  0.48284550  0.45710300  1
  C  1985  1  0.46839800  0.53074800  0.42801100  1
  C  1988  1  0.46258200  0.43604600  0.42815600  1
  C  1991  1  0.51335250  0.41207650  0.37381500  1
  C  1992  1  0.41115100  0.45989100  0.48214600  1
  C  1993  1  0.52342050  0.60316650  0.37371900  1
  C  1994  1  0.62595500  0.55565900  0.48197000  1
  C  1999  1  0.97275700  0.51026600  0.73277800  1
  C  2000  1  0.94552750  0.45713550  0.76172400  1
  C  2001  1  0.01852300  0.50772900  0.70493800  1
  C  2002  1  0.06430600  0.50512400  0.73271100  1
  C  2005  1  0.03487550  0.45217050  0.76175300  1
  C  2006  1  0.98950700  0.45331700  0.79075600  1
  C  2011  1  0.01855550  0.50759550  0.81867000  1
  C  2012  1  0.04759350  0.56194350  0.79083300  1
  C  2015  1  0.09155100  0.55818100  0.76173000  1
  C  2018  1  0.00220550  0.56315150  0.76189300  1
  C  2021  1  0.92757900  0.51197000  0.70757300  1
  C  2022  1  0.07734250  0.61505650  0.81588800  1
  C  2023  1  0.10948500  0.50351400  0.70743900  1
  C  2024  1  0.95979700  0.40015400  0.81575400  1
  C  2029  1  0.56709000  0.05330900  0.06552400  1
  C  2030  1  0.54144800  0.08077800  0.09447300  1
  C  2031  1  0.51862500  0.00761500  0.03775700  1
  C  2032  1  0.47019600  0.96200700  0.06560400  1
  C  2035  1  0.44692400  0.99167200  0.09465200  1
  C  2036  1  0.49360750  0.03698050  0.12357900  1
  C  2041  1  0.51869700  0.00779700  0.15149700  1
  C  2042  1  0.54375600  0.97852900  0.12364700  1
  C  2045  1  0.49588000  0.93463300  0.09461700  1
  C  2048  1  0.59039700  0.02374300  0.09463600  1
  C  2051  1  0.61400550  0.09832950  0.04024500  1
  C  2052  1  0.56701800  0.94868800  0.14870400  1
  C  2053  1  0.42324450  0.91690450  0.04040500  1
  C  2054  1  0.47043650  0.06696650  0.14855300  1
  C  2059  1  0.48134050  0.12351650  0.20900750  1
  C  2060  1  0.52206750  0.17619250  0.19367400  1
  C  2061  1  0.52909900  0.22598700  0.21151800  1
  C  2062  1  0.49415150  0.22203150  0.24616100  1
  C  2063  1  0.45421350  0.16939350  0.26220100  1
  C  2064  1  0.44835750  0.12051350  0.24411700  1
  C  2067  1  0.49925650  0.26964650  0.26651400  1
  C  2068  1  0.45962550  0.28635550  0.25919400  1
  C  2069  1  0.46474800  0.33361800  0.27981400  1
  C  2070  1  0.50866600  0.36396600  0.30878900  1
  C  2071  1  0.54908750  0.34794650  0.31504800  1
  C  2072  1  0.54438900  0.30106100  0.29420000  1
  C  2085  1  0.67150000  0.54467400  0.54249300  1
  C  2086  1  0.68323750  0.50375350  0.52728100  1
  C  2087  1  0.72590750  0.49660550  0.54517600  1
  C  2088  1  0.75701500  0.53163000  0.57975300  1
  C  2089  1  0.74453400  0.57178300  0.59565500  1
  C  2090  1  0.70162550  0.57777750  0.57750700  1
  C  2093  1  0.79947100  0.52645500  0.60013900  1
  C  2094  1  0.85582950  0.56609550  0.59291400  1
  C  2095  1  0.89791750  0.56094750  0.61360100  1
  C  2096  1  0.88428700  0.51696600  0.64252700  1
  C  2097  1  0.82782800  0.47654400  0.64870100  1
  C  2098  1  0.78569000  0.48128600  0.62780700  1
  C  2111  1  0.90325250  0.35460250  0.87604100  1
  C  2112  1  0.85080300  0.34388500  0.86112200  1
  C  2113  1  0.80075150  0.30112950  0.87865300  1
  C  2114  1  0.80421350  0.26894150  0.91260710  1
  C  2115  1  0.85666900  0.28042900  0.92822810  1
  C  2116  1  0.90582000  0.32336000  0.91040010  1
  C  2119  1  0.75635250  0.22644750  0.93275410  1
  C  2120  1  0.73956450  0.17008350  0.92545310  1
  C  2121  1  0.69233050  0.12798450  0.94613310  1
  C  2122  1  0.66202700  0.14160700  0.97511010  1
  C  2123  1  0.67810850  0.19806250  0.98135710  1
  C  2124  1  0.72499850  0.24020850  0.96047910  1
  C  2137  1  0.55567650  0.89183750  0.20908700  1
  C  2138  1  0.51502600  0.83921800  0.19361300  1
  C  2139  1  0.50788350  0.78936250  0.21142200  1
  C  2140  1  0.54264800  0.79320400  0.24616700  1
  C  2141  1  0.58249400  0.84578800  0.26235300  1
  C  2142  1  0.58845750  0.89472650  0.24430400  1
  C  2145  1  0.53745450  0.74552250  0.26646700  1
  C  2146  1  0.57706550  0.72878650  0.25915400  1
  C  2147  1  0.57187750  0.68147450  0.27973900  1
  C  2148  1  0.52790950  0.65110850  0.30867200  1
  C  2149  1  0.48750350  0.66714950  0.31491600  1
  C  2150  1  0.49227250  0.71408850  0.29410500  1
  C  2163  1  0.36577400  0.47106600  0.54265600  1
  C  2164  1  0.35412650  0.51204150  0.52743100  1
  C  2165  1  0.31141550  0.51918450  0.54524600  1
  C  2166  1  0.28017450  0.48410150  0.57975600  1
  C  2167  1  0.29257800  0.44390200  0.59567700  1
  C  2168  1  0.33553550  0.43791550  0.57761600  1
  C  2171  1  0.23768250  0.48928250  0.60007500  1
  C  2172  1  0.18133400  0.44960600  0.59284400  1
  C  2173  1  0.13921400  0.45475500  0.61347300  1
  C  2174  1  0.15281000  0.49875500  0.64237400  1
  C  2175  1  0.20925350  0.53921950  0.64854400  1
  C  2176  1  0.25142000  0.53448700  0.62769200  1
  C  2189  1  0.13384400  0.66059400  0.87619400  1
  C  2190  1  0.18633750  0.67153450  0.86119900  1
  C  2191  1  0.23634550  0.71426750  0.87880300  1
  C  2192  1  0.23279500  0.74620100  0.91291710  1
  C  2193  1  0.18030450  0.73449450  0.92861410  1
  C  2194  1  0.13120200  0.69157200  0.91072310  1
  C  2197  1  0.28061950  0.78868350  0.93310210  1
  C  2198  1  0.29743050  0.84504950  0.92578510  1
  C  2199  1  0.34473100  0.88714500  0.94640110  1
  C  2200  1  0.37504600  0.87351600  0.97536210  1
  C  2201  1  0.35892500  0.81705500  0.98163510  1
  C  2202  1  0.31197900  0.77491100  0.96081110  1
  H  5  1  0.48167300  0.49129100  0.92550800  1
  H  6  1  0.55503450  0.52389550  0.92544100  1
  H  9  1  0.61134100  0.59738900  0.98248200  1
  H  10  1  0.57765550  0.61288150  0.02333700  1
  H  11  1  0.60528650  0.50005050  0.98231500  1
  H  12  1  0.56814550  0.45243650  0.02332100  1
  H  15  1  0.52083500  0.54069000  0.08043900  1
  H  16  1  0.51635200  0.47492800  0.08048100  1
  H  18  1  0.46886750  0.56301450  0.02333700  1
  H  19  1  0.43160100  0.51528600  0.98242500  1
  H  21  1  0.45936450  0.40257550  0.02351900  1
  H  22  1  0.42555150  0.41794750  0.98269100  1
  H  35  1  0.03867100  0.54444900  0.25924300  1
  H  36  1  0.99836700  0.47105500  0.25919100  1
  H  39  1  0.01619050  0.41519250  0.31623000  1
  H  40  1  0.06529450  0.44918150  0.35707300  1
  H  41  1  0.92442950  0.42036150  0.31609000  1
  H  42  1  0.91358700  0.45726300  0.35708200  1
  H  45  1  0.04934950  0.50560550  0.41416600  1
  H  46  1  0.98776300  0.50954100  0.41419800  1
  H  48  1  0.12350050  0.55800350  0.35704700  1
  H  49  1  0.11264150  0.59500150  0.31614100  1
  H  51  1  0.97180100  0.56609700  0.35726100  1
  H  52  1  0.02088200  0.60018000  0.31641900  1
  H  65  1  0.53503150  0.98731550  0.59205200  1
  H  66  1  0.50218950  0.02785550  0.59201700  1
  H  69  1  0.42872050  0.01045050  0.64913200  1
  H  70  1  0.41349750  0.96137750  0.69002400  1
  H  71  1  0.52588000  0.10196600  0.64882900  1
  H  72  1  0.57363400  0.11268200  0.68978400  1
  H  75  1  0.48588200  0.97710700  0.74703000  1
  H  76  1  0.55152050  0.03854050  0.74699600  1
  H  78  1  0.46372600  0.90279500  0.68998600  1
  H  79  1  0.51142350  0.91338350  0.64902100  1
  H  81  1  0.62385150  0.05410850  0.68995450  1
  H  82  1  0.60857750  0.00490050  0.64916100  1
  H  97  1  0.42946250  0.16617150  0.86244600  1
  H  98  1  0.41926150  0.08275150  0.83100000  1
  H  105  1  0.42683900  0.26425500  0.81387300  1
  H  106  1  0.43509300  0.34457300  0.84973500  1
  H  107  1  0.58192850  0.37010450  0.91005300  1
  H  108  1  0.54716800  0.17818100  0.74386500  1
  H  109  1  0.57371350  0.28975350  0.87458450  1
  H  111  1  0.59132100  0.27653900  0.74538600  1
  H  112  1  0.57386750  0.31058950  0.77969700  1
  H  114  1  0.50553100  0.43386900  0.88844900  1
  H  116  1  0.48843800  0.05592400  0.78427000  1
  H  123  1  0.76616200  0.59661800  0.19583600  1
  H  124  1  0.69310850  0.60701750  0.16430300  1
  H  131  1  0.86657400  0.59891600  0.14761500  1
  H  132  1  0.93853950  0.59059550  0.18355500  1
  H  133  1  0.81709300  0.44365300  0.24366300  1
  H  134  1  0.66005100  0.47860900  0.07751400  1
  H  135  1  0.74504900  0.45194900  0.20812200  1
  H  137  1  0.71404100  0.43422700  0.07914300  1
  H  138  1  0.76555450  0.45165250  0.11343500  1
  H  140  1  0.95733550  0.52014750  0.22222900  1
  H  142  1  0.59695750  0.53767950  0.11775300  1
  H  149  1  0.85957250  0.25803450  0.52797800  1
  H  150  1  0.94343650  0.33111850  0.49697200  1
  H  157  1  0.76163850  0.15934150  0.48015000  1
  H  158  1  0.68131200  0.08736000  0.51603600  1
  H  159  1  0.65603300  0.20879500  0.57640600  1
  H  160  1  0.84918750  0.36779150  0.41178000  1
  H  161  1  0.73641850  0.28085050  0.54093800  1
  H  163  1  0.75075850  0.31468850  0.41329100  1
  H  164  1  0.71619900  0.26238900  0.44685400  1
  H  166  1  0.59207400  0.06865800  0.55489200  1
  H  168  1  0.97017000  0.42932000  0.45145000  1
  H  175  1  0.60711800  0.84892400  0.86266600  1
  H  176  1  0.61749400  0.93245000  0.83128700  1
  H  183  1  0.60989000  0.75090400  0.81386800  1
  H  184  1  0.60152550  0.67050750  0.84967800  1
  H  185  1  0.45465300  0.64500200  0.90991400  1
  H  186  1  0.49006400  0.83731300  0.74372500  1
  H  187  1  0.46296950  0.72542350  0.87448900  1
  H  189  1  0.44581900  0.73893800  0.74513000  1
  H  190  1  0.46306550  0.70477650  0.77949500  1
  H  192  1  0.53104900  0.58122600  0.88834700  1
  H  194  1  0.54863850  0.95946850  0.78436900  1
  H  201  1  0.27085750  0.41902850  0.19581600  1
  H  202  1  0.34395600  0.40860300  0.16439500  1
  H  209  1  0.17062150  0.41675250  0.14759000  1
  H  210  1  0.09860350  0.42505550  0.18346600  1
  H  211  1  0.21995850  0.57210650  0.24350300  1
  H  212  1  0.37738200  0.53719900  0.07769600  1
  H  213  1  0.29205350  0.56383250  0.20803300  1
  H  215  1  0.32348700  0.58168000  0.07926100  1
  H  216  1  0.27184900  0.56421200  0.11343800  1
  H  218  1  0.07967750  0.49540150  0.22211800  1
  H  220  1  0.44034400  0.47814600  0.11786800  1
  H  227  1  0.17734350  0.75670350  0.52847600  1
  H  228  1  0.09355950  0.68363350  0.49736500  1
  H  235  1  0.27535300  0.85579300  0.48048900  1
  H  236  1  0.35575150  0.92776950  0.51630400  1
  H  237  1  0.38103150  0.80631950  0.57664800  1
  H  238  1  0.18802200  0.64778000  0.41176100  1
  H  239  1  0.30057700  0.73426600  0.54124200  1
  H  241  1  0.28643450  0.70118650  0.41319500  1
  H  242  1  0.32089900  0.75330200  0.44692800  1
  H  244  1  0.44501000  0.94648800  0.55502900  1
  H  246  1  0.06671550  0.58577150  0.45148600  1
  H  989  1  0.48167300  0.49129100  0.63806400  1
  H  990  1  0.55503450  0.52389550  0.63799700  1
  H  993  1  0.61134100  0.59738900  0.69503800  1
  H  994  1  0.57765550  0.61288150  0.73589300  1
  H  995  1  0.60528650  0.50005050  0.69487100  1
  H  996  1  0.56814550  0.45243650  0.73587700  1
  H  999  1  0.52083500  0.54069000  0.79299500  1
  H  1000  1  0.51635200  0.47492800  0.79303700  1
  H  1002  1  0.46886750  0.56301450  0.73589300  1
  H  1003  1  0.43160100  0.51528600  0.69498100  1
  H  1005  1  0.45936450  0.40257550  0.73607500  1
  H  1006  1  0.42555150  0.41794750  0.69524700  1
  H  1019  1  0.03867100  0.54444900  0.97179860  1
  H  1020  1  0.99836700  0.47105500  0.97174660  1
  H  1023  1  0.01619050  0.41519250  0.02878600  1
  H  1024  1  0.06529450  0.44918150  0.06962900  1
  H  1025  1  0.92442950  0.42036150  0.02864600  1
  H  1026  1  0.91358700  0.45726300  0.06963800  1
  H  1029  1  0.04934950  0.50560550  0.12672200  1
  H  1030  1  0.98776300  0.50954100  0.12675400  1
  H  1032  1  0.12350050  0.55800350  0.06960300  1
  H  1033  1  0.11264150  0.59500150  0.02869700  1
  H  1035  1  0.97180100  0.56609700  0.06981700  1
  H  1036  1  0.02088200  0.60018000  0.02897500  1
  H  1049  1  0.53503150  0.98731550  0.30460800  1
  H  1050  1  0.50218950  0.02785550  0.30457300  1
  H  1053  1  0.42872050  0.01045050  0.36168800  1
  H  1054  1  0.41349750  0.96137750  0.40258000  1
  H  1055  1  0.52588000  0.10196600  0.36138500  1
  H  1056  1  0.57363400  0.11268200  0.40234000  1
  H  1059  1  0.48588200  0.97710700  0.45958600  1
  H  1060  1  0.55152050  0.03854050  0.45955200  1
  H  1062  1  0.46372600  0.90279500  0.40254200  1
  H  1063  1  0.51142350  0.91338350  0.36157700  1
  H  1065  1  0.62385150  0.05410850  0.40251050  1
  H  1066  1  0.60857750  0.00490050  0.36171700  1
  H  1081  1  0.42946250  0.16617150  0.57500200  1
  H  1082  1  0.41926150  0.08275150  0.54355600  1
  H  1089  1  0.42683900  0.26425500  0.52642900  1
  H  1090  1  0.43509300  0.34457300  0.56229100  1
  H  1091  1  0.58192850  0.37010450  0.62260900  1
  H  1092  1  0.54716800  0.17818100  0.45642100  1
  H  1093  1  0.57371350  0.28975350  0.58714050  1
  H  1095  1  0.59132100  0.27653900  0.45794200  1
  H  1096  1  0.57386750  0.31058950  0.49225300  1
  H  1098  1  0.50553100  0.43386900  0.60100500  1
  H  1100  1  0.48843800  0.05592400  0.49682600  1
  H  1107  1  0.76616200  0.59661800  0.90839160  1
  H  1108  1  0.69310850  0.60701750  0.87685900  1
  H  1115  1  0.86657400  0.59891600  0.86017100  1
  H  1116  1  0.93853950  0.59059550  0.89611100  1
  H  1117  1  0.81709300  0.44365300  0.95621860  1
  H  1118  1  0.66005100  0.47860900  0.79007000  1
  H  1119  1  0.74504900  0.45194900  0.92067760  1
  H  1121  1  0.71404100  0.43422700  0.79169900  1
  H  1122  1  0.76555450  0.45165250  0.82599100  1
  H  1124  1  0.95733550  0.52014750  0.93478460  1
  H  1126  1  0.59695750  0.53767950  0.83030900  1
  H  1133  1  0.85957250  0.25803450  0.24053400  1
  H  1134  1  0.94343650  0.33111850  0.20952800  1
  H  1141  1  0.76163850  0.15934150  0.19270600  1
  H  1142  1  0.68131200  0.08736000  0.22859200  1
  H  1143  1  0.65603300  0.20879500  0.28896200  1
  H  1144  1  0.84918750  0.36779150  0.12433600  1
  H  1145  1  0.73641850  0.28085050  0.25349400  1
  H  1147  1  0.75075850  0.31468850  0.12584700  1
  H  1148  1  0.71619900  0.26238900  0.15941000  1
  H  1150  1  0.59207400  0.06865800  0.26744800  1
  H  1152  1  0.97017000  0.42932000  0.16400600  1
  H  1159  1  0.60711800  0.84892400  0.57522200  1
  H  1160  1  0.61749400  0.93245000  0.54384300  1
  H  1167  1  0.60989000  0.75090400  0.52642400  1
  H  1168  1  0.60152550  0.67050750  0.56223400  1
  H  1169  1  0.45465300  0.64500200  0.62247000  1
  H  1170  1  0.49006400  0.83731300  0.45628100  1
  H  1171  1  0.46296950  0.72542350  0.58704500  1
  H  1173  1  0.44581900  0.73893800  0.45768600  1
  H  1174  1  0.46306550  0.70477650  0.49205100  1
  H  1176  1  0.53104900  0.58122600  0.60090300  1
  H  1178  1  0.54863850  0.95946850  0.49692500  1
  H  1185  1  0.27085750  0.41902850  0.90837160  1
  H  1186  1  0.34395600  0.40860300  0.87695100  1
  H  1193  1  0.17062150  0.41675250  0.86014600  1
  H  1194  1  0.09860350  0.42505550  0.89602200  1
  H  1195  1  0.21995850  0.57210650  0.95605860  1
  H  1196  1  0.37738200  0.53719900  0.79025200  1
  H  1197  1  0.29205350  0.56383250  0.92058860  1
  H  1199  1  0.32348700  0.58168000  0.79181700  1
  H  1200  1  0.27184900  0.56421200  0.82599400  1
  H  1202  1  0.07967750  0.49540150  0.93467360  1
  H  1204  1  0.44034400  0.47814600  0.83042400  1
  H  1211  1  0.17734350  0.75670350  0.24103200  1
  H  1212  1  0.09355950  0.68363350  0.20992100  1
  H  1219  1  0.27535300  0.85579300  0.19304500  1
  H  1220  1  0.35575150  0.92776950  0.22886000  1
  H  1221  1  0.38103150  0.80631950  0.28920400  1
  H  1222  1  0.18802200  0.64778000  0.12431700  1
  H  1223  1  0.30057700  0.73426600  0.25379800  1
  H  1225  1  0.28643450  0.70118650  0.12575100  1
  H  1226  1  0.32089900  0.75330200  0.15948400  1
  H  1228  1  0.44501000  0.94648800  0.26758500  1
  H  1230  1  0.06671550  0.58577150  0.16404200  1
  H  1973  1  0.48167300  0.49129100  0.35061900  1
  H  1974  1  0.55503450  0.52389550  0.35055200  1
  H  1977  1  0.61134100  0.59738900  0.40759300  1
  H  1978  1  0.57765550  0.61288150  0.44844800  1
  H  1979  1  0.60528650  0.50005050  0.40742600  1
  H  1980  1  0.56814550  0.45243650  0.44843200  1
  H  1983  1  0.52083500  0.54069000  0.50555000  1
  H  1984  1  0.51635200  0.47492800  0.50559200  1
  H  1986  1  0.46886750  0.56301450  0.44844800  1
  H  1987  1  0.43160100  0.51528600  0.40753600  1
  H  1989  1  0.45936450  0.40257550  0.44863000  1
  H  1990  1  0.42555150  0.41794750  0.40780200  1
  H  2003  1  0.03867100  0.54444900  0.68435400  1
  H  2004  1  0.99836700  0.47105500  0.68430200  1
  H  2007  1  0.01619050  0.41519250  0.74134100  1
  H  2008  1  0.06529450  0.44918150  0.78218400  1
  H  2009  1  0.92442950  0.42036150  0.74120100  1
  H  2010  1  0.91358700  0.45726300  0.78219300  1
  H  2013  1  0.04934950  0.50560550  0.83927700  1
  H  2014  1  0.98776300  0.50954100  0.83930900  1
  H  2016  1  0.12350050  0.55800350  0.78215800  1
  H  2017  1  0.11264150  0.59500150  0.74125200  1
  H  2019  1  0.97180100  0.56609700  0.78237200  1
  H  2020  1  0.02088200  0.60018000  0.74153000  1
  H  2033  1  0.53503150  0.98731550  0.01716300  1
  H  2034  1  0.50218950  0.02785550  0.01712800  1
  H  2037  1  0.42872050  0.01045050  0.07424300  1
  H  2038  1  0.41349750  0.96137750  0.11513500  1
  H  2039  1  0.52588000  0.10196600  0.07394000  1
  H  2040  1  0.57363400  0.11268200  0.11489500  1
  H  2043  1  0.48588200  0.97710700  0.17214100  1
  H  2044  1  0.55152050  0.03854050  0.17210700  1
  H  2046  1  0.46372600  0.90279500  0.11509700  1
  H  2047  1  0.51142350  0.91338350  0.07413200  1
  H  2049  1  0.62385150  0.05410850  0.11506550  1
  H  2050  1  0.60857750  0.00490050  0.07427200  1
  H  2065  1  0.42946250  0.16617150  0.28755700  1
  H  2066  1  0.41926150  0.08275150  0.25611100  1
  H  2073  1  0.42683900  0.26425500  0.23898400  1
  H  2074  1  0.43509300  0.34457300  0.27484600  1
  H  2075  1  0.58192850  0.37010450  0.33516400  1
  H  2076  1  0.54716800  0.17818100  0.16897600  1
  H  2077  1  0.57371350  0.28975350  0.29969550  1
  H  2079  1  0.59132100  0.27653900  0.17049700  1
  H  2080  1  0.57386750  0.31058950  0.20480800  1
  H  2082  1  0.50553100  0.43386900  0.31356000  1
  H  2084  1  0.48843800  0.05592400  0.20938100  1
  H  2091  1  0.76616200  0.59661800  0.62094700  1
  H  2092  1  0.69310850  0.60701750  0.58941400  1
  H  2099  1  0.86657400  0.59891600  0.57272600  1
  H  2100  1  0.93853950  0.59059550  0.60866600  1
  H  2101  1  0.81709300  0.44365300  0.66877400  1
  H  2102  1  0.66005100  0.47860900  0.50262500  1
  H  2103  1  0.74504900  0.45194900  0.63323300  1
  H  2105  1  0.71404100  0.43422700  0.50425400  1
  H  2106  1  0.76555450  0.45165250  0.53854600  1
  H  2108  1  0.95733550  0.52014750  0.64734000  1
  H  2110  1  0.59695750  0.53767950  0.54286400  1
  H  2117  1  0.85957250  0.25803450  0.95308910  1
  H  2118  1  0.94343650  0.33111850  0.92208310  1
  H  2125  1  0.76163850  0.15934150  0.90526110  1
  H  2126  1  0.68131200  0.08736000  0.94114710  1
  H  2127  1  0.65603300  0.20879500  0.00151700  1
  H  2128  1  0.84918750  0.36779150  0.83689100  1
  H  2129  1  0.73641850  0.28085050  0.96604910  1
  H  2131  1  0.75075850  0.31468850  0.83840200  1
  H  2132  1  0.71619900  0.26238900  0.87196500  1
  H  2134  1  0.59207400  0.06865800  0.98000310  1
  H  2136  1  0.97017000  0.42932000  0.87656100  1
  H  2143  1  0.60711800  0.84892400  0.28777700  1
  H  2144  1  0.61749400  0.93245000  0.25639800  1
  H  2151  1  0.60989000  0.75090400  0.23897900  1
  H  2152  1  0.60152550  0.67050750  0.27478900  1
  H  2153  1  0.45465300  0.64500200  0.33502500  1
  H  2154  1  0.49006400  0.83731300  0.16883600  1
  H  2155  1  0.46296950  0.72542350  0.29960000  1
  H  2157  1  0.44581900  0.73893800  0.17024100  1
  H  2158  1  0.46306550  0.70477650  0.20460600  1
  H  2160  1  0.53104900  0.58122600  0.31345800  1
  H  2162  1  0.54863850  0.95946850  0.20948000  1
  H  2169  1  0.27085750  0.41902850  0.62092700  1
  H  2170  1  0.34395600  0.40860300  0.58950600  1
  H  2177  1  0.17062150  0.41675250  0.57270100  1
  H  2178  1  0.09860350  0.42505550  0.60857700  1
  H  2179  1  0.21995850  0.57210650  0.66861400  1
  H  2180  1  0.37738200  0.53719900  0.50280700  1
  H  2181  1  0.29205350  0.56383250  0.63314400  1
  H  2183  1  0.32348700  0.58168000  0.50437200  1
  H  2184  1  0.27184900  0.56421200  0.53854900  1
  H  2186  1  0.07967750  0.49540150  0.64722900  1
  H  2188  1  0.44034400  0.47814600  0.54297900  1
  H  2195  1  0.17734350  0.75670350  0.95358710  1
  H  2196  1  0.09355950  0.68363350  0.92247610  1
  H  2203  1  0.27535300  0.85579300  0.90560010  1
  H  2204  1  0.35575150  0.92776950  0.94141510  1
  H  2205  1  0.38103150  0.80631950  0.00175900  1
  H  2206  1  0.18802200  0.64778000  0.83687200  1
  H  2207  1  0.30057700  0.73426600  0.96635310  1
  H  2209  1  0.28643450  0.70118650  0.83830600  1
  H  2210  1  0.32089900  0.75330200  0.87203900  1
  H  2212  1  0.44501000  0.94648800  0.98014010  1
  H  2214  1  0.06671550  0.58577150  0.87659700  1
  N  110  1  0.56836300  0.27523000  0.76938800  1
  N  113  1  0.51142250  0.40789450  0.90526100  1
  N  115  1  0.47631400  0.07637600  0.76634400  1
  N  136  1  0.73570400  0.45717400  0.10314100  1
  N  139  1  0.92545600  0.51423000  0.23902900  1
  N  141  1  0.62949100  0.54983900  0.09975900  1
  N  162  1  0.75173350  0.29223550  0.43682300  1
  N  165  1  0.61822700  0.10044100  0.57169500  1
  N  167  1  0.95073300  0.39652800  0.43359000  1
  N  188  1  0.46870550  0.74017550  0.76915950  1
  N  191  1  0.52509950  0.60716050  0.90515700  1
  N  193  1  0.56080300  0.93904100  0.76645800  1
  N  214  1  0.30169050  0.55865350  0.10318600  1
  N  217  1  0.11164400  0.50149400  0.23888200  1
  N  219  1  0.40773750  0.46582150  0.09993100  1
  N  240  1  0.28540550  0.72337150  0.43690750  1
  N  243  1  0.41895900  0.91468300  0.57185500  1
  N  245  1  0.08641850  0.61861650  0.43373400  1
  N  1094  1  0.56836300  0.27523000  0.48194400  1
  N  1097  1  0.51142250  0.40789450  0.61781700  1
  N  1099  1  0.47631400  0.07637600  0.47890000  1
  N  1120  1  0.73570400  0.45717400  0.81569700  1
  N  1123  1  0.92545600  0.51423000  0.95158460  1
  N  1125  1  0.62949100  0.54983900  0.81231500  1
  N  1146  1  0.75173350  0.29223550  0.14937900  1
  N  1149  1  0.61822700  0.10044100  0.28425100  1
  N  1151  1  0.95073300  0.39652800  0.14614600  1
  N  1172  1  0.46870550  0.74017550  0.48171550  1
  N  1175  1  0.52509950  0.60716050  0.61771300  1
  N  1177  1  0.56080300  0.93904100  0.47901400  1
  N  1198  1  0.30169050  0.55865350  0.81574200  1
  N  1201  1  0.11164400  0.50149400  0.95143760  1
  N  1203  1  0.40773750  0.46582150  0.81248700  1
  N  1224  1  0.28540550  0.72337150  0.14946350  1
  N  1227  1  0.41895900  0.91468300  0.28441100  1
  N  1229  1  0.08641850  0.61861650  0.14629000  1
  N  2078  1  0.56836300  0.27523000  0.19449900  1
  N  2081  1  0.51142250  0.40789450  0.33037200  1
  N  2083  1  0.47631400  0.07637600  0.19145500  1
  N  2104  1  0.73570400  0.45717400  0.52825200  1
  N  2107  1  0.92545600  0.51423000  0.66414000  1
  N  2109  1  0.62949100  0.54983900  0.52487000  1
  N  2130  1  0.75173350  0.29223550  0.86193400  1
  N  2133  1  0.61822700  0.10044100  0.99680615  1
  N  2135  1  0.95073300  0.39652800  0.85870100  1
  N  2156  1  0.46870550  0.74017550  0.19427050  1
  N  2159  1  0.52509950  0.60716050  0.33026800  1
  N  2161  1  0.56080300  0.93904100  0.19156900  1
  N  2182  1  0.30169050  0.55865350  0.52829700  1
  N  2185  1  0.11164400  0.50149400  0.66399300  1
  N  2187  1  0.40773750  0.46582150  0.52504200  1
  N  2208  1  0.28540550  0.72337150  0.86201850  1
  N  2211  1  0.41895900  0.91468300  0.99696615  1
  N  2213  1  0.08641850  0.61861650  0.85884500  1
  O  27  1  0.36334350  0.43850850  0.03414500  1
  O  28  1  0.51162400  0.36991200  0.97179650  1
  O  29  1  0.67369400  0.57688000  0.03389600  1
  O  30  1  0.52520900  0.64539100  0.97165800  1
  O  57  1  0.10339650  0.66288650  0.36788100  1
  O  58  1  0.88698100  0.51337000  0.30557200  1
  O  59  1  0.93375100  0.35235500  0.36771100  1
  O  60  1  0.15008050  0.50203650  0.30538400  1
  O  87  1  0.58828650  0.92220450  0.70063600  1
  O  88  1  0.65616050  0.13885650  0.63817400  1
  O  89  1  0.44903900  0.09330100  0.70045500  1
  O  90  1  0.38113700  0.87643300  0.63840400  1
  O  1011  1  0.36334350  0.43850850  0.74670100  1
  O  1012  1  0.51162400  0.36991200  0.68435250  1
  O  1013  1  0.67369400  0.57688000  0.74645200  1
  O  1014  1  0.52520900  0.64539100  0.68421400  1
  O  1041  1  0.10339650  0.66288650  0.08043700  1
  O  1042  1  0.88698100  0.51337000  0.01812800  1
  O  1043  1  0.93375100  0.35235500  0.08026700  1
  O  1044  1  0.15008050  0.50203650  0.01794000  1
  O  1071  1  0.58828650  0.92220450  0.41319200  1
  O  1072  1  0.65616050  0.13885650  0.35073000  1
  O  1073  1  0.44903900  0.09330100  0.41301100  1
  O  1074  1  0.38113700  0.87643300  0.35096000  1
  O  1995  1  0.36334350  0.43850850  0.45925600  1
  O  1996  1  0.51162400  0.36991200  0.39690750  1
  O  1997  1  0.67369400  0.57688000  0.45900700  1
  O  1998  1  0.52520900  0.64539100  0.39676900  1
  O  2025  1  0.10339650  0.66288650  0.79299200  1
  O  2026  1  0.88698100  0.51337000  0.73068300  1
  O  2027  1  0.93375100  0.35235500  0.79282200  1
  O  2028  1  0.15008050  0.50203650  0.73049500  1
  O  2055  1  0.58828650  0.92220450  0.12574700  1
  O  2056  1  0.65616050  0.13885650  0.06328500  1
  O  2057  1  0.44903900  0.09330100  0.12556600  1
  O  2058  1  0.38113700  0.87643300  0.06351500  1
