# generated using pymatgen
data_MnH11(C11O2)2
_symmetry_space_group_name_H-M   'P 1'
_cell_length_a   6.99700000
_cell_length_b   25.48310000
_cell_length_c   28.26420000
_cell_angle_alpha   90.00000000
_cell_angle_beta   92.71200000
_cell_angle_gamma   90.00000000
_symmetry_Int_Tables_number   1
_chemical_formula_structural   MnH11(C11O2)2
_chemical_formula_sum   'Mn8 H88 C176 O32'
_cell_volume   5034.01078793
_cell_formula_units_Z   8
loop_
 _symmetry_equiv_pos_site_id
 _symmetry_equiv_pos_as_xyz
  1  'x, y, z'
loop_
 _atom_site_type_symbol
 _atom_site_label
 _atom_site_symmetry_multiplicity
 _atom_site_fract_x
 _atom_site_fract_y
 _atom_site_fract_z
 _atom_site_occupancy
  Mn  Mn1  1  0.20060000  0.93068000  0.24834000  1.0
  Mn  Mn2  1  0.65369000  0.53332000  0.73533000  1.0
  Mn  Mn3  1  0.79940000  0.43068000  0.25166000  1.0
  Mn  Mn4  1  0.34631000  0.03332000  0.76467000  1.0
  Mn  Mn5  1  0.79940000  0.06932000  0.75166000  1.0
  Mn  Mn6  1  0.34631000  0.46668000  0.26467000  1.0
  Mn  Mn7  1  0.20060000  0.56932000  0.74834000  1.0
  Mn  Mn8  1  0.65369000  0.96668000  0.23533000  1.0
  H  H1  1  0.94020000  0.72970000  0.10760000  1.0
  H  H2  1  0.40360000  0.73990000  0.89050000  1.0
  H  H3  1  0.21400000  0.66880000  0.10960000  1.0
  H  H4  1  0.93740000  0.82570000  0.12750000  1.0
  H  H5  1  0.04820000  0.95240000  0.85630000  1.0
  H  H6  1  0.13650000  0.80450000  0.89110000  1.0
  H  H7  1  0.75750000  0.84760000  0.19250000  1.0
  H  H8  1  0.65660000  0.62430000  0.00120000  1.0
  H  H9  1  0.69350000  0.84880000  0.99790000  1.0
  H  H10  1  0.39890000  0.64750000  0.86930000  1.0
  H  H11  1  0.57500000  0.62280000  0.80730000  1.0
  H  H12  1  0.05540000  0.64820000  0.88510000  1.0
  H  H13  1  0.50560000  0.90830000  0.85820000  1.0
  H  H14  1  0.28740000  0.81850000  0.11190000  1.0
  H  H15  1  0.76840000  0.63420000  0.08730000  1.0
  H  H16  1  0.12820000  0.88900000  0.91210000  1.0
  H  H17  1  0.23070000  0.58170000  0.08790000  1.0
  H  H18  1  0.45710000  0.79790000  0.04870000  1.0
  H  H19  1  0.88480000  0.67390000  0.94820000  1.0
  H  H20  1  0.31530000  0.52160000  0.14770000  1.0
  H  H21  1  0.57550000  0.84850000  0.91500000  1.0
  H  H22  1  0.86110000  0.57300000  0.14370000  1.0
  H  H23  1  0.05980000  0.22970000  0.39240000  1.0
  H  H24  1  0.59640000  0.23990000  0.60950000  1.0
  H  H25  1  0.78600000  0.16880000  0.39040000  1.0
  H  H26  1  0.06260000  0.32570000  0.37250000  1.0
  H  H27  1  0.95180000  0.45240000  0.64370000  1.0
  H  H28  1  0.86350000  0.30450000  0.60890000  1.0
  H  H29  1  0.24250000  0.34760000  0.30750000  1.0
  H  H30  1  0.34340000  0.12430000  0.49880000  1.0
  H  H31  1  0.30650000  0.34880000  0.50210000  1.0
  H  H32  1  0.60110000  0.14750000  0.63070000  1.0
  H  H33  1  0.42500000  0.12280000  0.69270000  1.0
  H  H34  1  0.94460000  0.14820000  0.61490000  1.0
  H  H35  1  0.49440000  0.40830000  0.64180000  1.0
  H  H36  1  0.71260000  0.31850000  0.38810000  1.0
  H  H37  1  0.23160000  0.13420000  0.41270000  1.0
  H  H38  1  0.87180000  0.38900000  0.58790000  1.0
  H  H39  1  0.76930000  0.08170000  0.41210000  1.0
  H  H40  1  0.54290000  0.29790000  0.45130000  1.0
  H  H41  1  0.11520000  0.17390000  0.55180000  1.0
  H  H42  1  0.68470000  0.02160000  0.35230000  1.0
  H  H43  1  0.42450000  0.34850000  0.58500000  1.0
  H  H44  1  0.13890000  0.07300000  0.35630000  1.0
  H  H45  1  0.05980000  0.27030000  0.89240000  1.0
  H  H46  1  0.59640000  0.26010000  0.10950000  1.0
  H  H47  1  0.78600000  0.33120000  0.89040000  1.0
  H  H48  1  0.06260000  0.17430000  0.87250000  1.0
  H  H49  1  0.95180000  0.04760000  0.14370000  1.0
  H  H50  1  0.86350000  0.19550000  0.10890000  1.0
  H  H51  1  0.24250000  0.15240000  0.80750000  1.0
  H  H52  1  0.34340000  0.37570000  0.99880000  1.0
  H  H53  1  0.30650000  0.15120000  0.00210000  1.0
  H  H54  1  0.60110000  0.35250000  0.13070000  1.0
  H  H55  1  0.42500000  0.37720000  0.19270000  1.0
  H  H56  1  0.94460000  0.35180000  0.11490000  1.0
  H  H57  1  0.49440000  0.09170000  0.14180000  1.0
  H  H58  1  0.71260000  0.18150000  0.88810000  1.0
  H  H59  1  0.23160000  0.36580000  0.91270000  1.0
  H  H60  1  0.87180000  0.11100000  0.08790000  1.0
  H  H61  1  0.76930000  0.41830000  0.91210000  1.0
  H  H62  1  0.54290000  0.20210000  0.95130000  1.0
  H  H63  1  0.11520000  0.32610000  0.05180000  1.0
  H  H64  1  0.68470000  0.47840000  0.85230000  1.0
  H  H65  1  0.42450000  0.15150000  0.08500000  1.0
  H  H66  1  0.13890000  0.42700000  0.85630000  1.0
  H  H67  1  0.94020000  0.77030000  0.60760000  1.0
  H  H68  1  0.40360000  0.76010000  0.39050000  1.0
  H  H69  1  0.21400000  0.83120000  0.60960000  1.0
  H  H70  1  0.93740000  0.67430000  0.62750000  1.0
  H  H71  1  0.04820000  0.54760000  0.35630000  1.0
  H  H72  1  0.13650000  0.69550000  0.39110000  1.0
  H  H73  1  0.75750000  0.65240000  0.69250000  1.0
  H  H74  1  0.65660000  0.87570000  0.50120000  1.0
  H  H75  1  0.69350000  0.65120000  0.49790000  1.0
  H  H76  1  0.39890000  0.85250000  0.36930000  1.0
  H  H77  1  0.57500000  0.87720000  0.30730000  1.0
  H  H78  1  0.05540000  0.85180000  0.38510000  1.0
  H  H79  1  0.50560000  0.59170000  0.35820000  1.0
  H  H80  1  0.28740000  0.68150000  0.61190000  1.0
  H  H81  1  0.76840000  0.86580000  0.58730000  1.0
  H  H82  1  0.12820000  0.61100000  0.41210000  1.0
  H  H83  1  0.23070000  0.91830000  0.58790000  1.0
  H  H84  1  0.45710000  0.70210000  0.54870000  1.0
  H  H85  1  0.88480000  0.82610000  0.44820000  1.0
  H  H86  1  0.31530000  0.97840000  0.64770000  1.0
  H  H87  1  0.57550000  0.65150000  0.41500000  1.0
  H  H88  1  0.86110000  0.92700000  0.64370000  1.0
  C  C1  1  0.99070000  0.75930000  0.04160000  1.0
  C  C2  1  0.06260000  0.78620000  0.95870000  1.0
  C  C3  1  0.35540000  0.71260000  0.95820000  1.0
  C  C4  1  0.28410000  0.68680000  0.04220000  1.0
  C  C5  1  0.09630000  0.75360000  0.00050000  1.0
  C  C6  1  0.38420000  0.86820000  0.19080000  1.0
  C  C7  1  0.24600000  0.71760000  0.99900000  1.0
  C  C8  1  0.71390000  0.97960000  0.81660000  1.0
  C  C9  1  0.50800000  0.67490000  0.96100000  1.0
  C  C10  1  0.94870000  0.61210000  0.80120000  1.0
  C  C11  1  0.83120000  0.63280000  0.83960000  1.0
  C  C12  1  0.02000000  0.72720000  0.08230000  1.0
  C  C13  1  0.32760000  0.74370000  0.91640000  1.0
  C  C14  1  0.44300000  0.65080000  0.03820000  1.0
  C  C15  1  0.18250000  0.68940000  0.08320000  1.0
  C  C16  1  0.80450000  0.82480000  0.12430000  1.0
  C  C17  1  0.86160000  0.86090000  0.92040000  1.0
  C  C18  1  0.62200000  0.66350000  0.91750000  1.0
  C  C19  1  0.59130000  0.54280000  0.15360000  1.0
  C  C20  1  0.91030000  0.82220000  0.96170000  1.0
  C  C21  1  0.49470000  0.61340000  0.08080000  1.0
  C  C22  1  0.95290000  0.93110000  0.86770000  1.0
  C  C23  1  0.16630000  0.78310000  0.91710000  1.0
  C  C24  1  0.77280000  0.93730000  0.85120000  1.0
  C  C25  1  0.69740000  0.83950000  0.16340000  1.0
  C  C26  1  0.71890000  0.80920000  0.08180000  1.0
  C  C27  1  0.55150000  0.64670000  0.00030000  1.0
  C  C28  1  0.50420000  0.84130000  0.15700000  1.0
  C  C29  1  0.65380000  0.50480000  0.19040000  1.0
  C  C30  1  0.79790000  0.82620000  0.99920000  1.0
  C  C31  1  0.53170000  0.64760000  0.87280000  1.0
  C  C32  1  0.63690000  0.63290000  0.83570000  1.0
  C  C33  1  0.92240000  0.64820000  0.88230000  1.0
  C  C34  1  0.63170000  0.90470000  0.86960000  1.0
  C  C35  1  0.41990000  0.82190000  0.11430000  1.0
  C  C36  1  0.83820000  0.79670000  0.03930000  1.0
  C  C37  1  0.67820000  0.61120000  0.09870000  1.0
  C  C38  1  0.00100000  0.89300000  0.90170000  1.0
  C  C39  1  0.35690000  0.57990000  0.09970000  1.0
  C  C40  1  0.51920000  0.80810000  0.07700000  1.0
  C  C41  1  0.82010000  0.66350000  0.92030000  1.0
  C  C42  1  0.40650000  0.54400000  0.13600000  1.0
  C  C43  1  0.67330000  0.86860000  0.90310000  1.0
  C  C44  1  0.73320000  0.57570000  0.13340000  1.0
  C  C45  1  0.00930000  0.25930000  0.45840000  1.0
  C  C46  1  0.93740000  0.28620000  0.54130000  1.0
  C  C47  1  0.64460000  0.21260000  0.54180000  1.0
  C  C48  1  0.71590000  0.18680000  0.45780000  1.0
  C  C49  1  0.90370000  0.25360000  0.49950000  1.0
  C  C50  1  0.61580000  0.36820000  0.30920000  1.0
  C  C51  1  0.75400000  0.21760000  0.50100000  1.0
  C  C52  1  0.28610000  0.47960000  0.68340000  1.0
  C  C53  1  0.49200000  0.17490000  0.53900000  1.0
  C  C54  1  0.05130000  0.11210000  0.69880000  1.0
  C  C55  1  0.16880000  0.13280000  0.66040000  1.0
  C  C56  1  0.98000000  0.22720000  0.41770000  1.0
  C  C57  1  0.67240000  0.24370000  0.58360000  1.0
  C  C58  1  0.55700000  0.15080000  0.46180000  1.0
  C  C59  1  0.81750000  0.18940000  0.41680000  1.0
  C  C60  1  0.19550000  0.32480000  0.37570000  1.0
  C  C61  1  0.13840000  0.36090000  0.57960000  1.0
  C  C62  1  0.37800000  0.16350000  0.58250000  1.0
  C  C63  1  0.40870000  0.04280000  0.34640000  1.0
  C  C64  1  0.08970000  0.32220000  0.53830000  1.0
  C  C65  1  0.50530000  0.11340000  0.41920000  1.0
  C  C66  1  0.04710000  0.43110000  0.63230000  1.0
  C  C67  1  0.83370000  0.28310000  0.58290000  1.0
  C  C68  1  0.22720000  0.43730000  0.64880000  1.0
  C  C69  1  0.30260000  0.33950000  0.33660000  1.0
  C  C70  1  0.28110000  0.30920000  0.41820000  1.0
  C  C71  1  0.44850000  0.14670000  0.49970000  1.0
  C  C72  1  0.49580000  0.34130000  0.34300000  1.0
  C  C73  1  0.34620000  0.00480000  0.30960000  1.0
  C  C74  1  0.20210000  0.32620000  0.50080000  1.0
  C  C75  1  0.46830000  0.14760000  0.62720000  1.0
  C  C76  1  0.36310000  0.13290000  0.66430000  1.0
  C  C77  1  0.07760000  0.14820000  0.61770000  1.0
  C  C78  1  0.36830000  0.40470000  0.63040000  1.0
  C  C79  1  0.58010000  0.32190000  0.38570000  1.0
  C  C80  1  0.16180000  0.29670000  0.46070000  1.0
  C  C81  1  0.32180000  0.11120000  0.40130000  1.0
  C  C82  1  0.99900000  0.39300000  0.59830000  1.0
  C  C83  1  0.64310000  0.07990000  0.40030000  1.0
  C  C84  1  0.48080000  0.30810000  0.42300000  1.0
  C  C85  1  0.17990000  0.16350000  0.57970000  1.0
  C  C86  1  0.59350000  0.04400000  0.36400000  1.0
  C  C87  1  0.32670000  0.36860000  0.59690000  1.0
  C  C88  1  0.26680000  0.07570000  0.36660000  1.0
  C  C89  1  0.00930000  0.24070000  0.95840000  1.0
  C  C90  1  0.93740000  0.21380000  0.04130000  1.0
  C  C91  1  0.64460000  0.28740000  0.04180000  1.0
  C  C92  1  0.71590000  0.31320000  0.95780000  1.0
  C  C93  1  0.90370000  0.24640000  0.99950000  1.0
  C  C94  1  0.61580000  0.13180000  0.80920000  1.0
  C  C95  1  0.75400000  0.28240000  0.00100000  1.0
  C  C96  1  0.28610000  0.02040000  0.18340000  1.0
  C  C97  1  0.49200000  0.32510000  0.03900000  1.0
  C  C98  1  0.05130000  0.38790000  0.19880000  1.0
  C  C99  1  0.16880000  0.36720000  0.16040000  1.0
  C  C100  1  0.98000000  0.27280000  0.91770000  1.0
  C  C101  1  0.67240000  0.25630000  0.08360000  1.0
  C  C102  1  0.55700000  0.34920000  0.96180000  1.0
  C  C103  1  0.81750000  0.31060000  0.91680000  1.0
  C  C104  1  0.19550000  0.17520000  0.87570000  1.0
  C  C105  1  0.13840000  0.13910000  0.07960000  1.0
  C  C106  1  0.37800000  0.33650000  0.08250000  1.0
  C  C107  1  0.40870000  0.45720000  0.84640000  1.0
  C  C108  1  0.08970000  0.17780000  0.03830000  1.0
  C  C109  1  0.50530000  0.38660000  0.91920000  1.0
  C  C110  1  0.04710000  0.06890000  0.13230000  1.0
  C  C111  1  0.83370000  0.21690000  0.08290000  1.0
  C  C112  1  0.22720000  0.06270000  0.14880000  1.0
  C  C113  1  0.30260000  0.16050000  0.83660000  1.0
  C  C114  1  0.28110000  0.19080000  0.91820000  1.0
  C  C115  1  0.44850000  0.35330000  0.99970000  1.0
  C  C116  1  0.49580000  0.15870000  0.84300000  1.0
  C  C117  1  0.34620000  0.49520000  0.80960000  1.0
  C  C118  1  0.20210000  0.17380000  0.00080000  1.0
  C  C119  1  0.46830000  0.35240000  0.12720000  1.0
  C  C120  1  0.36310000  0.36710000  0.16430000  1.0
  C  C121  1  0.07760000  0.35180000  0.11770000  1.0
  C  C122  1  0.36830000  0.09530000  0.13040000  1.0
  C  C123  1  0.58010000  0.17810000  0.88570000  1.0
  C  C124  1  0.16180000  0.20330000  0.96070000  1.0
  C  C125  1  0.32180000  0.38880000  0.90130000  1.0
  C  C126  1  0.99900000  0.10700000  0.09830000  1.0
  C  C127  1  0.64310000  0.42010000  0.90030000  1.0
  C  C128  1  0.48080000  0.19190000  0.92300000  1.0
  C  C129  1  0.17990000  0.33650000  0.07970000  1.0
  C  C130  1  0.59350000  0.45600000  0.86400000  1.0
  C  C131  1  0.32670000  0.13140000  0.09690000  1.0
  C  C132  1  0.26680000  0.42430000  0.86660000  1.0
  C  C133  1  0.99070000  0.74070000  0.54160000  1.0
  C  C134  1  0.06260000  0.71380000  0.45870000  1.0
  C  C135  1  0.35540000  0.78740000  0.45820000  1.0
  C  C136  1  0.28410000  0.81320000  0.54220000  1.0
  C  C137  1  0.09630000  0.74640000  0.50050000  1.0
  C  C138  1  0.38420000  0.63180000  0.69080000  1.0
  C  C139  1  0.24600000  0.78240000  0.49900000  1.0
  C  C140  1  0.71390000  0.52040000  0.31660000  1.0
  C  C141  1  0.50800000  0.82510000  0.46100000  1.0
  C  C142  1  0.94870000  0.88790000  0.30120000  1.0
  C  C143  1  0.83120000  0.86720000  0.33960000  1.0
  C  C144  1  0.02000000  0.77280000  0.58230000  1.0
  C  C145  1  0.32760000  0.75630000  0.41640000  1.0
  C  C146  1  0.44300000  0.84920000  0.53820000  1.0
  C  C147  1  0.18250000  0.81060000  0.58320000  1.0
  C  C148  1  0.80450000  0.67520000  0.62430000  1.0
  C  C149  1  0.86160000  0.63910000  0.42040000  1.0
  C  C150  1  0.62200000  0.83650000  0.41750000  1.0
  C  C151  1  0.59130000  0.95720000  0.65360000  1.0
  C  C152  1  0.91030000  0.67780000  0.46170000  1.0
  C  C153  1  0.49470000  0.88660000  0.58080000  1.0
  C  C154  1  0.95290000  0.56890000  0.36770000  1.0
  C  C155  1  0.16630000  0.71690000  0.41710000  1.0
  C  C156  1  0.77280000  0.56270000  0.35120000  1.0
  C  C157  1  0.69740000  0.66050000  0.66340000  1.0
  C  C158  1  0.71890000  0.69080000  0.58180000  1.0
  C  C159  1  0.55150000  0.85330000  0.50030000  1.0
  C  C160  1  0.50420000  0.65870000  0.65700000  1.0
  C  C161  1  0.65380000  0.99520000  0.69040000  1.0
  C  C162  1  0.79790000  0.67380000  0.49920000  1.0
  C  C163  1  0.53170000  0.85240000  0.37280000  1.0
  C  C164  1  0.63690000  0.86710000  0.33570000  1.0
  C  C165  1  0.92240000  0.85180000  0.38230000  1.0
  C  C166  1  0.63170000  0.59530000  0.36960000  1.0
  C  C167  1  0.41990000  0.67810000  0.61430000  1.0
  C  C168  1  0.83820000  0.70330000  0.53930000  1.0
  C  C169  1  0.67820000  0.88880000  0.59870000  1.0
  C  C170  1  0.00100000  0.60700000  0.40170000  1.0
  C  C171  1  0.35690000  0.92010000  0.59970000  1.0
  C  C172  1  0.51920000  0.69190000  0.57700000  1.0
  C  C173  1  0.82010000  0.83650000  0.42030000  1.0
  C  C174  1  0.40650000  0.95600000  0.63600000  1.0
  C  C175  1  0.67330000  0.63140000  0.40310000  1.0
  C  C176  1  0.73320000  0.92430000  0.63340000  1.0
  O  O1  1  0.87810000  0.58410000  0.76825000  1.0
  O  O2  1  0.46770000  0.89828000  0.22233000  1.0
  O  O3  1  0.53920000  0.47257000  0.20630000  1.0
  O  O4  1  0.12430000  0.62150000  0.80406000  1.0
  O  O5  1  0.20830000  0.86440000  0.18867000  1.0
  O  O6  1  0.83330000  0.01499000  0.80837000  1.0
  O  O7  1  0.54270000  0.97950000  0.80140000  1.0
  O  O8  1  0.82840000  0.50260000  0.20308000  1.0
  O  O9  1  0.12190000  0.08410000  0.73175000  1.0
  O  O10  1  0.53230000  0.39828000  0.27767000  1.0
  O  O11  1  0.46080000  0.97257000  0.29370000  1.0
  O  O12  1  0.87570000  0.12150000  0.69594000  1.0
  O  O13  1  0.79170000  0.36440000  0.31133000  1.0
  O  O14  1  0.16670000  0.51499000  0.69163000  1.0
  O  O15  1  0.45730000  0.47950000  0.69860000  1.0
  O  O16  1  0.17160000  0.00260000  0.29692000  1.0
  O  O17  1  0.12190000  0.41590000  0.23175000  1.0
  O  O18  1  0.53230000  0.10172000  0.77767000  1.0
  O  O19  1  0.46080000  0.52743000  0.79370000  1.0
  O  O20  1  0.87570000  0.37850000  0.19594000  1.0
  O  O21  1  0.79170000  0.13560000  0.81133000  1.0
  O  O22  1  0.16670000  0.98501000  0.19163000  1.0
  O  O23  1  0.45730000  0.02050000  0.19860000  1.0
  O  O24  1  0.17160000  0.49740000  0.79692000  1.0
  O  O25  1  0.87810000  0.91590000  0.26825000  1.0
  O  O26  1  0.46770000  0.60172000  0.72233000  1.0
  O  O27  1  0.53920000  0.02743000  0.70630000  1.0
  O  O28  1  0.12430000  0.87850000  0.30406000  1.0
  O  O29  1  0.20830000  0.63560000  0.68867000  1.0
  O  O30  1  0.83330000  0.48501000  0.30837000  1.0
  O  O31  1  0.54270000  0.52050000  0.30140000  1.0
  O  O32  1  0.82840000  0.99740000  0.70308000  1.0
