# generated using pymatgen
data_H8C9N2
_symmetry_space_group_name_H-M   'P 1'
_cell_length_a   27.22490000
_cell_length_b   28.64210000
_cell_length_c   28.64210000
_cell_angle_alpha   90.00000000
_cell_angle_beta   90.00000000
_cell_angle_gamma   90.00000000
_symmetry_Int_Tables_number   1
_chemical_formula_structural   H8C9N2
_chemical_formula_sum   'H256 C288 N64'
_cell_volume   22334.48828387
_cell_formula_units_Z   32
loop_
 _symmetry_equiv_pos_site_id
 _symmetry_equiv_pos_as_xyz
  1  'x, y, z'
loop_
 _atom_site_type_symbol
 _atom_site_label
 _atom_site_symmetry_multiplicity
 _atom_site_fract_x
 _atom_site_fract_y
 _atom_site_fract_z
 _atom_site_occupancy
  H  5  1  0.86273100  0.17813900  0.46040200  1
  H  6  1  0.88282300  0.22637000  0.42743000  1
  H  9  1  0.93936300  0.21544800  0.35588100  1
  H  10  1  0.96024500  0.15944300  0.34079600  1
  H  11  1  0.84933900  0.23716100  0.34213200  1
  H  12  1  0.80675000  0.19615500  0.32074300  1
  H  15  1  0.89834200  0.09815900  0.30814400  1
  H  16  1  0.83650200  0.11443000  0.29907200  1
  H  18  1  0.93190000  0.08691600  0.39030600  1
  H  19  1  0.89408100  0.09594000  0.43926200  1
  H  21  1  0.77975600  0.12525600  0.36937200  1
  H  22  1  0.80197800  0.11861200  0.42676300  1
  H  27  1  0.36270100  0.31830500  0.49354200  1
  H  28  1  0.38281500  0.27008600  0.52651800  1
  H  31  1  0.43935800  0.28103500  0.59806000  1
  H  32  1  0.46022900  0.33704700  0.61313200  1
  H  33  1  0.34934800  0.25930500  0.61183000  1
  H  34  1  0.30674700  0.30030400  0.63321100  1
  H  37  1  0.39830800  0.39832600  0.64577600  1
  H  38  1  0.33647600  0.38203500  0.65486100  1
  H  40  1  0.43185100  0.40956100  0.56361000  1
  H  41  1  0.39402900  0.40051500  0.51466100  1
  H  43  1  0.27972200  0.37118100  0.58457200  1
  H  44  1  0.30193700  0.37782100  0.52717800  1
  H  49  1  0.13026400  0.77881100  0.94155700  1
  H  50  1  0.14992700  0.82975700  0.97080100  1
  H  53  1  0.20498200  0.88989900  0.93212300  1
  H  54  1  0.22408800  0.88221800  0.87387400  1
  H  55  1  0.11182300  0.90817300  0.94866600  1
  H  56  1  0.07093500  0.91309600  0.90136100  1
  H  59  1  0.16285700  0.88706400  0.80634000  1
  H  60  1  0.10083600  0.90082000  0.81813100  1
  H  62  1  0.19835400  0.80839000  0.82924000  1
  H  63  1  0.15969200  0.76595900  0.85465400  1
  H  65  1  0.04463400  0.83787400  0.85598000  1
  H  66  1  0.06944000  0.78350000  0.87201600  1
  H  71  1  0.63025700  0.71766700  0.01237900  1
  H  72  1  0.64995900  0.66673800  0.98313200  1
  H  75  1  0.70503800  0.60661700  0.02181200  1
  H  76  1  0.72411900  0.61429800  0.08006800  1
  H  77  1  0.61189100  0.58830500  0.00524000  1
  H  78  1  0.57099100  0.58335000  0.05253300  1
  H  81  1  0.66288100  0.60940300  0.14757700  1
  H  82  1  0.60086800  0.59561900  0.13577400  1
  H  84  1  0.69833400  0.68810200  0.12471000  1
  H  85  1  0.65965300  0.73051800  0.09929500  1
  H  87  1  0.54464100  0.65854400  0.09792900  1
  H  88  1  0.56941900  0.71293600  0.08191000  1
  H  93  1  0.63396300  0.32313500  0.46563600  1
  H  94  1  0.61299700  0.27442200  0.43398700  1
  H  97  1  0.55465300  0.28441300  0.36318500  1
  H  98  1  0.53250500  0.34050800  0.34910400  1
  H  99  1  0.64325600  0.26261900  0.34748300  1
  H  100  1  0.68483200  0.30328200  0.32380300  1
  H  103  1  0.59317700  0.40103200  0.31231200  1
  H  104  1  0.65455800  0.38398700  0.30180000  1
  H  106  1  0.56144100  0.41267200  0.39561000  1
  H  107  1  0.60191900  0.40598200  0.44294200  1
  H  109  1  0.71342000  0.37510800  0.37063600  1
  H  110  1  0.69311800  0.38272600  0.42854000  1
  H  115  1  0.13400300  0.17331400  0.48827400  1
  H  116  1  0.11304000  0.22203100  0.51992300  1
  H  119  1  0.05470600  0.21205200  0.59073100  1
  H  120  1  0.03255100  0.15596100  0.60481200  1
  H  121  1  0.14331200  0.23383500  0.60642800  1
  H  122  1  0.18488600  0.19316800  0.63010300  1
  H  125  1  0.09322200  0.09542700  0.64160400  1
  H  126  1  0.15460200  0.11246900  0.65210900  1
  H  128  1  0.06147600  0.08378600  0.55831400  1
  H  129  1  0.10194800  0.09047100  0.51097500  1
  H  131  1  0.21345800  0.12133800  0.58327000  1
  H  132  1  0.19315200  0.11372100  0.52536900  1
  H  137  1  0.39595300  0.72648900  0.93054500  1
  H  138  1  0.37197900  0.67961400  0.96307800  1
  H  141  1  0.30783700  0.62385400  0.92797900  1
  H  142  1  0.28512600  0.63374100  0.87119200  1
  H  143  1  0.39674700  0.59355200  0.93819500  1
  H  144  1  0.43477100  0.58508200  0.88942100  1
  H  147  1  0.34065500  0.62045300  0.79950100  1
  H  148  1  0.40115400  0.59982600  0.80798100  1
  H  150  1  0.31720600  0.70288800  0.82384900  1
  H  151  1  0.36299200  0.74074800  0.84557600  1
  H  153  1  0.46742800  0.65504900  0.84297200  1
  H  154  1  0.45100900  0.71238400  0.85855000  1
  H  159  1  0.89590300  0.76998100  0.02339100  1
  H  160  1  0.87194000  0.81685300  0.99084800  1
  H  163  1  0.80782200  0.87264500  0.02594400  1
  H  164  1  0.78511900  0.86278200  0.08273800  1
  H  165  1  0.89674100  0.90291100  0.01570800  1
  H  166  1  0.93477600  0.91138500  0.06447300  1
  H  169  1  0.84066000  0.87606600  0.15441300  1
  H  170  1  0.90116700  0.89667200  0.14592200  1
  H  172  1  0.81717800  0.79363500  0.13009100  1
  H  173  1  0.86294400  0.75575400  0.10836900  1
  H  175  1  0.96741100  0.84142100  0.11094200  1
  H  176  1  0.95097400  0.78408600  0.09537800  1
  H  181  1  0.13115000  0.81294600  0.49700900  1
  H  182  1  0.10956500  0.76652800  0.53161900  1
  H  185  1  0.05417500  0.78095500  0.60319500  1
  H  186  1  0.03430400  0.83786000  0.61609200  1
  H  187  1  0.14402300  0.75853600  0.61765700  1
  H  188  1  0.18719800  0.79994800  0.63711000  1
  H  191  1  0.09747500  0.89977900  0.64585600  1
  H  192  1  0.15894800  0.88323700  0.65518900  1
  H  194  1  0.06329100  0.90768400  0.56351300  1
  H  195  1  0.10033600  0.89604700  0.51457100  1
  H  197  1  0.21534700  0.86790000  0.58478900  1
  H  198  1  0.19264600  0.87227500  0.52744700  1
  H  203  1  0.63119000  0.68352500  0.45689000  1
  H  204  1  0.60959600  0.72993200  0.42227300  1
  H  207  1  0.55419100  0.71548800  0.35071100  1
  H  208  1  0.53431900  0.65857500  0.33783100  1
  H  209  1  0.64403100  0.73790300  0.33622100  1
  H  210  1  0.68720500  0.69648800  0.31677000  1
  H  213  1  0.59748900  0.59664900  0.30807200  1
  H  214  1  0.65895900  0.61319100  0.29872200  1
  H  216  1  0.56332600  0.58876600  0.39042100  1
  H  217  1  0.60038400  0.60041600  0.43935300  1
  H  219  1  0.71537000  0.62855300  0.36910700  1
  H  220  1  0.69268100  0.62419200  0.42645200  1
  H  225  1  0.87168600  0.21941600  0.01580300  1
  H  226  1  0.85385000  0.16981200  0.98374000  1
  H  229  1  0.79529700  0.10874700  0.01862700  1
  H  230  1  0.77249100  0.11549000  0.07580500  1
  H  231  1  0.88881800  0.08854500  0.00834100  1
  H  232  1  0.92695900  0.08379800  0.05760200  1
  H  235  1  0.82866300  0.10838100  0.14719200  1
  H  236  1  0.89116500  0.09469000  0.13918600  1
  H  238  1  0.79540700  0.18805300  0.12297000  1
  H  239  1  0.83601700  0.23069000  0.10094400  1
  H  241  1  0.95037200  0.15725700  0.10456300  1
  H  242  1  0.92655900  0.21234200  0.08896100  1
  H  247  1  0.37167800  0.27709100  0.93810100  1
  H  248  1  0.35381400  0.32668600  0.97016200  1
  H  251  1  0.29523700  0.38772600  0.93526900  1
  H  252  1  0.27244700  0.38097700  0.87808400  1
  H  253  1  0.38875000  0.40796200  0.94557200  1
  H  254  1  0.42689900  0.41273100  0.89631300  1
  H  257  1  0.32862300  0.38811700  0.80671400  1
  H  258  1  0.39111600  0.40182800  0.81472600  1
  H  260  1  0.29539700  0.30842600  0.83091900  1
  H  261  1  0.33602700  0.26580700  0.85295000  1
  H  263  1  0.45034500  0.33928200  0.84934700  1
  H  264  1  0.42655000  0.28418700  0.86493900  1
  H  269  1  0.36401700  0.67768400  0.48791400  1
  H  270  1  0.38713400  0.72468400  0.52070200  1
  H  273  1  0.44507400  0.71121500  0.59109400  1
  H  274  1  0.46601400  0.65420100  0.60308700  1
  H  275  1  0.35720000  0.73453300  0.60814300  1
  H  276  1  0.31488400  0.69392500  0.63076300  1
  H  279  1  0.40390900  0.59367100  0.63824500  1
  H  280  1  0.34313600  0.61124600  0.64973500  1
  H  282  1  0.43499800  0.58440100  0.55469300  1
  H  283  1  0.39475600  0.59354500  0.50761200  1
  H  285  1  0.28383000  0.62470900  0.58111600  1
  H  286  1  0.30391400  0.61885400  0.52302700  1
  H  291  1  0.86398400  0.81877300  0.46600200  1
  H  292  1  0.88711300  0.77178300  0.43321500  1
  H  295  1  0.94504200  0.78525600  0.36281900  1
  H  296  1  0.96597900  0.84227300  0.35083600  1
  H  297  1  0.85717400  0.76193000  0.34577400  1
  H  298  1  0.81485200  0.80253100  0.32315500  1
  H  301  1  0.90386300  0.90280000  0.31568300  1
  H  302  1  0.84309100  0.88522100  0.30419400  1
  H  304  1  0.93495200  0.91206900  0.39923700  1
  H  305  1  0.89471300  0.90291500  0.44631500  1
  H  307  1  0.78379300  0.87174700  0.37280700  1
  H  308  1  0.80387400  0.87759500  0.43089700  1
  H  313  1  0.60268300  0.26540100  0.02366100  1
  H  314  1  0.62273400  0.31266900  0.98918600  1
  H  317  1  0.68623100  0.37096400  0.01958900  1
  H  318  1  0.71056600  0.36475300  0.07630300  1
  H  319  1  0.59408100  0.39595900  0.01013200  1
  H  320  1  0.55879700  0.40657600  0.06044300  1
  H  323  1  0.65685400  0.37860000  0.14866400  1
  H  324  1  0.59523400  0.39581600  0.14152100  1
  H  326  1  0.68403500  0.29603800  0.12677600  1
  H  327  1  0.63976700  0.25521000  0.10777700  1
  H  329  1  0.53077500  0.33549700  0.11205100  1
  H  330  1  0.54945600  0.27875700  0.09691100  1
  H  335  1  0.10271800  0.23110400  0.93022400  1
  H  336  1  0.12276900  0.18384100  0.96470500  1
  H  339  1  0.18625400  0.12553100  0.93430900  1
  H  340  1  0.21058200  0.13172800  0.87759200  1
  H  341  1  0.09410000  0.10055300  0.94377800  1
  H  342  1  0.05881100  0.08993000  0.89347400  1
  H  345  1  0.15686500  0.11787100  0.80524000  1
  H  346  1  0.09524000  0.10067100  0.81239100  1
  H  348  1  0.18406000  0.20043600  0.82710700  1
  H  349  1  0.13980100  0.24127400  0.84610000  1
  H  351  1  0.03079800  0.16100300  0.84184700  1
  H  352  1  0.04948700  0.21774300  0.85697500  1
  H  359  1  0.77153900  0.33105800  0.41154100  1
  H  360  1  0.72383300  0.16992300  0.41389400  1
  H  367  1  0.27160100  0.16536000  0.54237900  1
  H  368  1  0.22382800  0.32650500  0.54002300  1
  H  375  1  0.93217900  0.86581600  0.95244700  1
  H  376  1  0.08294600  0.80452500  0.01247600  1
  H  383  1  0.43220700  0.63061300  0.00145800  1
  H  384  1  0.58297300  0.69193200  0.94144500  1
  H  391  1  0.32857600  0.77969100  0.54005400  1
  H  392  1  0.16857300  0.71185400  0.55106900  1
  H  399  1  0.82859700  0.71673800  0.41392900  1
  H  400  1  0.66858600  0.78460600  0.40275300  1
  H  407  1  0.97540800  0.12900400  0.89788000  1
  H  408  1  0.00147800  0.20119300  0.04702400  1
  H  415  1  0.47538400  0.36751800  0.05602500  1
  H  416  1  0.50144500  0.29533000  0.90687700  1
  H  423  1  0.28637800  0.83745200  0.90851100  1
  H  424  1  0.23684800  0.67762800  0.92681300  1
  H  431  1  0.78636400  0.65903300  0.04534800  1
  H  432  1  0.73681000  0.81889900  0.02717300  1
  H  439  1  0.51433000  0.36909600  0.55570600  1
  H  440  1  0.48241400  0.29725800  0.40767900  1
  H  447  1  0.01435800  0.12738400  0.39821400  1
  H  448  1  0.98245300  0.19919600  0.54625500  1
  H  455  1  0.71320700  0.15948800  0.03930000  1
  H  456  1  0.76181600  0.31997800  0.02674100  1
  H  463  1  0.21320700  0.33701800  0.91464600  1
  H  464  1  0.26183500  0.17649000  0.92713100  1
  H  471  1  0.47964100  0.63104900  0.39565500  1
  H  472  1  0.51538400  0.70016100  0.54444600  1
  H  479  1  0.97961300  0.86540000  0.55826900  1
  H  480  1  0.01534300  0.79630300  0.40947000  1
  H  487  1  0.95459200  0.14085500  0.25749900  1
  H  488  1  0.82509700  0.22945900  0.18717500  1
  H  495  1  0.45459400  0.35567500  0.69638000  1
  H  496  1  0.32518000  0.26697300  0.76676900  1
  H  503  1  0.15146500  0.96774200  0.80313200  1
  H  504  1  0.15912000  0.04343100  0.95195800  1
  H  511  1  0.65157600  0.52873200  0.15078200  1
  H  512  1  0.65912000  0.45304900  0.00194500  1
  H  519  1  0.53560100  0.35903800  0.26467300  1
  H  520  1  0.65515700  0.25957000  0.19315500  1
  H  527  1  0.03561000  0.13743800  0.68918800  1
  H  528  1  0.15513900  0.23692500  0.76075700  1
  H  535  1  0.34650500  0.53700600  0.79800600  1
  H  536  1  0.32902100  0.46916900  0.94995000  1
  H  543  1  0.84650000  0.95949200  0.15590000  1
  H  544  1  0.82908900  0.02733700  0.00395000  1
  H  551  1  0.04151700  0.86033100  0.69930900  1
  H  552  1  0.16308900  0.76237700  0.77004400  1
  H  559  1  0.54150000  0.63607400  0.25465000  1
  H  560  1  0.66297300  0.73412100  0.18385400  1
  H  567  1  0.46195200  0.63260700  0.68791000  1
  H  568  1  0.35056700  0.74008800  0.75989800  1
  H  575  1  0.96196000  0.86386000  0.26606900  1
  H  576  1  0.85059200  0.75640000  0.19399500  1
  H  583  1  0.64918100  0.46426700  0.29876200  1
  H  584  1  0.65953500  0.53988000  0.44733100  1
  H  591  1  0.14922500  0.03219100  0.65516400  1
  H  592  1  0.15949000  0.95656300  0.50660000  1
  H  599  1  0.84591600  0.03292600  0.29842600  1
  H  600  1  0.83632900  0.96352100  0.45014800  1
  H  607  1  0.34584600  0.46353700  0.65551000  1
  H  608  1  0.33639000  0.53294600  0.50378600  1
  C  1  1  0.82552300  0.18423400  0.39356400  1
  C  2  1  0.83941800  0.20009200  0.34277400  1
  C  3  1  0.87220800  0.18956000  0.42502800  1
  C  4  1  0.91742400  0.16085400  0.40598600  1
  C  7  1  0.92889900  0.17855700  0.35495300  1
  C  8  1  0.88353900  0.17184700  0.32161500  1
  C  13  1  0.86818600  0.11914700  0.32223800  1
  C  14  1  0.85512100  0.10007100  0.37214100  1
  C  17  1  0.90156300  0.10817100  0.40371300  1
  C  20  1  0.81188100  0.13058700  0.39171000  1
  C  23  1  0.32550400  0.31221100  0.56038800  1
  C  24  1  0.33941300  0.29637100  0.61117700  1
  C  25  1  0.37218500  0.30689400  0.52892000  1
  C  26  1  0.41739700  0.33561400  0.54794800  1
  C  29  1  0.42888600  0.31792400  0.59898500  1
  C  30  1  0.38353100  0.32462900  0.63233100  1
  C  35  1  0.36815500  0.37732500  0.63169200  1
  C  36  1  0.35508000  0.39638800  0.58179000  1
  C  39  1  0.40152200  0.38829500  0.55021000  1
  C  42  1  0.31184700  0.36585600  0.56223100  1
  C  45  1  0.09113000  0.84089100  0.91900600  1
  C  46  1  0.10331700  0.89418600  0.91398600  1
  C  47  1  0.13882500  0.81586100  0.93677400  1
  C  48  1  0.18301700  0.82210700  0.90252000  1
  C  51  1  0.19370400  0.87613900  0.89811800  1
  C  52  1  0.14751400  0.90341700  0.87979800  1
  C  57  1  0.13286100  0.88178900  0.83132800  1
  C  58  1  0.12054700  0.82833200  0.83331100  1
  C  61  1  0.16736400  0.80347700  0.85317300  1
  C  64  1  0.07777700  0.82079400  0.86924800  1
  C  67  1  0.59115700  0.65556900  0.03491000  1
  C  68  1  0.60337000  0.60227700  0.03992300  1
  C  69  1  0.63884100  0.68062300  0.01716000  1
  C  70  1  0.68303200  0.67439500  0.05141900  1
  C  73  1  0.69374300  0.62036600  0.05581600  1
  C  74  1  0.64756100  0.59306000  0.07411600  1
  C  79  1  0.63288300  0.61467100  0.12258700  1
  C  80  1  0.62054200  0.66812100  0.12061500  1
  C  83  1  0.66734800  0.69300400  0.10076900  1
  C  86  1  0.57777900  0.67564500  0.08467100  1
  C  89  1  0.66879900  0.31636100  0.39731000  1
  C  90  1  0.65313700  0.29970400  0.34715100  1
  C  91  1  0.62340700  0.31121300  0.43071200  1
  C  92  1  0.57772800  0.33945500  0.41260200  1
  C  95  1  0.56457800  0.32143400  0.36198400  1
  C  96  1  0.60826200  0.32755700  0.32698300  1
  C  101  1  0.62360900  0.38012900  0.32598500  1
  C  102  1  0.63819100  0.40015900  0.37508400  1
  C  105  1  0.59284600  0.39238000  0.40828000  1
  C  108  1  0.68209500  0.37006000  0.39403500  1
  C  111  1  0.16884500  0.18009200  0.55660000  1
  C  112  1  0.15318800  0.19675000  0.60676000  1
  C  113  1  0.12344700  0.18524000  0.52319800  1
  C  114  1  0.07776800  0.15700400  0.54131500  1
  C  117  1  0.06462400  0.17503000  0.59193200  1
  C  118  1  0.10830900  0.16890300  0.62693300  1
  C  123  1  0.12365100  0.11633000  0.62792800  1
  C  124  1  0.13822800  0.09629400  0.57882900  1
  C  127  1  0.09288100  0.10407600  0.54563700  1
  C  130  1  0.18213200  0.12639100  0.55987500  1
  C  133  1  0.42447100  0.65879500  0.90801200  1
  C  134  1  0.40547800  0.60721400  0.90356100  1
  C  135  1  0.38240700  0.69056000  0.92783600  1
  C  136  1  0.33571400  0.68863600  0.89622900  1
  C  139  1  0.31799100  0.63614000  0.89309000  1
  C  140  1  0.35844700  0.60327900  0.87212800  1
  C  145  1  0.37265500  0.62248500  0.82265500  1
  C  146  1  0.39205200  0.67398600  0.82353500  1
  C  149  1  0.35028600  0.70446200  0.84559000  1
  C  152  1  0.43757000  0.67637800  0.85714600  1
  C  155  1  0.92444700  0.83766800  0.04590300  1
  C  156  1  0.90547200  0.88925700  0.05034500  1
  C  157  1  0.88236800  0.80591400  0.02609200  1
  C  158  1  0.83567900  0.80785900  0.05770500  1
  C  161  1  0.81797800  0.86036200  0.06083200  1
  C  162  1  0.85844900  0.89321600  0.08178100  1
  C  167  1  0.87265600  0.87401700  0.13125600  1
  C  168  1  0.89203500  0.82250900  0.13039000  1
  C  171  1  0.85025000  0.79204300  0.10834700  1
  C  174  1  0.93754500  0.82009600  0.09677300  1
  C  177  1  0.16797400  0.80876700  0.56391400  1
  C  178  1  0.15439600  0.79539800  0.61537000  1
  C  179  1  0.12131300  0.80301600  0.53275700  1
  C  180  1  0.07684600  0.83308100  0.55087700  1
  C  183  1  0.06523200  0.81770100  0.60257400  1
  C  184  1  0.11082900  0.82520800  0.63536100  1
  C  189  1  0.12710400  0.87770700  0.63241100  1
  C  190  1  0.14012600  0.89419000  0.58136400  1
  C  193  1  0.09322600  0.88554900  0.55069900  1
  C  196  1  0.18279000  0.86217100  0.56309000  1
  C  199  1  0.66799800  0.68769000  0.38997500  1
  C  200  1  0.65440800  0.70104100  0.33851600  1
  C  201  1  0.62134600  0.69344400  0.42114200  1
  C  202  1  0.57687600  0.66337200  0.40303600  1
  C  205  1  0.56525000  0.67874100  0.35133600  1
  C  206  1  0.61083700  0.67122800  0.31854100  1
  C  211  1  0.62712000  0.61872800  0.32150500  1
  C  212  1  0.64015600  0.60225600  0.37255300  1
  C  215  1  0.59326100  0.61090400  0.40322400  1
  C  218  1  0.68281900  0.63428600  0.39080900  1
  C  221  1  0.90811600  0.15606200  0.03929000  1
  C  222  1  0.89538900  0.10269900  0.04324700  1
  C  223  1  0.86240100  0.18233900  0.01896300  1
  C  224  1  0.81586600  0.17564900  0.05046700  1
  C  227  1  0.80442800  0.12174200  0.05349000  1
  C  228  1  0.84881000  0.09372400  0.07429700  1
  C  233  1  0.86028500  0.11410500  0.12418000  1
  C  234  1  0.87309700  0.16744700  0.12345100  1
  C  237  1  0.82803500  0.19320100  0.10115900  1
  C  240  1  0.91811400  0.17498600  0.09017900  1
  C  243  1  0.40808200  0.34045700  0.91461400  1
  C  244  1  0.39533300  0.39381500  0.91066200  1
  C  245  1  0.36237400  0.31416300  0.93493700  1
  C  246  1  0.31583500  0.32083100  0.90343100  1
  C  249  1  0.30438200  0.37473500  0.90040800  1
  C  250  1  0.34875500  0.40277400  0.87961000  1
  C  255  1  0.36024200  0.38240200  0.82972500  1
  C  256  1  0.37307700  0.32906500  0.83045200  1
  C  259  1  0.32802300  0.30329100  0.85273700  1
  C  262  1  0.41809100  0.32154000  0.86372400  1
  C  265  1  0.33033800  0.68323500  0.55675000  1
  C  266  1  0.34648600  0.69768200  0.60731900  1
  C  267  1  0.37534700  0.68826900  0.52306200  1
  C  268  1  0.42014400  0.65838700  0.54012700  1
  C  271  1  0.43429300  0.67439100  0.59112900  1
  C  272  1  0.39070100  0.66804000  0.62615100  1
  C  277  1  0.37394000  0.61572200  0.62548100  1
  C  278  1  0.35856700  0.59807000  0.57550900  1
  C  281  1  0.40405600  0.60573000  0.54268000  1
  C  284  1  0.31538000  0.62984100  0.55797200  1
  C  287  1  0.83030500  0.81321800  0.39717000  1
  C  288  1  0.84645600  0.79877800  0.34660100  1
  C  289  1  0.87531500  0.80819100  0.43085500  1
  C  290  1  0.92010900  0.83808000  0.41379300  1
  C  293  1  0.93425800  0.82207900  0.36278700  1
  C  294  1  0.89066500  0.82843000  0.32776800  1
  C  299  1  0.87389800  0.88074500  0.32844700  1
  C  300  1  0.85852200  0.89839300  0.37841800  1
  C  303  1  0.90401300  0.89073300  0.41124700  1
  C  306  1  0.81534100  0.86661500  0.39595200  1
  C  309  1  0.57087800  0.33206300  0.04534500  1
  C  310  1  0.58792400  0.38442000  0.04610500  1
  C  311  1  0.61433400  0.30199300  0.02504800  1
  C  312  1  0.66218000  0.30683100  0.05466400  1
  C  315  1  0.67742300  0.35991700  0.05519400  1
  C  316  1  0.63579600  0.39154900  0.07572500  1
  C  321  1  0.62427300  0.37388600  0.12666000  1
  C  322  1  0.60779200  0.32137100  0.12857600  1
  C  325  1  0.65035200  0.29207600  0.10621100  1
  C  328  1  0.56097900  0.31537900  0.09696900  1
  C  331  1  0.07090200  0.16444400  0.90855300  1
  C  332  1  0.08794100  0.11208500  0.90780300  1
  C  333  1  0.11436500  0.19451100  0.92884200  1
  C  334  1  0.16221000  0.18966300  0.89922400  1
  C  337  1  0.17744400  0.13657300  0.89870400  1
  C  338  1  0.13581000  0.10494200  0.87818200  1
  C  343  1  0.12428600  0.12259700  0.82724600  1
  C  344  1  0.10781400  0.17511500  0.82531600  1
  C  347  1  0.15038200  0.20440800  0.84767400  1
  C  350  1  0.06100500  0.18111900  0.85692700  1
  C  353  1  0.76021900  0.29725900  0.41406100  1
  C  355  1  0.78515900  0.21643700  0.41015100  1
  C  356  1  0.73535200  0.20371000  0.41563600  1
  C  358  1  0.71009200  0.28454300  0.41252200  1
  C  361  1  0.26027900  0.19916000  0.53985900  1
  C  363  1  0.28514500  0.27997700  0.54383200  1
  C  364  1  0.23534800  0.29272000  0.53828400  1
  C  366  1  0.21016500  0.21188900  0.54137400  1
  C  369  1  0.96389200  0.85265000  0.96605200  1
  C  371  1  0.04879600  0.83553500  0.95238400  1
  C  372  1  0.05144000  0.81751300  0.99843500  1
  C  374  1  0.96707300  0.83627900  0.01260800  1
  C  377  1  0.46392400  0.64378200  0.98785600  1
  C  379  1  0.54882400  0.66090800  0.00153100  1
  C  380  1  0.55146900  0.67893700  0.95548100  1
  C  382  1  0.46710100  0.66016700  0.94130200  1
  C  385  1  0.29480000  0.76433600  0.53951300  1
  C  387  1  0.20817600  0.77635300  0.54803500  1
  C  388  1  0.20186300  0.72727800  0.54583600  1
  C  390  1  0.28894100  0.71526800  0.54303200  1
  C  393  1  0.79481600  0.73208900  0.41444200  1
  C  395  1  0.70821500  0.72011400  0.40582500  1
  C  396  1  0.70187500  0.76918900  0.40801400  1
  C  398  1  0.78892800  0.78114000  0.41088800  1
  C  401  1  0.98120700  0.14572700  0.92883100  1
  C  403  1  0.95009600  0.16240300  0.00574300  1
  C  404  1  0.99435000  0.18617300  0.01551200  1
  C  406  1  0.02619700  0.16793000  0.93925300  1
  C  409  1  0.48118400  0.35079800  0.02507100  1
  C  411  1  0.45006500  0.33412300  0.94816300  1
  C  412  1  0.49431500  0.31035200  0.93839000  1
  C  414  1  0.52616800  0.32858900  0.01464600  1
  C  417  1  0.27514900  0.80411600  0.91484500  1
  C  419  1  0.29807500  0.72275400  0.91409100  1
  C  420  1  0.24911200  0.71118700  0.92525900  1
  C  422  1  0.22507100  0.79198000  0.91842000  1
  C  425  1  0.77514300  0.69237900  0.03905800  1
  C  427  1  0.79801900  0.77373800  0.03987100  1
  C  428  1  0.74906300  0.78533600  0.02871000  1
  C  430  1  0.72507800  0.70457100  0.03555000  1
  C  433  1  0.50719300  0.35258600  0.52489100  1
  C  435  1  0.53636900  0.33449000  0.44745300  1
  C  436  1  0.49085200  0.31227000  0.43889200  1
  C  438  1  0.46113300  0.33168800  0.51572300  1
  C  441  1  0.00722200  0.14389000  0.42902900  1
  C  443  1  0.03640600  0.16197600  0.50646700  1
  C  444  1  0.99089000  0.18419000  0.51503900  1
  C  446  1  0.96116700  0.16478400  0.43820800  1
  C  449  1  0.72448700  0.19300200  0.03421900  1
  C  451  1  0.70071100  0.27393000  0.03642900  1
  C  452  1  0.74989700  0.28627800  0.02692200  1
  C  454  1  0.77458400  0.20566000  0.03272100  1
  C  457  1  0.22448000  0.30349700  0.91969400  1
  C  459  1  0.20075400  0.22257400  0.91743500  1
  C  460  1  0.24993000  0.21019400  0.92695600  1
  C  462  1  0.27455600  0.29077900  0.92116400  1
  C  465  1  0.48742500  0.64726300  0.42648000  1
  C  467  1  0.46065900  0.66370100  0.50488200  1
  C  468  1  0.50613900  0.68589200  0.51309000  1
  C  470  1  0.53352600  0.66806500  0.43522600  1
  C  473  1  0.98738900  0.84919300  0.52744300  1
  C  475  1  0.96062300  0.83276600  0.44903800  1
  C  476  1  0.00609900  0.81057200  0.44082600  1
  C  478  1  0.03348900  0.82839200  0.51869000  1
  C  481  1  0.92846900  0.16198200  0.24315300  1
  C  483  1  0.88461600  0.18255200  0.17289000  1
  C  484  1  0.85450400  0.21195100  0.20042700  1
  C  486  1  0.89321400  0.18501100  0.27124200  1
  C  489  1  0.42849000  0.33454300  0.71074700  1
  C  491  1  0.38461400  0.31399700  0.78100700  1
  C  492  1  0.35455000  0.28451800  0.75349500  1
  C  494  1  0.39320600  0.31149400  0.68272500  1
  C  497  1  0.15422200  0.98228400  0.83545500  1
  C  499  1  0.15013900  0.05402400  0.87870600  1
  C  500  1  0.15883100  0.02798200  0.91987200  1
  C  502  1  0.15660000  0.95552300  0.87700500  1
  C  505  1  0.65430100  0.51419000  0.11846000  1
  C  507  1  0.65012100  0.44247100  0.07520000  1
  C  508  1  0.65884800  0.46849500  0.03403300  1
  C  510  1  0.65666700  0.54095500  0.07690800  1
  C  513  1  0.55982100  0.33602400  0.25020700  1
  C  515  1  0.59778300  0.30901600  0.17909900  1
  C  516  1  0.62782500  0.27961000  0.20680000  1
  C  518  1  0.59572200  0.31305600  0.27761400  1
  C  521  1  0.05982900  0.16044100  0.70367000  1
  C  523  1  0.09780200  0.18742000  0.77478200  1
  C  524  1  0.12783100  0.21686600  0.74709900  1
  C  526  1  0.09577900  0.18339000  0.67631800  1
  C  529  1  0.34169100  0.52421700  0.83085700  1
  C  531  1  0.33821900  0.45448100  0.87742800  1
  C  532  1  0.33121200  0.48299500  0.91719800  1
  C  534  1  0.34221400  0.55275900  0.87121300  1
  C  537  1  0.84171400  0.97228500  0.12305000  1
  C  539  1  0.83831300  0.04200900  0.07647500  1
  C  540  1  0.83127100  0.01351000  0.03670200  1
  C  542  1  0.84223500  0.94374300  0.08269200  1
  C  545  1  0.06607500  0.83760900  0.71372100  1
  C  547  1  0.10691200  0.81292100  0.78436600  1
  C  548  1  0.13526300  0.78203700  0.75672400  1
  C  550  1  0.10059300  0.81333700  0.68590900  1
  C  553  1  0.56604400  0.65879900  0.24022000  1
  C  555  1  0.60687800  0.68347200  0.16957100  1
  C  556  1  0.63518600  0.71442300  0.19718800  1
  C  558  1  0.60060000  0.68306700  0.26797900  1
  C  561  1  0.43945400  0.65708800  0.70248300  1
  C  563  1  0.40454100  0.68724300  0.77375900  1
  C  564  1  0.37635400  0.71833300  0.74616700  1
  C  566  1  0.40431000  0.68148200  0.67549400  1
  C  569  1  0.93945900  0.83940000  0.25147500  1
  C  571  1  0.90452800  0.80931100  0.18018200  1
  C  572  1  0.87635900  0.77816800  0.20774600  1
  C  574  1  0.90426700  0.81501600  0.27840800  1
  C  577  1  0.65218500  0.47854700  0.33116400  1
  C  579  1  0.65287600  0.55078300  0.37391800  1
  C  580  1  0.65872300  0.52430100  0.41531800  1
  C  582  1  0.65080100  0.45180000  0.37280700  1
  C  585  1  0.15221000  0.01790700  0.62276100  1
  C  587  1  0.15282900  0.94567000  0.58001600  1
  C  588  1  0.15869400  0.97214100  0.53861200  1
  C  590  1  0.15085100  0.04466000  0.58112000  1
  C  593  1  0.84296300  0.01990000  0.33136800  1
  C  595  1  0.84481400  0.94964300  0.37739500  1
  C  596  1  0.83718500  0.97765800  0.41747900  1
  C  598  1  0.84290800  0.04837500  0.37181900  1
  C  601  1  0.34291800  0.47656400  0.62256500  1
  C  603  1  0.34486600  0.54681700  0.57654200  1
  C  604  1  0.33722100  0.51880900  0.53645500  1
  C  606  1  0.34283900  0.44807800  0.58212200  1
  N  354  1  0.79463200  0.26321700  0.41092300  1
  N  357  1  0.70078400  0.23775700  0.41441400  1
  N  362  1  0.29468100  0.23321200  0.54303200  1
  N  365  1  0.20078900  0.25866200  0.53948200  1
  N  370  1  0.00436400  0.85233200  0.93876400  1
  N  373  1  0.01129900  0.81909400  0.02625200  1
  N  378  1  0.50439400  0.64410000  0.01514400  1
  N  381  1  0.51132500  0.67735900  0.92766100  1
  N  386  1  0.25500800  0.79229800  0.54411100  1
  N  389  1  0.24198200  0.69945600  0.54575600  1
  N  394  1  0.75502100  0.70412700  0.40981600  1
  N  397  1  0.74199600  0.79701100  0.40811900  1
  N  402  1  0.94593100  0.14380600  0.96208600  1
  N  405  1  0.02996000  0.18703500  0.98265700  1
  N  410  1  0.44590000  0.35272200  0.99181900  1
  N  413  1  0.52992600  0.30948500  0.97124100  1
  N  418  1  0.30856500  0.76927900  0.91117900  1
  N  421  1  0.21530600  0.74565700  0.92435500  1
  N  426  1  0.80855700  0.72721500  0.04273400  1
  N  429  1  0.71524500  0.75087300  0.02961800  1
  N  434  1  0.54196700  0.35318300  0.49094500  1
  N  437  1  0.45587300  0.31254000  0.47248600  1
  N  442  1  0.04200100  0.14328900  0.46297200  1
  N  445  1  0.95590700  0.18392300  0.48144800  1
  N  450  1  0.69062400  0.22733200  0.03800000  1
  N  453  1  0.78414500  0.25216800  0.02823600  1
  N  458  1  0.19062200  0.26916400  0.91589900  1
  N  461  1  0.28419200  0.24429500  0.92564700  1
  N  466  1  0.45369800  0.64598200  0.46118100  1
  N  469  1  0.54006000  0.68621300  0.47872500  1
  N  474  1  0.95366600  0.85048100  0.49273900  1
  N  477  1  0.04002300  0.81024700  0.47519200  1
  N  482  1  0.92120000  0.15992300  0.19629600  1
  N  485  1  0.85848900  0.20963100  0.24745800  1
  N  490  1  0.42121000  0.33662000  0.75760100  1
  N  493  1  0.35850900  0.28680700  0.70645900  1
  N  498  1  0.14953300  0.02912400  0.83832100  1
  N  501  1  0.15992800  0.98061100  0.91738300  1
  N  506  1  0.64957400  0.46735400  0.11559500  1
  N  509  1  0.65997200  0.51586600  0.03652500  1
  N  514  1  0.56409300  0.33493800  0.20299300  1
  N  517  1  0.62724500  0.28498800  0.25372100  1
  N  522  1  0.06409700  0.16152400  0.75088300  1
  N  525  1  0.12728700  0.21149700  0.70017100  1
  N  530  1  0.34169400  0.47735600  0.83595700  1
  N  533  1  0.33554500  0.53000600  0.91259300  1
  N  538  1  0.84174300  0.01914600  0.11795500  1
  N  541  1  0.83558300  0.96649600  0.04130900  1
  N  546  1  0.07229700  0.83807700  0.76076000  1
  N  549  1  0.13266000  0.78571300  0.70971700  1
  N  554  1  0.57225900  0.65832400  0.19317800  1
  N  557  1  0.63262200  0.71075400  0.24419800  1
  N  562  1  0.43614400  0.65912300  0.74972100  1
  N  565  1  0.37551200  0.71206600  0.69939300  1
  N  570  1  0.93615700  0.83738900  0.20423200  1
  N  573  1  0.87548800  0.78441400  0.25452300  1
  N  578  1  0.65124500  0.52558900  0.33375500  1
  N  581  1  0.65551300  0.47688500  0.41310800  1
  N  586  1  0.15123600  0.97086400  0.62017700  1
  N  589  1  0.15551700  0.01956000  0.54082200  1
  N  594  1  0.84580200  0.97309500  0.33613400  1
  N  597  1  0.83867600  0.02497800  0.41316800  1
  N  602  1  0.34580500  0.52336900  0.61780300  1
  N  605  1  0.33866800  0.47148700  0.54077300  1
