# generated using pymatgen
data_H24C49(NO2)4
_symmetry_space_group_name_H-M   'P 1'
_cell_length_a   9.95153333
_cell_length_b   16.91800000
_cell_length_c   16.91810000
_cell_angle_alpha   89.99830000
_cell_angle_beta   90.00000000
_cell_angle_gamma   90.00000000
_symmetry_Int_Tables_number   1
_chemical_formula_structural   H24C49(NO2)4
_chemical_formula_sum   'H24 C49 N4 O8'
_cell_volume   2848.33200726
_cell_formula_units_Z   1
loop_
 _symmetry_equiv_pos_site_id
 _symmetry_equiv_pos_as_xyz
  1  'x, y, z'
loop_
 _atom_site_type_symbol
 _atom_site_label
 _atom_site_symmetry_multiplicity
 _atom_site_fract_x
 _atom_site_fract_y
 _atom_site_fract_z
 _atom_site_occupancy
  C  1  1  0.91969400  0.05767200  0.98998600  1
  C  2  1  0.05329300  0.03204500  0.98807700  1
  C  3  1  0.05508800  0.94935400  0.98893500  1
  C  4  1  0.92273800  0.92156800  0.99053100  1
  C  5  1  0.89565900  0.83946600  0.99203000  1
  C  6  1  0.00291900  0.78402900  0.99283500  1
  C  7  1  0.13626700  0.81386000  0.98986700  1
  C  8  1  0.16261500  0.89555400  0.98785700  1
  C  9  1  0.15828900  0.08757400  0.98522000  1
  C  10  1  0.12820700  0.16882000  0.98304100  1
  C  11  1  0.99347000  0.19599800  0.98488100  1
  C  12  1  0.88868300  0.13934200  0.98932100  1
  C  13  1  0.73519900  0.98882100  0.92153250  1
  C  14  1  0.60164800  0.99118000  0.94722700  1
  C  15  1  0.60003100  0.99055300  0.02994400  1
  C  16  1  0.73244600  0.98876900  0.05760600  1
  C  17  1  0.49267900  0.99156400  0.08388000  1
  C  18  1  0.51924400  0.98932400  0.16556200  1
  C  19  1  0.65266000  0.98623800  0.19525200  1
  C  20  1  0.75973100  0.98709500  0.13967800  1
  C  21  1  0.76611000  0.98870800  0.83985900  1
  C  22  1  0.66124100  0.99291100  0.78326700  1
  C  23  1  0.52656950  0.99553600  0.81039900  1
  C  24  1  0.49661300  0.99403500  0.89169500  1
  C  37  1  0.82752300  0.98887500  0.99023800  1
  C  38  1  0.96739600  0.27882600  0.98230600  1
  C  39  1  0.90400900  0.31779700  0.04603200  1
  C  40  1  0.89569300  0.40092800  0.04806300  1
  C  41  1  0.94813400  0.44748000  0.98580600  1
  C  42  1  0.00856650  0.40900600  0.92023200  1
  C  43  1  0.01763100  0.32538000  0.91947900  1
  C  45  1  0.95314800  0.53148600  0.99368800  1
  C  46  1  0.04733600  0.56796800  0.04504300  1
  C  47  1  0.05866000  0.65146500  0.04581500  1
  C  48  1  0.98014800  0.70034900  0.99593000  1
  C  49  1  0.88511100  0.66286800  0.94629600  1
  C  50  1  0.87244600  0.57989100  0.94479900  1
  C  62  1  0.68735900  0.99373400  0.70048100  1
  C  63  1  0.64300200  0.05745300  0.65322150  1
  C  64  1  0.65496100  0.05490500  0.57041000  1
  C  65  1  0.70905300  0.98783400  0.53202700  1
  C  66  1  0.75450300  0.92335300  0.57873000  1
  C  67  1  0.74488200  0.92754900  0.66237500  1
  C  69  1  0.70586700  0.98466100  0.44764400  1
  C  70  1  0.78727300  0.03413400  0.39964200  1
  C  71  1  0.77204800  0.03224300  0.31616600  1
  C  72  1  0.67577100  0.98314700  0.27891400  1
  C  73  1  0.59774300  0.93322300  0.32794900  1
  C  74  1  0.61235400  0.93391700  0.41060300  1
  H  25  1  0.44863100  0.99748700  0.77094150  1
  H  26  1  0.39917200  0.99537700  0.90934500  1
  H  27  1  0.39599600  0.99387500  0.06477000  1
  H  28  1  0.43914500  0.99100400  0.20345600  1
  H  29  1  0.85740200  0.98454100  0.15830400  1
  H  30  1  0.86438600  0.98765800  0.82215900  1
  H  31  1  0.79805500  0.82070600  0.99440600  1
  H  32  1  0.21649500  0.77606000  0.98807200  1
  H  33  1  0.25924300  0.91476400  0.98554300  1
  H  34  1  0.79036300  0.15697400  0.98976300  1
  H  35  1  0.25576500  0.06996000  0.98425800  1
  H  36  1  0.20619600  0.20824200  0.98093000  1
  H  44  1  0.06505100  0.29838900  0.87303700  1
  H  51  1  0.12779700  0.67659800  0.08289000  1
  H  52  1  0.82829000  0.69553500  0.90791000  1
  H  53  1  0.87016500  0.28618600  0.09361800  1
  H  54  1  0.80574100  0.55484100  0.90614300  1
  H  55  1  0.85458000  0.42745500  0.09678050  1
  H  68  1  0.77433850  0.87987900  0.69539400  1
  H  75  1  0.82890500  0.06985400  0.28261800  1
  H  76  1  0.52786400  0.89596800  0.30384200  1
  H  77  1  0.59901100  0.10582200  0.67876850  1
  H  78  1  0.55118700  0.89829600  0.44378300  1
  H  79  1  0.61828300  0.10131800  0.53808900  1
  N  56  1  0.06402550  0.45484100  0.85823200  1
  N  57  1  0.13255900  0.52034300  0.09229300  1
  N  80  1  0.80717800  0.85558400  0.54067700  1
  N  81  1  0.88265500  0.08423500  0.43627500  1
  O  58  1  0.11732000  0.53489700  0.16456400  1
  O  59  1  0.00862700  0.43932900  0.79332100  1
  O  60  1  0.18835400  0.44369200  0.85154800  1
  O  61  1  0.25406900  0.53025000  0.07460800  1
  O  82  1  0.86005700  0.15568300  0.42097000  1
  O  83  1  0.73848100  0.79514100  0.55593600  1
  O  84  1  0.92672800  0.84298800  0.56090600  1
  O  85  1  0.00002600  0.06764300  0.41460700  1
