# generated using pymatgen
data_H28C45(N4O)2
_symmetry_space_group_name_H-M   'P 1'
_cell_length_a   30.80390000
_cell_length_b   30.80390000
_cell_length_c   50.29980000
_cell_angle_alpha   90.00000000
_cell_angle_beta   90.00000000
_cell_angle_gamma   120.00000000
_symmetry_Int_Tables_number   1
_chemical_formula_structural   H28C45(N4O)2
_chemical_formula_sum   'H224 C360 N64 O16'
_cell_volume   41334.08227903
_cell_formula_units_Z   8
loop_
 _symmetry_equiv_pos_site_id
 _symmetry_equiv_pos_as_xyz
  1  'x, y, z'
loop_
 _atom_site_type_symbol
 _atom_site_label
 _atom_site_symmetry_multiplicity
 _atom_site_fract_x
 _atom_site_fract_y
 _atom_site_fract_z
 _atom_site_occupancy
  H  7  1  0.70385900  0.41834500  0.94586100  1
  H  8  1  0.70347000  0.29251800  0.91263000  1
  H  9  1  0.78763200  0.32466500  0.92669600  1
  H  10  1  0.78728500  0.44987200  0.96041800  1
  H  12  1  0.85410300  0.38060300  0.95857000  1
  H  19  1  0.81971900  0.39134000  0.54712200  1
  H  20  1  0.74072400  0.35813700  0.56787900  1
  H  21  1  0.75096300  0.36922000  0.47205400  1
  H  22  1  0.69302400  0.42298000  0.62184600  1
  H  23  1  0.69092700  0.40927000  0.57538200  1
  H  25  1  0.83905300  0.38752700  0.47707800  1
  H  29  1  0.90924200  0.50310300  0.00207800  1
  H  31  1  0.92111900  0.43144000  0.92134000  1
  H  39  1  0.95469500  0.44194400  0.52043200  1
  H  41  1  0.96553400  0.56184700  0.39942100  1
  H  43  1  0.68338500  0.42423100  0.84435600  1
  H  55  1  0.62817700  0.34183800  0.97375400  1
  H  56  1  0.65242400  0.26679400  0.95906500  1
  H  57  1  0.59965100  0.18258500  0.97200100  1
  H  58  1  0.61526200  0.25629500  0.87904500  1
  H  59  1  0.62131800  0.26866400  0.83262200  1
  H  60  1  0.67582200  0.41145400  0.89096600  1
  H  62  1  0.67024500  0.39155300  0.79959200  1
  H  76  1  0.67154700  0.33724200  0.49299400  1
  H  77  1  0.63315600  0.16685700  0.54897900  1
  H  78  1  0.66974600  0.25310400  0.55957100  1
  H  79  1  0.59747400  0.26794800  0.63399100  1
  H  80  1  0.67147500  0.41442400  0.51846000  1
  H  81  1  0.62256800  0.45141100  0.50738400  1
  H  83  1  0.66461800  0.39129400  0.66609600  1
  H  93  1  0.62798600  0.38204200  0.71002900  1
  H  94  1  0.62847400  0.38139400  0.75715200  1
  H  97  1  0.67109900  0.19234700  0.70736300  1
  H  98  1  0.65840400  0.25151500  0.68564700  1
  H  109  1  0.53489600  0.39995000  0.92196500  1
  H  110  1  0.57522100  0.36191200  0.90013400  1
  H  111  1  0.58696900  0.37900900  0.99575800  1
  H  112  1  0.48675000  0.17294900  0.92078800  1
  H  113  1  0.54033100  0.25707000  0.90726000  1
  H  115  1  0.46886100  0.10514800  0.95280100  1
  H  116  1  0.53962300  0.42171400  0.99431900  1
  H  118  1  0.45992000  0.80921200  0.42081300  1
  H  119  1  0.47784800  0.87703900  0.45281500  1
  H  121  1  0.44933300  0.64977500  0.04529900  1
  H  122  1  0.44527800  0.56747700  0.03353600  1
  H  129  1  0.56672800  0.26410900  0.50880900  1
  H  130  1  0.52923700  0.17776000  0.49883700  1
  H  131  1  0.59448100  0.25454200  0.58769800  1
  H  132  1  0.54603800  0.29446300  0.55553700  1
  H  133  1  0.49749700  0.33250300  0.54525700  1
  H  135  1  0.56291500  0.09133000  0.53043600  1
  H  137  1  0.50154400  0.41482700  0.53355500  1
  H  145  1  0.51257900  0.05659900  0.01085200  1
  H  146  1  0.46741200  0.97173900  0.02564900  1
  H  148  1  0.44572500  0.98302000  0.88683200  1
  H  149  1  0.48813100  0.04575100  0.91803100  1
  H  160  1  0.47657200  0.43699300  0.01063300  1
  H  161  1  0.43526800  0.48035700  0.02506800  1
  H  164  1  0.51397300  0.54328200  0.89226100  1
  H  165  1  0.52308200  0.49061800  0.92183500  1
  H  176  1  0.43424000  0.92571300  0.51087900  1
  H  177  1  0.47939200  0.01061500  0.52563100  1
  H  180  1  0.50088800  0.99908600  0.38681500  1
  H  181  1  0.45856500  0.93640500  0.41804600  1
  H  192  1  0.47027900  0.54535800  0.51059900  1
  H  193  1  0.51161900  0.50203200  0.52504000  1
  H  196  1  0.43232500  0.43852400  0.39235000  1
  H  224  1  0.41179000  0.58231800  0.42196000  1
  H  225  1  0.37142400  0.62032700  0.40014500  1
  H  226  1  0.35973600  0.60321400  0.49576800  1
  H  227  1  0.31846800  0.64034000  0.47377800  1
  H  228  1  0.29424700  0.71543100  0.45909600  1
  H  229  1  0.34705400  0.79964000  0.47203400  1
  H  230  1  0.40630600  0.72510500  0.40728600  1
  H  231  1  0.33136500  0.72591200  0.37907300  1
  H  232  1  0.32533600  0.71355900  0.33265000  1
  H  233  1  0.26325900  0.55799000  0.34437400  1
  H  234  1  0.27079500  0.57075500  0.39098400  1
  H  235  1  0.24274700  0.56385300  0.44587900  1
  H  236  1  0.24318500  0.68972400  0.41268800  1
  H  237  1  0.15902700  0.65759200  0.42675400  1
  H  238  1  0.15931400  0.53232600  0.46043200  1
  H  241  1  0.40744600  0.56099000  0.49432200  1
  H  243  1  0.27642200  0.59067800  0.29961000  1
  H  244  1  0.09253600  0.60165700  0.45859700  1
  H  270  1  0.12705700  0.59045700  0.04701900  1
  H  271  1  0.20604200  0.62396500  0.06783400  1
  H  272  1  0.19609100  0.61315200  0.97199200  1
  H  273  1  0.27548800  0.64535700  0.99298900  1
  H  274  1  0.38028500  0.71833000  0.00890100  1
  H  275  1  0.41784000  0.80470200  0.99898500  1
  H  276  1  0.31370100  0.81550100  0.04900100  1
  H  277  1  0.27705800  0.72923100  0.05954400  1
  H  278  1  0.35225900  0.72779300  0.08773800  1
  H  279  1  0.34917200  0.71435100  0.13402700  1
  H  280  1  0.25377200  0.55930800  0.12183400  1
  H  281  1  0.25596400  0.57305500  0.07537100  1
  H  282  1  0.27540300  0.56799100  0.01842800  1
  H  283  1  0.40081300  0.68782900  0.05559700  1
  H  284  1  0.32428300  0.53099300  0.00734100  1
  H  287  1  0.38388300  0.89102900  0.03048400  1
  H  288  1  0.10760400  0.59462000  0.97709500  1
  H  290  1  0.28191800  0.59098500  0.16618200  1
  H  301  1  0.31869800  0.60019300  0.21004500  1
  H  302  1  0.31820800  0.60083200  0.25717000  1
  H  305  1  0.27571400  0.78997100  0.20739100  1
  H  306  1  0.28836800  0.73077600  0.18567100  1
  H  320  1  0.99174100  0.54020700  0.02044800  1
  H  322  1  0.98111900  0.42044200  0.89941400  1
  H  325  1  0.42338700  0.49135500  0.42188100  1
  H  329  1  0.03724500  0.47908000  0.50211200  1
  H  331  1  0.02553900  0.55092200  0.42139400  1
  H  339  1  0.70385900  0.80790600  0.72717200  1
  H  340  1  0.70347000  0.68207900  0.69394100  1
  H  341  1  0.78763200  0.71422600  0.70800700  1
  H  342  1  0.78728500  0.83943310  0.74172900  1
  H  344  1  0.85410300  0.77016400  0.73988100  1
  H  351  1  0.81971900  0.78090100  0.32843300  1
  H  352  1  0.74072400  0.74769806  0.34919000  1
  H  353  1  0.75096300  0.75878106  0.25336500  1
  H  354  1  0.69302400  0.81254100  0.40315700  1
  H  355  1  0.69092700  0.79883100  0.35669300  1
  H  357  1  0.83905300  0.77708800  0.25838900  1
  H  361  1  0.90924200  0.89266400  0.78338900  1
  H  363  1  0.92111900  0.82100100  0.70265100  1
  H  371  1  0.95469500  0.83150500  0.30174300  1
  H  373  1  0.96553400  0.95140800  0.18073200  1
  H  375  1  0.68338500  0.81379200  0.62566700  1
  H  387  1  0.62817700  0.73139900  0.75506500  1
  H  388  1  0.65242400  0.65635506  0.74037600  1
  H  389  1  0.59965100  0.57214600  0.75331200  1
  H  390  1  0.61526200  0.64585610  0.66035600  1
  H  391  1  0.62131800  0.65822510  0.61393300  1
  H  392  1  0.67582200  0.80101500  0.67227700  1
  H  394  1  0.67024500  0.78111400  0.58090300  1
  H  408  1  0.67154700  0.72680310  0.27430500  1
  H  409  1  0.63315600  0.55641800  0.33029000  1
  H  410  1  0.66974600  0.64266500  0.34088200  1
  H  411  1  0.59747400  0.65750910  0.41530200  1
  H  412  1  0.67147500  0.80398500  0.29977100  1
  H  413  1  0.62256800  0.84097200  0.28869500  1
  H  415  1  0.66461800  0.78085500  0.44740700  1
  H  425  1  0.62798600  0.77160300  0.49134000  1
  H  426  1  0.62847400  0.77095500  0.53846300  1
  H  429  1  0.67109900  0.58190800  0.48867400  1
  H  430  1  0.65840400  0.64107600  0.46695800  1
  H  441  1  0.53489600  0.78951100  0.70327600  1
  H  442  1  0.57522100  0.75147300  0.68144500  1
  H  443  1  0.58696900  0.76857000  0.77706900  1
  H  444  1  0.48675000  0.56251010  0.70209900  1
  H  445  1  0.54033100  0.64663100  0.68857100  1
  H  447  1  0.46886100  0.49470910  0.73411200  1
  H  448  1  0.53962300  0.81127500  0.77563000  1
  H  450  1  0.45992000  0.19877300  0.20212400  1
  H  451  1  0.47784800  0.26660000  0.23412600  1
  H  453  1  0.44933300  0.03933600  0.82661000  1
  H  454  1  0.44527800  0.95703800  0.81484700  1
  H  461  1  0.56672800  0.65367010  0.29012000  1
  H  462  1  0.52923700  0.56732110  0.28014800  1
  H  463  1  0.59448100  0.64410310  0.36900900  1
  H  464  1  0.54603800  0.68402400  0.33684800  1
  H  465  1  0.49749700  0.72206400  0.32656800  1
  H  467  1  0.56291500  0.48089100  0.31174700  1
  H  469  1  0.50154400  0.80438800  0.31486600  1
  H  477  1  0.51257900  0.44616000  0.79216300  1
  H  478  1  0.46741200  0.36130000  0.80696000  1
  H  480  1  0.44572500  0.37258100  0.66814300  1
  H  481  1  0.48813100  0.43531200  0.69934200  1
  H  492  1  0.47657200  0.82655400  0.79194400  1
  H  493  1  0.43526800  0.86991800  0.80637900  1
  H  496  1  0.51397300  0.93284300  0.67357200  1
  H  497  1  0.52308200  0.88017900  0.70314600  1
  H  508  1  0.43424000  0.31527400  0.29219000  1
  H  509  1  0.47939200  0.40017600  0.30694200  1
  H  512  1  0.50088800  0.38864700  0.16812600  1
  H  513  1  0.45856500  0.32596600  0.19935700  1
  H  524  1  0.47027900  0.93491900  0.29191000  1
  H  525  1  0.51161900  0.89159300  0.30635100  1
  H  528  1  0.43232500  0.82808500  0.17366100  1
  H  556  1  0.41179000  0.97187900  0.20327100  1
  H  557  1  0.37142400  0.00988800  0.18145600  1
  H  558  1  0.35973600  0.99277500  0.27707900  1
  H  559  1  0.31846800  0.02990100  0.25508900  1
  H  560  1  0.29424700  0.10499200  0.24040700  1
  H  561  1  0.34705400  0.18920100  0.25334500  1
  H  562  1  0.40630600  0.11466600  0.18859700  1
  H  563  1  0.33136500  0.11547300  0.16038400  1
  H  564  1  0.32533600  0.10312000  0.11396100  1
  H  565  1  0.26325900  0.94755100  0.12568500  1
  H  566  1  0.27079500  0.96031600  0.17229500  1
  H  567  1  0.24274700  0.95341400  0.22719000  1
  H  568  1  0.24318500  0.07928500  0.19399900  1
  H  569  1  0.15902700  0.04715300  0.20806500  1
  H  570  1  0.15931400  0.92188700  0.24174300  1
  H  573  1  0.40744600  0.95055100  0.27563300  1
  H  575  1  0.27642200  0.98023900  0.08092100  1
  H  576  1  0.09253600  0.99121800  0.23990800  1
  H  602  1  0.12705700  0.98001800  0.82833000  1
  H  603  1  0.20604200  0.01352600  0.84914500  1
  H  604  1  0.19609100  0.00271300  0.75330300  1
  H  605  1  0.27548800  0.03491800  0.77430000  1
  H  606  1  0.38028500  0.10789100  0.79021200  1
  H  607  1  0.41784000  0.19426300  0.78029600  1
  H  608  1  0.31370100  0.20506200  0.83031200  1
  H  609  1  0.27705800  0.11879200  0.84085500  1
  H  610  1  0.35225900  0.11735400  0.86904900  1
  H  611  1  0.34917200  0.10391200  0.91533830  1
  H  612  1  0.25377200  0.94886900  0.90314530  1
  H  613  1  0.25596400  0.96261600  0.85668200  1
  H  614  1  0.27540300  0.95755200  0.79973900  1
  H  615  1  0.40081300  0.07739000  0.83690800  1
  H  616  1  0.32428300  0.92055400  0.78865200  1
  H  619  1  0.38388300  0.28059000  0.81179500  1
  H  620  1  0.10760400  0.98418100  0.75840600  1
  H  622  1  0.28191800  0.98054600  0.94749330  1
  H  633  1  0.31869800  0.98975400  0.99135626  1
  H  634  1  0.31820800  0.99039300  0.03848100  1
  H  637  1  0.27571400  0.17953200  0.98870230  1
  H  638  1  0.28836800  0.12033700  0.96698230  1
  H  652  1  0.99174100  0.92976800  0.80175900  1
  H  654  1  0.98111900  0.81000300  0.68072500  1
  H  657  1  0.42338700  0.88091600  0.20319200  1
  H  661  1  0.03724500  0.86864100  0.28342300  1
  H  663  1  0.02553900  0.94048300  0.20270500  1
  C  1  1  0.79591800  0.39009800  0.94558400  1
  C  2  1  0.77025800  0.34475400  0.93112900  1
  C  3  1  0.72029600  0.32572500  0.92281000  1
  C  4  1  0.69228900  0.34951600  0.92940200  1
  C  5  1  0.71994300  0.39693200  0.94217700  1
  C  6  1  0.77008300  0.41645800  0.95040800  1
  C  11  1  0.84423400  0.40636400  0.95509900  1
  C  13  1  0.69684200  0.34703300  0.53302600  1
  C  14  1  0.74172600  0.36237100  0.54773000  1
  C  15  1  0.78896200  0.38169500  0.53543600  1
  C  16  1  0.79382800  0.38556000  0.50749700  1
  C  17  1  0.74950300  0.36857700  0.49240600  1
  C  18  1  0.70246900  0.34962700  0.50488500  1
  C  24  1  0.83985400  0.40069000  0.49526900  1
  C  26  1  0.92412500  0.47232900  0.96797800  1
  C  27  1  0.96240300  0.46812800  0.95430100  1
  C  28  1  0.93607300  0.49930100  0.99205400  1
  C  33  1  0.93508600  0.49315200  0.46574600  1
  C  34  1  0.92372200  0.46564700  0.48997600  1
  C  35  1  0.96197300  0.46128100  0.50291100  1
  C  36  1  0.89976200  0.50124400  0.45173200  1
  C  38  1  0.95789700  0.54373600  0.41731600  1
  C  44  1  0.63696700  0.32581300  0.92098800  1
  C  45  1  0.64138500  0.33201900  0.89057900  1
  C  46  1  0.66358300  0.38061800  0.87902300  1
  C  47  1  0.66812300  0.38825800  0.85131700  1
  C  48  1  0.65201100  0.34765700  0.83338500  1
  C  49  1  0.63248200  0.29930100  0.84459600  1
  C  50  1  0.62809200  0.29195700  0.87236000  1
  C  51  1  0.60416200  0.27097400  0.93003600  1
  C  52  1  0.60982600  0.35077300  0.93414500  1
  C  53  1  0.60943300  0.35463100  0.96231400  1
  C  54  1  0.61860800  0.24740600  0.94970400  1
  C  61  1  0.65622100  0.35644700  0.80592800  1
  C  63  1  0.61379100  0.34818900  0.53684300  1
  C  64  1  0.63433800  0.39491600  0.52327900  1
  C  65  1  0.60550700  0.41746300  0.51689300  1
  C  66  1  0.64424400  0.32338500  0.54559100  1
  C  67  1  0.64553900  0.32986400  0.57602400  1
  C  68  1  0.67174600  0.37864900  0.58740600  1
  C  69  1  0.67305000  0.38685700  0.61501100  1
  C  70  1  0.64724000  0.34660100  0.63299900  1
  C  71  1  0.61874800  0.29808700  0.62196700  1
  C  72  1  0.61761300  0.29018600  0.59429900  1
  C  73  1  0.62054600  0.26820300  0.53689100  1
  C  74  1  0.61847500  0.18685000  0.54036000  1
  C  75  1  0.64016100  0.23810100  0.54662300  1
  C  82  1  0.64713600  0.35568400  0.66024700  1
  C  84  1  0.64365800  0.32289300  0.70453800  1
  C  85  1  0.65127400  0.28701000  0.71850000  1
  C  86  1  0.65165800  0.28670500  0.74703700  1
  C  87  1  0.64455900  0.32233900  0.76162700  1
  C  88  1  0.63559300  0.35655600  0.74731100  1
  C  89  1  0.63519600  0.35687500  0.71941300  1
  C  90  1  0.65973300  0.24985300  0.75938900  1
  C  92  1  0.66583500  0.21784700  0.71778600  1
  C  101  1  0.58019100  0.36688900  0.92019500  1
  C  102  1  0.55545400  0.38899400  0.93320000  1
  C  103  1  0.55811500  0.39535100  0.96113200  1
  C  104  1  0.58495900  0.37674800  0.97542400  1
  C  105  1  0.58696100  0.19735700  0.95779300  1
  C  106  1  0.53815100  0.16836200  0.94720600  1
  C  107  1  0.52211300  0.19199900  0.92870800  1
  C  108  1  0.55405500  0.24191500  0.92063900  1
  C  114  1  0.53367000  0.41653700  0.97485100  1
  C  117  1  0.50562300  0.11887200  0.95493800  1
  C  120  1  0.44108600  0.86333500  0.45494600  1
  C  123  1  0.55462800  0.39505400  0.52448300  1
  C  124  1  0.53394800  0.34962600  0.53884900  1
  C  125  1  0.56284700  0.32711400  0.54486700  1
  C  126  1  0.58087700  0.24442000  0.51811600  1
  C  127  1  0.55902100  0.19312300  0.51167200  1
  C  128  1  0.57683700  0.16298400  0.52305200  1
  C  134  1  0.52602400  0.41776400  0.51974000  1
  C  136  1  0.55330900  0.11128100  0.51876600  1
  C  138  1  0.49350200  0.04105000  0.97017200  1
  C  139  1  0.46760200  0.00167700  0.95143300  1
  C  140  1  0.44004600  0.95064800  0.96035700  1
  C  141  1  0.43887000  0.93910300  0.98787900  1
  C  142  1  0.46622800  0.97890700  0.00588700  1
  C  143  1  0.49314200  0.02889700  0.99718900  1
  C  144  1  0.44433500  0.97481900  0.90661800  1
  C  151  1  0.49398800  0.46773900  0.97167900  1
  C  152  1  0.48787800  0.50044900  0.95400700  1
  C  153  1  0.46268800  0.52646700  0.96275100  1
  C  154  1  0.44405200  0.52016500  0.98921900  1
  C  155  1  0.44975800  0.48689500  0.00623300  1
  C  156  1  0.47415900  0.46122900  0.99765900  1
  C  157  1  0.45810400  0.55832600  0.94393200  1
  C  159  1  0.50035500  0.53845500  0.91122400  1
  C  167  1  0.45328800  0.94118100  0.47019100  1
  C  168  1  0.47912900  0.98052800  0.45143000  1
  C  169  1  0.50667300  0.03157600  0.46032600  1
  C  170  1  0.50789800  0.04316900  0.48784500  1
  C  171  1  0.48056800  0.00340200  0.50587500  1
  C  172  1  0.45366400  0.95339100  0.49720300  1
  C  173  1  0.53186800  0.06861600  0.44044700  1
  C  175  1  0.50230500  0.00731800  0.40659800  1
  C  183  1  0.45269200  0.51444600  0.47168400  1
  C  184  1  0.45871000  0.48164600  0.45403600  1
  C  185  1  0.48391300  0.45564400  0.46278500  1
  C  186  1  0.50266900  0.46206300  0.48923300  1
  C  187  1  0.49705900  0.49542700  0.50621900  1
  C  188  1  0.47262600  0.52106000  0.49764400  1
  C  189  1  0.48838500  0.42367600  0.44399400  1
  C  191  1  0.44602700  0.44343500  0.41129800  1
  C  199  1  0.15070400  0.59212600  0.44562000  1
  C  200  1  0.17638600  0.63748100  0.43117300  1
  C  201  1  0.22633100  0.65648200  0.42283100  1
  C  202  1  0.25434200  0.63270200  0.42943700  1
  C  203  1  0.22666500  0.58526700  0.44219500  1
  C  204  1  0.17652200  0.56574200  0.45042200  1
  C  205  1  0.30966000  0.65638800  0.42101400  1
  C  206  1  0.30525400  0.65019000  0.39060400  1
  C  207  1  0.28303700  0.60159200  0.37904400  1
  C  208  1  0.27851600  0.59395800  0.35133600  1
  C  209  1  0.29464800  0.63456700  0.33340500  1
  C  210  1  0.31416100  0.68291600  0.34462200  1
  C  211  1  0.31853200  0.69025100  0.37238800  1
  C  212  1  0.34247600  0.71122900  0.43005600  1
  C  213  1  0.33678500  0.63140500  0.43416100  1
  C  214  1  0.36646300  0.61534300  0.42020700  1
  C  215  1  0.39121500  0.59324500  0.43320100  1
  C  216  1  0.38859200  0.58690300  0.46113300  1
  C  217  1  0.36173500  0.60548100  0.47543400  1
  C  218  1  0.33721500  0.62756000  0.46233000  1
  C  219  1  0.32806800  0.73480500  0.44973800  1
  C  220  1  0.35973900  0.78485100  0.45783100  1
  C  221  1  0.40854600  0.81383200  0.44723900  1
  C  222  1  0.42456000  0.79017600  0.42873800  1
  C  223  1  0.39259600  0.74026700  0.42066800  1
  C  239  1  0.41307200  0.56569400  0.47480900  1
  C  240  1  0.10238900  0.57588400  0.45513900  1
  C  242  1  0.29046400  0.62578500  0.30594800  1
  C  245  1  0.39221200  0.58728200  0.02448400  1
  C  246  1  0.41289200  0.63267800  0.03887900  1
  C  247  1  0.38400500  0.65520200  0.04490700  1
  C  248  1  0.33307600  0.63417300  0.03686200  1
  C  249  1  0.31253000  0.58747400  0.02326700  1
  C  250  1  0.34135000  0.56491900  0.01686900  1
  C  251  1  0.30263200  0.65898800  0.04560100  1
  C  252  1  0.30128200  0.65246800  0.07603500  1
  C  253  1  0.27508200  0.60367200  0.08740400  1
  C  254  1  0.27373100  0.59543900  0.11500900  1
  C  255  1  0.29946200  0.63568600  0.13300700  1
  C  256  1  0.32792800  0.68421800  0.12199300  1
  C  257  1  0.32913200  0.69213500  0.09432500  1
  C  258  1  0.32634600  0.71417900  0.03691700  1
  C  259  1  0.25006300  0.63535800  0.03300300  1
  C  260  1  0.20511600  0.61983400  0.04768300  1
  C  261  1  0.15788200  0.60029000  0.03535700  1
  C  262  1  0.15313400  0.59657700  0.00741400  1
  C  263  1  0.19751300  0.61382000  0.99234700  1
  C  264  1  0.24452500  0.63287900  0.00485700  1
  C  265  1  0.36608800  0.73799500  0.01818400  1
  C  266  1  0.38795100  0.78929800  0.01175400  1
  C  267  1  0.37009300  0.81941400  0.02311800  1
  C  268  1  0.32838900  0.79551500  0.04038000  1
  C  269  1  0.30668500  0.74425400  0.04662100  1
  C  285  1  0.10709800  0.58088200  0.99511000  1
  C  286  1  0.42082100  0.56458700  0.01971600  1
  C  289  1  0.29945700  0.62654400  0.16024600  1
  C  291  1  0.39376200  0.87115200  0.01893700  1
  C  292  1  0.30306500  0.65936700  0.20456000  1
  C  293  1  0.29547400  0.69526500  0.21852200  1
  C  294  1  0.29509200  0.69556900  0.24706100  1
  C  295  1  0.30217000  0.65991800  0.26165000  1
  C  296  1  0.31108000  0.62566500  0.24733100  1
  C  297  1  0.31150300  0.62536700  0.21943300  1
  C  298  1  0.28704500  0.73243700  0.25941300  1
  C  300  1  0.28096200  0.76445800  0.21781200  1
  C  309  1  0.41480200  0.91357700  0.94049800  1
  C  314  1  0.01149200  0.48911400  0.96575000  1
  C  315  1  0.02279900  0.51659600  0.98999100  1
  C  316  1  0.98451400  0.52091000  0.00291300  1
  C  317  1  0.04679300  0.48092800  0.95177300  1
  C  319  1  0.98873500  0.43854300  0.91731000  1
  C  326  1  0.02245600  0.50995200  0.46802000  1
  C  327  1  0.98420400  0.51418200  0.45433000  1
  C  328  1  0.01044600  0.48292900  0.49208400  1
  C  333  1  0.79591800  0.77965900  0.72689500  1
  C  334  1  0.77025800  0.73431500  0.71244000  1
  C  335  1  0.72029600  0.71528600  0.70412100  1
  C  336  1  0.69228900  0.73907710  0.71071300  1
  C  337  1  0.71994300  0.78649310  0.72348800  1
  C  338  1  0.77008300  0.80601910  0.73171900  1
  C  343  1  0.84423400  0.79592500  0.73641000  1
  C  345  1  0.69684200  0.73659410  0.31433700  1
  C  346  1  0.74172600  0.75193210  0.32904100  1
  C  347  1  0.78896200  0.77125600  0.31674700  1
  C  348  1  0.79382800  0.77512100  0.28880800  1
  C  349  1  0.74950300  0.75813806  0.27371700  1
  C  350  1  0.70246900  0.73918810  0.28619600  1
  C  356  1  0.83985400  0.79025100  0.27658000  1
  C  358  1  0.92412500  0.86189000  0.74928900  1
  C  359  1  0.96240300  0.85768900  0.73561200  1
  C  360  1  0.93607300  0.88886200  0.77336500  1
  C  365  1  0.93508600  0.88271300  0.24705700  1
  C  366  1  0.92372200  0.85520800  0.27128700  1
  C  367  1  0.96197300  0.85084200  0.28422200  1
  C  368  1  0.89976200  0.89080500  0.23304300  1
  C  370  1  0.95789700  0.93329700  0.19862700  1
  C  376  1  0.63696700  0.71537410  0.70229900  1
  C  377  1  0.64138500  0.72158010  0.67189000  1
  C  378  1  0.66358300  0.77017900  0.66033400  1
  C  379  1  0.66812300  0.77781900  0.63262800  1
  C  380  1  0.65201100  0.73721810  0.61469600  1
  C  381  1  0.63248200  0.68886210  0.62590700  1
  C  382  1  0.62809200  0.68151810  0.65367100  1
  C  383  1  0.60416200  0.66053510  0.71134700  1
  C  384  1  0.60982600  0.74033400  0.71545600  1
  C  385  1  0.60943300  0.74419200  0.74362500  1
  C  386  1  0.61860800  0.63696710  0.73101500  1
  C  393  1  0.65622100  0.74600810  0.58723900  1
  C  395  1  0.61379100  0.73775000  0.31815400  1
  C  396  1  0.63433800  0.78447700  0.30459000  1
  C  397  1  0.60550700  0.80702400  0.29820400  1
  C  398  1  0.64424400  0.71294610  0.32690200  1
  C  399  1  0.64553900  0.71942510  0.35733500  1
  C  400  1  0.67174600  0.76821010  0.36871700  1
  C  401  1  0.67305000  0.77641800  0.39632200  1
  C  402  1  0.64724000  0.73616210  0.41431000  1
  C  403  1  0.61874800  0.68764810  0.40327800  1
  C  404  1  0.61761300  0.67974710  0.37561000  1
  C  405  1  0.62054600  0.65776410  0.31820200  1
  C  406  1  0.61847500  0.57641100  0.32167100  1
  C  407  1  0.64016100  0.62766200  0.32793400  1
  C  414  1  0.64713600  0.74524510  0.44155800  1
  C  416  1  0.64365800  0.71245410  0.48584900  1
  C  417  1  0.65127400  0.67657110  0.49981100  1
  C  418  1  0.65165800  0.67626610  0.52834800  1
  C  419  1  0.64455900  0.71190010  0.54293800  1
  C  420  1  0.63559300  0.74611700  0.52862200  1
  C  421  1  0.63519600  0.74643600  0.50072400  1
  C  422  1  0.65973300  0.63941400  0.54070000  1
  C  424  1  0.66583500  0.60740800  0.49909700  1
  C  433  1  0.58019100  0.75645000  0.70150600  1
  C  434  1  0.55545400  0.77855500  0.71451100  1
  C  435  1  0.55811500  0.78491200  0.74244300  1
  C  436  1  0.58495900  0.76630900  0.75673500  1
  C  437  1  0.58696100  0.58691800  0.73910400  1
  C  438  1  0.53815100  0.55792310  0.72851700  1
  C  439  1  0.52211300  0.58156010  0.71001900  1
  C  440  1  0.55405500  0.63147610  0.70195000  1
  C  446  1  0.53367000  0.80609800  0.75616200  1
  C  449  1  0.50562300  0.50843306  0.73624900  1
  C  452  1  0.44108600  0.25289600  0.23625700  1
  C  455  1  0.55462800  0.78461500  0.30579400  1
  C  456  1  0.53394800  0.73918700  0.32016000  1
  C  457  1  0.56284700  0.71667500  0.32617800  1
  C  458  1  0.58087700  0.63398110  0.29942700  1
  C  459  1  0.55902100  0.58268410  0.29298300  1
  C  460  1  0.57683700  0.55254500  0.30436300  1
  C  466  1  0.52602400  0.80732500  0.30105100  1
  C  468  1  0.55330900  0.50084200  0.30007700  1
  C  470  1  0.49350200  0.43061100  0.75148300  1
  C  471  1  0.46760200  0.39123800  0.73274400  1
  C  472  1  0.44004600  0.34020900  0.74166800  1
  C  473  1  0.43887000  0.32866400  0.76919000  1
  C  474  1  0.46622800  0.36846800  0.78719800  1
  C  475  1  0.49314200  0.41845800  0.77850000  1
  C  476  1  0.44433500  0.36438000  0.68792900  1
  C  483  1  0.49398800  0.85730000  0.75299000  1
  C  484  1  0.48787800  0.89001000  0.73531800  1
  C  485  1  0.46268800  0.91602800  0.74406200  1
  C  486  1  0.44405200  0.90972600  0.77053000  1
  C  487  1  0.44975800  0.87645600  0.78754400  1
  C  488  1  0.47415900  0.85079000  0.77897000  1
  C  489  1  0.45810400  0.94788700  0.72524300  1
  C  491  1  0.50035500  0.92801600  0.69253500  1
  C  499  1  0.45328800  0.33074200  0.25150200  1
  C  500  1  0.47912900  0.37008900  0.23274100  1
  C  501  1  0.50667300  0.42113700  0.24163700  1
  C  502  1  0.50789800  0.43273000  0.26915600  1
  C  503  1  0.48056800  0.39296300  0.28718600  1
  C  504  1  0.45366400  0.34295200  0.27851400  1
  C  505  1  0.53186800  0.45817700  0.22175800  1
  C  507  1  0.50230500  0.39687900  0.18790900  1
  C  515  1  0.45269200  0.90400700  0.25299500  1
  C  516  1  0.45871000  0.87120700  0.23534700  1
  C  517  1  0.48391300  0.84520500  0.24409600  1
  C  518  1  0.50266900  0.85162400  0.27054400  1
  C  519  1  0.49705900  0.88498800  0.28753000  1
  C  520  1  0.47262600  0.91062100  0.27895500  1
  C  521  1  0.48838500  0.81323700  0.22530500  1
  C  523  1  0.44602700  0.83299600  0.19260900  1
  C  531  1  0.15070400  0.98168700  0.22693100  1
  C  532  1  0.17638600  0.02704200  0.21248400  1
  C  533  1  0.22633100  0.04604300  0.20414200  1
  C  534  1  0.25434200  0.02226300  0.21074800  1
  C  535  1  0.22666500  0.97482800  0.22350600  1
  C  536  1  0.17652200  0.95530300  0.23173300  1
  C  537  1  0.30966000  0.04594900  0.20232500  1
  C  538  1  0.30525400  0.03975100  0.17191500  1
  C  539  1  0.28303700  0.99115300  0.16035500  1
  C  540  1  0.27851600  0.98351900  0.13264700  1
  C  541  1  0.29464800  0.02412800  0.11471600  1
  C  542  1  0.31416100  0.07247700  0.12593300  1
  C  543  1  0.31853200  0.07981200  0.15369900  1
  C  544  1  0.34247600  0.10079000  0.21136700  1
  C  545  1  0.33678500  0.02096600  0.21547200  1
  C  546  1  0.36646300  0.00490400  0.20151800  1
  C  547  1  0.39121500  0.98280600  0.21451200  1
  C  548  1  0.38859200  0.97646400  0.24244400  1
  C  549  1  0.36173500  0.99504200  0.25674500  1
  C  550  1  0.33721500  0.01712100  0.24364100  1
  C  551  1  0.32806800  0.12436600  0.23104900  1
  C  552  1  0.35973900  0.17441200  0.23914200  1
  C  553  1  0.40854600  0.20339300  0.22855000  1
  C  554  1  0.42456000  0.17973700  0.21004900  1
  C  555  1  0.39259600  0.12982800  0.20197900  1
  C  571  1  0.41307200  0.95525500  0.25612000  1
  C  572  1  0.10238900  0.96544500  0.23645000  1
  C  574  1  0.29046400  0.01534600  0.08725900  1
  C  577  1  0.39221200  0.97684300  0.80579500  1
  C  578  1  0.41289200  0.02223900  0.82019000  1
  C  579  1  0.38400500  0.04476300  0.82621800  1
  C  580  1  0.33307600  0.02373400  0.81817300  1
  C  581  1  0.31253000  0.97703500  0.80457800  1
  C  582  1  0.34135000  0.95448000  0.79818000  1
  C  583  1  0.30263200  0.04854900  0.82691200  1
  C  584  1  0.30128200  0.04202900  0.85734600  1
  C  585  1  0.27508200  0.99323300  0.86871500  1
  C  586  1  0.27373100  0.98500000  0.89632000  1
  C  587  1  0.29946200  0.02524700  0.91431830  1
  C  588  1  0.32792800  0.07377900  0.90330430  1
  C  589  1  0.32913200  0.08169600  0.87563600  1
  C  590  1  0.32634600  0.10374000  0.81822800  1
  C  591  1  0.25006300  0.02491900  0.81431400  1
  C  592  1  0.20511600  0.00939500  0.82899400  1
  C  593  1  0.15788200  0.98985100  0.81666800  1
  C  594  1  0.15313400  0.98613800  0.78872500  1
  C  595  1  0.19751300  0.00338100  0.77365800  1
  C  596  1  0.24452500  0.02244000  0.78616800  1
  C  597  1  0.36608800  0.12755600  0.79949500  1
  C  598  1  0.38795100  0.17885900  0.79306500  1
  C  599  1  0.37009300  0.20897500  0.80442900  1
  C  600  1  0.32838900  0.18507600  0.82169100  1
  C  601  1  0.30668500  0.13381500  0.82793200  1
  C  617  1  0.10709800  0.97044300  0.77642100  1
  C  618  1  0.42082100  0.95414800  0.80102700  1
  C  621  1  0.29945700  0.01610500  0.94155730  1
  C  623  1  0.39376200  0.26071300  0.80024800  1
  C  624  1  0.30306500  0.04892800  0.98587130  1
  C  625  1  0.29547400  0.08482600  0.99983326  1
  C  626  1  0.29509200  0.08513000  0.02837200  1
  C  627  1  0.30217000  0.04947900  0.04296100  1
  C  628  1  0.31108000  0.01522600  0.02864200  1
  C  629  1  0.31150300  0.01492800  0.00074400  1
  C  630  1  0.28704500  0.12199800  0.04072400  1
  C  632  1  0.28096200  0.15401900  0.99912326  1
  C  641  1  0.41480200  0.30313800  0.72180900  1
  C  646  1  0.01149200  0.87867500  0.74706100  1
  C  647  1  0.02279900  0.90615700  0.77130200  1
  C  648  1  0.98451400  0.91047100  0.78422400  1
  C  649  1  0.04679300  0.87048900  0.73308400  1
  C  651  1  0.98873500  0.82810400  0.69862100  1
  C  658  1  0.02245600  0.89951300  0.24933100  1
  C  659  1  0.98420400  0.90374300  0.23564100  1
  C  660  1  0.01044600  0.87249000  0.27339500  1
  N  30  1  0.95334100  0.44445100  0.93016400  1
  N  32  1  0.87690400  0.45279500  0.95926400  1
  N  37  1  0.91209500  0.52598800  0.42826800  1
  N  42  1  0.87862800  0.44364000  0.50158900  1
  N  91  1  0.66645100  0.21702000  0.74460200  1
  N  96  1  0.65844200  0.25236700  0.70500100  1
  N  99  1  0.64298200  0.32273800  0.67782800  1
  N  100  1  0.64364500  0.32175100  0.78831300  1
  N  147  1  0.46899700  0.01166800  0.92478100  1
  N  150  1  0.52101400  0.08935100  0.96335000  1
  N  158  1  0.47681800  0.56327100  0.91909500  1
  N  163  1  0.50576900  0.50761500  0.92844100  1
  N  166  1  0.51683400  0.44289200  0.96309300  1
  N  174  1  0.52897500  0.05553100  0.41456900  1
  N  179  1  0.47769300  0.97049700  0.42478100  1
  N  182  1  0.53210700  0.09092700  0.49623900  1
  N  190  1  0.46956500  0.41862400  0.41917500  1
  N  195  1  0.44071300  0.47437200  0.42848900  1
  N  197  1  0.42985700  0.53928800  0.46308400  1
  N  198  1  0.52784800  0.43954500  0.49756500  1
  N  299  1  0.28035000  0.76528600  0.24462600  1
  N  304  1  0.28833000  0.72992500  0.20502700  1
  N  307  1  0.30373900  0.65952300  0.17785000  1
  N  308  1  0.30306400  0.66049000  0.28833600  1
  N  310  1  0.41765800  0.92662200  0.91461400  1
  N  312  1  0.41457200  0.89136200  0.99630700  1
  N  313  1  0.41892400  0.54273300  0.99755500  1
  N  318  1  0.03448900  0.45619800  0.92830500  1
  N  323  1  0.06780100  0.53855200  0.00169600  1
  N  324  1  0.42573800  0.89287600  0.46338400  1
  N  330  1  0.99329900  0.53788900  0.43020100  1
  N  332  1  0.06968900  0.52946400  0.45931800  1
  N  362  1  0.95334100  0.83401200  0.71147500  1
  N  364  1  0.87690400  0.84235600  0.74057500  1
  N  369  1  0.91209500  0.91554906  0.20957900  1
  N  374  1  0.87862800  0.83320100  0.28290000  1
  N  423  1  0.66645100  0.60658100  0.52591300  1
  N  428  1  0.65844200  0.64192800  0.48631200  1
  N  431  1  0.64298200  0.71229910  0.45913900  1
  N  432  1  0.64364500  0.71131210  0.56962400  1
  N  479  1  0.46899700  0.40122900  0.70609200  1
  N  482  1  0.52101400  0.47891200  0.74466100  1
  N  490  1  0.47681800  0.95283200  0.70040600  1
  N  495  1  0.50576900  0.89717600  0.70975200  1
  N  498  1  0.51683400  0.83245300  0.74440400  1
  N  506  1  0.52897500  0.44509200  0.19588000  1
  N  511  1  0.47769300  0.36005800  0.20609200  1
  N  514  1  0.53210700  0.48048800  0.27755000  1
  N  522  1  0.46956500  0.80818500  0.20048600  1
  N  527  1  0.44071300  0.86393300  0.20980000  1
  N  529  1  0.42985700  0.92884900  0.24439500  1
  N  530  1  0.52784800  0.82910600  0.27887600  1
  N  631  1  0.28035000  0.15484700  0.02593700  1
  N  636  1  0.28833000  0.11948600  0.98633830  1
  N  639  1  0.30373900  0.04908400  0.95916130  1
  N  640  1  0.30306400  0.05005100  0.06964700  1
  N  642  1  0.41765800  0.31618300  0.69592500  1
  N  644  1  0.41457200  0.28092300  0.77761800  1
  N  645  1  0.41892400  0.93229400  0.77886600  1
  N  650  1  0.03448900  0.84575900  0.70961600  1
  N  655  1  0.06780100  0.92811300  0.78300700  1
  N  656  1  0.42573800  0.28243700  0.24469500  1
  N  662  1  0.99329900  0.92745000  0.21151200  1
  N  664  1  0.06968900  0.91902500  0.24062900  1
  O  40  1  0.85298800  0.48636600  0.46066600  1
  O  95  1  0.66152200  0.24486100  0.78601500  1
  O  162  1  0.43569600  0.58556400  0.94918900  1
  O  178  1  0.55986700  0.11824400  0.44559300  1
  O  194  1  0.51078100  0.39643000  0.44926100  1
  O  303  1  0.28525700  0.73742700  0.28603900  1
  O  311  1  0.38680400  0.86396100  0.94566700  1
  O  321  1  0.09348600  0.49559700  0.96076300  1
  O  372  1  0.85298800  0.87592710  0.24197700  1
  O  427  1  0.66152200  0.63442200  0.56732600  1
  O  494  1  0.43569600  0.97512500  0.73050000  1
  O  510  1  0.55986700  0.50780500  0.22690400  1
  O  526  1  0.51078100  0.78599100  0.23057200  1
  O  635  1  0.28525700  0.12698800  0.06735000  1
  O  643  1  0.38680400  0.25352200  0.72697800  1
  O  653  1  0.09348600  0.88515800  0.74207400  1
