# generated using pymatgen
data_V4H24(C15O7)3
_symmetry_space_group_name_H-M   'P 1'
_cell_length_a   6.94558000
_cell_length_b   13.63535000
_cell_length_c   20.40606000
_cell_angle_alpha   77.84885000
_cell_angle_beta   89.91770000
_cell_angle_gamma   89.31190000
_symmetry_Int_Tables_number   1
_chemical_formula_structural   V4H24(C15O7)3
_chemical_formula_sum   'V4 H24 C45 O21'
_cell_volume   1889.12921803
_cell_formula_units_Z   1
loop_
 _symmetry_equiv_pos_site_id
 _symmetry_equiv_pos_as_xyz
  1  'x, y, z'
loop_
 _atom_site_type_symbol
 _atom_site_label
 _atom_site_symmetry_multiplicity
 _atom_site_fract_x
 _atom_site_fract_y
 _atom_site_fract_z
 _atom_site_occupancy
  V  V0  1  0.93532000  0.51180000  0.49778000  1
  V  V1  1  0.43599000  0.48820000  0.50222000  1
  V  V2  1  0.35183000  0.98820000  0.00222000  1
  V  V3  1  0.85119000  0.01193000  0.99782000  1
  H  H4  1  0.15852000  0.16413000  0.48212000  1
  H  H5  1  0.16656000  0.98272000  0.30190000  1
  H  H6  1  0.14204000  0.39083000  0.30516000  1
  H  H7  1  0.11997000  0.33469000  0.01823000  1
  H  H8  1  0.12526000  0.43003000  0.20234000  1
  H  H9  1  0.11662000  0.46806000  0.08233000  1
  H  H10  1  0.15580000  0.02771000  0.18351000  1
  H  H11  1  0.85740000  0.31739000  0.69302000  1
  H  H12  1  0.29646000  0.28749000  0.70051000  1
  H  H13  1  0.84340000  0.20144000  0.80259000  1
  H  H14  1  0.28557000  0.20172000  0.80124000  1
  H  H15  1  0.93284000  0.82179000  0.19855000  1
  H  H16  1  0.49803000  0.78561000  0.19806000  1
  H  H17  1  0.93824000  0.70400000  0.30755000  1
  H  H18  1  0.49590000  0.70291000  0.29969000  1
  H  H19  1  0.59715000  0.83738000  0.51981000  1
  H  H20  1  0.56829000  0.01226000  0.69598000  1
  H  H21  1  0.57026000  0.96526000  0.58773000  1
  H  H22  1  0.67945000  0.60784000  0.69509000  1
  H  H23  1  0.68584000  0.66666667  0.98252000  1
  H  H24  1  0.69397000  0.56955000  0.79876000  1
  H  H25  1  0.71404000  0.53316000  0.91894000  1
  H  H26  1  0.58990000  0.97008000  0.81654000  1
  H  H27  1  0.09283000  0.94225000  0.40555000  1
  C  C28  1  0.65095000  0.61611000  0.38656000  1
  C  C29  1  0.65294000  0.63810000  0.56462000  1
  C  C30  1  0.16021000  0.38406000  0.61346000  1
  C  C31  1  0.15752000  0.36203000  0.43522000  1
  C  C32  1  0.15102000  0.10769000  0.39068000  1
  C  C33  1  0.15133000  0.28404000  0.39587000  1
  C  C34  1  0.12619000  0.31480000  0.07248000  1
  C  C35  1  0.12393000  0.39036000  0.10864000  1
  C  C36  1  0.12942000  0.36685000  0.17845000  1
  C  C37  1  0.13829000  0.26573000  0.21442000  1
  C  C38  1  0.14172000  0.18881000  0.17680000  1
  C  C39  1  0.14290000  0.23864000  0.28620000  1
  C  C40  1  0.14819000  0.13508000  0.31921000  1
  C  C41  1  0.15490000  0.06177000  0.28000000  1
  C  C42  1  0.15089000  0.08799000  0.21060000  1
  C  C43  1  0.14400000  0.31152000  0.32624000  1
  C  C44  1  0.15522000  0.18334000  0.42779000  1
  C  C45  1  0.13528000  0.21433000  0.10576000  1
  C  C46  1  0.99459000  0.28877000  0.71498000  1
  C  C47  1  0.15779000  0.31565000  0.68023000  1
  C  C48  1  0.98626000  0.22066000  0.78260000  1
  C  C49  1  0.14143000  0.18330000  0.81964000  1
  C  C50  1  0.79531000  0.79126000  0.21782000  1
  C  C51  1  0.63638000  0.81576000  0.18010000  1
  C  C52  1  0.79705000  0.72276000  0.28533000  1
  C  C53  1  0.63897000  0.68448000  0.31984000  1
  C  C54  1  0.59422000  0.88766000  0.61262000  1
  C  C55  1  0.64106000  0.71493000  0.60470000  1
  C  C56  1  0.67519000  0.68569000  0.92833000  1
  C  C57  1  0.69151000  0.61002000  0.89247000  1
  C  C58  1  0.67975000  0.63241000  0.82274000  1
  C  C59  1  0.65081000  0.73237000  0.78674000  1
  C  C60  1  0.63305000  0.80960000  0.82396000  1
  C  C61  1  0.63896000  0.75826000  0.71520000  1
  C  C62  1  0.60830000  0.86030000  0.68277000  1
  C  C63  1  0.59140000  0.93438000  0.72042000  1
  C  C64  1  0.60382000  0.90967000  0.78982000  1
  C  C65  1  0.65596000  0.68652000  0.67447000  1
  C  C66  1  0.60976000  0.81526000  0.57385000  1
  C  C67  1  0.64581000  0.78511000  0.89486000  1
  C  C68  1  0.63396000  0.86233000  0.93498000  1
  C  C69  1  0.63561000  0.88425000  0.11350000  1
  C  C70  1  0.12973000  0.13742000  0.06526000  1
  C  C71  1  0.12750000  0.11571000  0.88647000  1
  C  C72  1  0.14528000  0.00154000  0.42841000  1
  O  O73  1  0.49314000  0.59939000  0.55076000  1
  O  O74  1  0.81978000  0.59460000  0.41322000  1
  O  O75  1  0.99550000  0.40061000  0.44924000  1
  O  O76  1  0.82251000  0.61129000  0.54803000  1
  O  O77  1  0.99825000  0.41742000  0.58501000  1
  O  O78  1  0.49039000  0.58258000  0.41499000  1
  O  O79  1  0.66258000  0.43637000  0.51198000  1
  O  O80  1  0.32829000  0.40540000  0.58678000  1
  O  O81  1  0.32556000  0.38871000  0.45197000  1
  O  O82  1  0.15886000  0.56363000  0.48802000  1
  O  O83  1  0.79677000  0.91731000  0.08498000  1
  O  O84  1  0.46450000  0.88869000  0.95196000  1
  O  O85  1  0.28892000  0.08261000  0.91500000  1
  O  O86  1  0.46737000  0.90537000  0.08677000  1
  O  O87  1  0.29181000  0.09941000  0.05077000  1
  O  O88  1  0.79388000  0.90051000  0.94921000  1
  O  O89  1  0.62464000  0.06357000  0.98801000  1
  O  O90  1  0.96176000  0.11139000  0.04806000  1
  O  O91  1  0.95888000  0.09471000  0.91325000  1
  O  O92  1  0.12825000  0.93643000  0.01199000  1
  O  O93  1  0.19643000  0.97894000  0.48697000  1
