# generated using pymatgen
data_AgH8C11N2O
_symmetry_space_group_name_H-M   'P 1'
_cell_length_a   8.64071000
_cell_length_b   18.08250286
_cell_length_c   18.17936000
_cell_angle_alpha   117.43756436
_cell_angle_beta   99.14854000
_cell_angle_gamma   97.86967400
_symmetry_Int_Tables_number   1
_chemical_formula_structural   AgH8C11N2O
_chemical_formula_sum   'Ag6 H48 C66 N12 O6'
_cell_volume   2416.20263331
_cell_formula_units_Z   6
loop_
 _symmetry_equiv_pos_site_id
 _symmetry_equiv_pos_as_xyz
  1  'x, y, z'
loop_
 _atom_site_type_symbol
 _atom_site_label
 _atom_site_symmetry_multiplicity
 _atom_site_fract_x
 _atom_site_fract_y
 _atom_site_fract_z
 _atom_site_occupancy
  Ag  Ag0  1  0.32804000  0.96022000  0.49849000  1
  Ag  Ag1  1  0.36620000  0.54069000  0.04209000  1
  Ag  Ag2  1  0.82796000  0.50358000  0.46030000  1
  Ag  Ag3  1  0.67248000  0.03970000  0.50141000  1
  Ag  Ag4  1  0.63414000  0.45922000  0.95815000  1
  Ag  Ag5  1  0.17227000  0.49638000  0.53969000  1
  H  H6  1  0.05999000  0.96950000  0.36515000  1
  H  H7  1  0.92946000  0.08229000  0.36036000  1
  H  H8  1  0.99882000  0.22947000  0.49270000  1
  H  H9  1  0.30893000  0.13425000  0.62021000  1
  H  H10  1  0.07466000  0.17260000  0.69691000  1
  H  H11  1  0.17268000  0.18425000  0.84090000  1
  H  H12  1  0.40195000  0.30608000  0.94983000  1
  H  H13  1  0.43549000  0.40404000  0.78326000  1
  H  H14  1  0.11129000  0.39679000  0.03727000  1
  H  H15  1  0.87724000  0.27871000  0.92871000  1
  H  H16  1  0.79107000  0.26486000  0.78205000  1
  H  H17  1  0.16783000  0.49063000  0.87037000  1
  H  H18  1  0.91145000  0.53098000  0.83661000  1
  H  H19  1  0.99894000  0.66102000  0.82193000  1
  H  H20  1  0.10562000  0.64325000  0.69602000  1
  H  H21  1  0.02239000  0.37853000  0.59704000  1
  H  H22  1  0.72323000  0.64338000  0.61094000  1
  H  H23  1  0.61247000  0.65175000  0.73243000  1
  H  H24  1  0.53388000  0.51619000  0.74117000  1
  H  H25  1  0.66776000  0.37949000  0.50445000  1
  H  H26  1  0.37419000  0.30633000  0.46813000  1
  H  H27  1  0.31923000  0.15789000  0.34037000  1
  H  H28  1  0.44036000  0.04758000  0.35728000  1
  H  H29  1  0.65073000  0.21899000  0.61701000  1
  H  H30  1  0.94000000  0.03050000  0.63493000  1
  H  H31  1  0.07075000  0.91775000  0.63967000  1
  H  H32  1  0.00179000  0.77067000  0.50731000  1
  H  H33  1  0.69163000  0.86588000  0.37978000  1
  H  H34  1  0.92569000  0.82732000  0.30314000  1
  H  H35  1  0.82707000  0.81589000  0.15935000  1
  H  H36  1  0.59769000  0.69408000  0.05041000  1
  H  H37  1  0.56576000  0.59555000  0.21665000  1
  H  H38  1  0.88863000  0.60310000  0.96287000  1
  H  H39  1  0.12259000  0.72131000  0.07136000  1
  H  H40  1  0.20938000  0.73511000  0.21794000  1
  H  H41  1  0.83281000  0.50932000  0.12985000  1
  H  H42  1  0.08884000  0.46907000  0.16347000  1
  H  H43  1  0.00068000  0.33891000  0.17789000  1
  H  H44  1  0.89433000  0.35675000  0.30393000  1
  H  H45  1  0.97888000  0.62157000  0.40330000  1
  H  H46  1  0.27647000  0.35643000  0.38889000  1
  H  H47  1  0.38715000  0.34793000  0.26735000  1
  H  H48  1  0.46645000  0.48346000  0.25867000  1
  H  H49  1  0.33301000  0.62044000  0.49548000  1
  H  H50  1  0.62647000  0.69357000  0.53187000  1
  H  H51  1  0.68152000  0.84205000  0.65952000  1
  H  H52  1  0.56039000  0.95230000  0.64261000  1
  H  H53  1  0.35023000  0.78089000  0.38285000  1
  C  C54  1  0.08603000  0.03314000  0.42063000  1
  C  C55  1  0.01371000  0.09653000  0.41912000  1
  C  C56  1  0.05009000  0.17765000  0.49213000  1
  C  C57  1  0.15767000  0.19223000  0.56721000  1
  C  C58  1  0.22270000  0.12464000  0.56423000  1
  C  C59  1  0.22045000  0.27921000  0.64311000  1
  C  C60  1  0.25662000  0.28534000  0.72759000  1
  C  C61  1  0.17773000  0.22291000  0.74487000  1
  C  C62  1  0.23107000  0.23050000  0.82525000  1
  C  C63  1  0.35634000  0.29863000  0.88704000  1
  C  C64  1  0.37611000  0.35479000  0.79470000  1
  C  C65  1  0.06949000  0.38937000  0.97413000  1
  C  C66  1  0.93902000  0.32391000  0.91281000  1
  C  C67  1  0.89004000  0.31626000  0.83223000  1
  C  C68  1  0.97067000  0.37863000  0.81569000  1
  C  C69  1  0.09860000  0.44354000  0.88149000  1
  C  C70  1  0.93956000  0.36767000  0.72892000  1
  C  C71  1  0.97300000  0.44499000  0.72093000  1
  C  C72  1  0.96061000  0.52631000  0.78365000  1
  C  C73  1  0.00766000  0.59796000  0.77487000  1
  C  C74  1  0.06381000  0.58882000  0.70428000  1
  C  C75  1  0.01890000  0.44008000  0.64848000  1
  C  C76  1  0.68487000  0.58652000  0.61597000  1
  C  C77  1  0.62261000  0.59001000  0.68327000  1
  C  C78  1  0.57835000  0.51574000  0.68833000  1
  C  C79  1  0.59112000  0.43666000  0.62185000  1
  C  C80  1  0.65084000  0.43814000  0.55522000  1
  C  C81  1  0.56955000  0.35883000  0.62975000  1
  C  C82  1  0.52416000  0.27419000  0.55122000  1
  C  C83  1  0.42695000  0.25678000  0.47230000  1
  C  C84  1  0.39604000  0.17442000  0.40187000  1
  C  C85  1  0.46123000  0.11206000  0.41065000  1
  C  C86  1  0.57792000  0.20680000  0.55638000  1
  C  C87  1  0.91437000  0.96695000  0.57938000  1
  C  C88  1  0.98673000  0.90357000  0.58087000  1
  C  C89  1  0.95042000  0.82246000  0.50788000  1
  C  C90  1  0.84264000  0.80781000  0.43283000  1
  C  C91  1  0.77776000  0.87543000  0.43577000  1
  C  C92  1  0.77962000  0.72074000  0.35707000  1
  C  C93  1  0.74374000  0.71455000  0.27255000  1
  C  C94  1  0.82257000  0.77702000  0.25526000  1
  C  C95  1  0.76908000  0.76950000  0.17493000  1
  C  C96  1  0.64380000  0.70136000  0.11308000  1
  C  C97  1  0.62460000  0.64499000  0.20532000  1
  C  C98  1  0.93062000  0.61051000  0.02599000  1
  C  C99  1  0.06109000  0.67602000  0.08725000  1
  C  C100  1  0.11038000  0.68369000  0.16782000  1
  C  C101  1  0.03006000  0.62129000  0.18442000  1
  C  C102  1  0.90199000  0.55641000  0.11871000  1
  C  C103  1  0.06138000  0.63239000  0.27125000  1
  C  C104  1  0.02775000  0.55507000  0.27928000  1
  C  C105  1  0.03973000  0.47370000  0.21643000  1
  C  C106  1  0.99244000  0.40202000  0.22511000  1
  C  C107  1  0.93641000  0.41120000  0.29577000  1
  C  C108  1  0.98193000  0.55999000  0.35175000  1
  C  C109  1  0.31531000  0.41331000  0.38397000  1
  C  C110  1  0.37739000  0.40973000  0.31659000  1
  C  C111  1  0.42198000  0.48400000  0.31155000  1
  C  C112  1  0.40942000  0.56312000  0.37805000  1
  C  C113  1  0.34969000  0.56171000  0.44471000  1
  C  C114  1  0.43072000  0.64099000  0.37016000  1
  C  C115  1  0.47651000  0.72566000  0.44870000  1
  C  C116  1  0.57377000  0.74310000  0.52762000  1
  C  C117  1  0.60473000  0.82549000  0.59801000  1
  C  C118  1  0.53959000  0.88786000  0.58921000  1
  C  C119  1  0.42294000  0.79308000  0.44351000  1
  N  N120  1  0.19137000  0.04677000  0.49318000  1
  N  N121  1  0.42848000  0.36138000  0.87179000  1
  N  N122  1  0.14966000  0.44955000  0.95852000  1
  N  N123  1  0.06849000  0.50992000  0.64110000  1
  N  N124  1  0.69938000  0.51048000  0.55177000  1
  N  N125  1  0.55238000  0.12791000  0.48747000  1
  N  N126  1  0.80923000  0.95332000  0.50678000  1
  N  N127  1  0.57215000  0.63846000  0.12827000  1
  N  N128  1  0.85066000  0.55039000  0.04170000  1
  N  N129  1  0.93206000  0.49011000  0.35903000  1
  N  N130  1  0.30102000  0.48939000  0.44821000  1
  N  N131  1  0.44847000  0.87200000  0.51238000  1
  O  O132  1  0.24166000  0.34322000  0.63205000  1
  O  O133  1  0.88719000  0.29348000  0.66457000  1
  O  O134  1  0.59664000  0.36468000  0.70226000  1
  O  O135  1  0.75799000  0.65693000  0.36837000  1
  O  O136  1  0.11345000  0.70668000  0.33543000  1
  O  O137  1  0.40292000  0.63514000  0.29764000  1
