# generated using pymatgen
data_Mn2MoH4(C6N5)2
_symmetry_space_group_name_H-M   'P 1'
_cell_length_a   7.37730000
_cell_length_b   9.99149000
_cell_length_c   13.16556000
_cell_angle_alpha   90.04093000
_cell_angle_beta   90.00638000
_cell_angle_gamma   85.92953000
_symmetry_Int_Tables_number   1
_chemical_formula_structural   Mn2MoH4(C6N5)2
_chemical_formula_sum   'Mn4 Mo2 H8 C24 N20'
_cell_volume   967.98813874
_cell_formula_units_Z   2
loop_
 _symmetry_equiv_pos_site_id
 _symmetry_equiv_pos_as_xyz
  1  'x, y, z'
loop_
 _atom_site_type_symbol
 _atom_site_label
 _atom_site_symmetry_multiplicity
 _atom_site_fract_x
 _atom_site_fract_y
 _atom_site_fract_z
 _atom_site_occupancy
  Mn  Mn0  1  0.50284000  0.57016000  0.56123000  1
  Mn  Mn1  1  0.97368000  0.86130000  0.92114000  1
  Mn  Mn2  1  0.49897000  0.43029000  0.06202000  1
  Mn  Mn3  1  0.02603000  0.14032000  0.42133000  1
  Mo  Mo4  1  0.03549000  0.35642000  0.78471000  1
  Mo  Mo5  1  0.96628000  0.64505000  0.28505000  1
  H  H6  1  0.28391000  0.06945000  0.92432000  1
  H  H7  1  0.62296000  0.07082000  0.91375000  1
  H  H8  1  0.66496000  0.65386000  0.89846000  1
  H  H9  1  0.32385000  0.65300000  0.89983000  1
  H  H10  1  0.71695000  0.93192000  0.42374000  1
  H  H11  1  0.37791000  0.93066000  0.41337000  1
  H  H12  1  0.33612000  0.34774000  0.39990000  1
  H  H13  1  0.67737000  0.34837000  0.40095000  1
  C  C14  1  0.29365000  0.24626000  0.76140000  1
  C  C15  1  0.00368000  0.56292000  0.82558000  1
  C  C16  1  0.20237000  0.48079000  0.70213000  1
  C  C17  1  0.80773000  0.41493000  0.69196000  1
  C  C18  1  0.80625000  0.38042000  0.88736000  1
  C  C19  1  0.19212000  0.35450000  0.92078000  1
  C  C20  1  0.97694000  0.16012000  0.83163000  1
  C  C21  1  0.02796000  0.24995000  0.64595000  1
  C  C22  1  0.36788000  0.97609000  0.91845000  1
  C  C23  1  0.55709000  0.97688000  0.91461000  1
  C  C24  1  0.57940000  0.74668000  0.90414000  1
  C  C25  1  0.39094000  0.74610000  0.90569000  1
  C  C26  1  0.70788000  0.75422000  0.26134000  1
  C  C27  1  0.99753000  0.43902000  0.32686000  1
  C  C28  1  0.79954000  0.52012000  0.20279000  1
  C  C29  1  0.19417000  0.58623000  0.19265000  1
  C  C30  1  0.19617000  0.62159000  0.38709000  1
  C  C31  1  0.81012000  0.64783000  0.42159000  1
  C  C32  1  0.02451000  0.84195000  0.33082000  1
  C  C33  1  0.97319000  0.75029000  0.14571000  1
  C  C34  1  0.63293000  0.02529000  0.41827000  1
  C  C35  1  0.44373000  0.02461000  0.41450000  1
  C  C36  1  0.42157000  0.25484000  0.40508000  1
  C  C37  1  0.61002000  0.25537000  0.40651000  1
  N  N38  1  0.43394000  0.18640000  0.74634000  1
  N  N39  1  0.98882000  0.67644000  0.84962000  1
  N  N40  1  0.30113000  0.55259000  0.66235000  1
  N  N41  1  0.68337000  0.44519000  0.63849000  1
  N  N42  1  0.68116000  0.40574000  0.94118000  1
  N  N43  1  0.29132000  0.34397000  0.99114000  1
  N  N44  1  0.95524000  0.05197000  0.86247000  1
  N  N45  1  0.02641000  0.18789000  0.57013000  1
  N  N46  1  0.28448000  0.86124000  0.91232000  1
  N  N47  1  0.66272000  0.86236000  0.90718000  1
  N  N48  1  0.56720000  0.81346000  0.24591000  1
  N  N49  1  0.01201000  0.32569000  0.35132000  1
  N  N50  1  0.70073000  0.44814000  0.16320000  1
  N  N51  1  0.31882000  0.55590000  0.13937000  1
  N  N52  1  0.32213000  0.59611000  0.44025000  1
  N  N53  1  0.71096000  0.65853000  0.49197000  1
  N  N54  1  0.04596000  0.95070000  0.36068000  1
  N  N55  1  0.97407000  0.81173000  0.06964000  1
  N  N56  1  0.71634000  0.14015000  0.41252000  1
  N  N57  1  0.33815000  0.13922000  0.40778000  1
