# generated using pymatgen
data_LaH24C44S4(NO3)4
_symmetry_space_group_name_H-M   'P 1'
_cell_length_a   10.18044000
_cell_length_b   15.47594000
_cell_length_c   15.47594000
_cell_angle_alpha   90.00000000
_cell_angle_beta   90.00000000
_cell_angle_gamma   90.00000000
_symmetry_Int_Tables_number   1
_chemical_formula_structural   LaH24C44S4(NO3)4
_chemical_formula_sum   'La2 H48 C88 S8 N8 O24'
_cell_volume   2438.26342031
_cell_formula_units_Z   2
loop_
 _symmetry_equiv_pos_site_id
 _symmetry_equiv_pos_as_xyz
  1  'x, y, z'
loop_
 _atom_site_type_symbol
 _atom_site_label
 _atom_site_symmetry_multiplicity
 _atom_site_fract_x
 _atom_site_fract_y
 _atom_site_fract_z
 _atom_site_occupancy
  La  La0  1  0.25000000  0.50000000  0.50000000  1
  La  La1  1  0.75000000  0.50000000  0.50000000  1
  H  H2  1  0.78776000  0.41421000  0.74009000  1
  H  H3  1  0.78821000  0.27894000  0.82589000  1
  H  H4  1  0.78776000  0.58579000  0.25991000  1
  H  H5  1  0.78821000  0.72106000  0.17411000  1
  H  H6  1  0.78791000  0.25998000  0.41439000  1
  H  H7  1  0.78806000  0.17364000  0.27945000  1
  H  H8  1  0.78791000  0.74002000  0.58561000  1
  H  H9  1  0.78806000  0.82636000  0.72055000  1
  H  H10  1  0.71209000  0.58561000  0.74002000  1
  H  H11  1  0.71194000  0.72055000  0.82636000  1
  H  H12  1  0.71209000  0.41439000  0.25998000  1
  H  H13  1  0.71194000  0.27945000  0.17364000  1
  H  H14  1  0.71224000  0.74009000  0.41421000  1
  H  H15  1  0.71179000  0.82589000  0.27894000  1
  H  H16  1  0.71224000  0.25991000  0.58579000  1
  H  H17  1  0.71179000  0.17411000  0.72106000  1
  H  H18  1  0.21209000  0.58561000  0.25998000  1
  H  H19  1  0.21194000  0.72055000  0.17364000  1
  H  H20  1  0.21209000  0.41439000  0.74002000  1
  H  H21  1  0.21194000  0.27945000  0.82636000  1
  H  H22  1  0.21224000  0.74009000  0.58579000  1
  H  H23  1  0.21179000  0.82589000  0.72106000  1
  H  H24  1  0.21224000  0.25991000  0.41421000  1
  H  H25  1  0.21179000  0.17411000  0.27894000  1
  H  H26  1  0.28776000  0.41421000  0.25991000  1
  H  H27  1  0.28821000  0.27894000  0.17411000  1
  H  H28  1  0.28776000  0.58579000  0.74009000  1
  H  H29  1  0.28821000  0.72106000  0.82589000  1
  H  H30  1  0.28791000  0.25998000  0.58561000  1
  H  H31  1  0.28806000  0.17364000  0.72055000  1
  H  H32  1  0.28791000  0.74002000  0.41439000  1
  H  H33  1  0.28806000  0.82636000  0.27945000  1
  H  H34  1  0.99972000  0.34255000  0.98993000  1
  H  H35  1  0.99606000  0.30440000  0.16021000  1
  H  H36  1  0.99972000  0.65745000  0.01007000  1
  H  H37  1  0.99606000  0.69560000  0.83979000  1
  H  H38  1  0.00028000  0.01007000  0.34255000  1
  H  H39  1  0.00394000  0.83979000  0.30440000  1
  H  H40  1  0.00028000  0.98993000  0.65745000  1
  H  H41  1  0.00394000  0.16021000  0.69561000  1
  H  H42  1  0.49972000  0.65745000  0.98993000  1
  H  H43  1  0.49607000  0.69560000  0.16021000  1
  H  H44  1  0.49972000  0.34255000  0.01007000  1
  H  H45  1  0.49607000  0.30440000  0.83979000  1
  H  H46  1  0.50028000  0.98993000  0.34255000  1
  H  H47  1  0.50393000  0.16021000  0.30440000  1
  H  H48  1  0.50028000  0.01007000  0.65745000  1
  H  H49  1  0.50393000  0.83979000  0.69560000  1
  C  C50  1  0.88051000  0.38543000  0.75982000  1
  C  C51  1  0.88090000  0.30866000  0.80730000  1
  C  C52  1  0.88051000  0.61457000  0.24018000  1
  C  C53  1  0.88090000  0.69134000  0.19270000  1
  C  C54  1  0.88053000  0.24012000  0.38556000  1
  C  C55  1  0.88075000  0.19230000  0.30905000  1
  C  C56  1  0.88053000  0.75988000  0.61444000  1
  C  C57  1  0.88075000  0.80770000  0.69095000  1
  C  C58  1  0.61947000  0.61444000  0.75988000  1
  C  C59  1  0.61925000  0.69095000  0.80770000  1
  C  C60  1  0.61947000  0.38556000  0.24012000  1
  C  C61  1  0.61925000  0.30905000  0.19230000  1
  C  C62  1  0.61949000  0.75982000  0.38543000  1
  C  C63  1  0.61910000  0.80730000  0.30866000  1
  C  C64  1  0.61949000  0.24018000  0.61457000  1
  C  C65  1  0.61910000  0.19270000  0.69134000  1
  C  C66  1  0.11947000  0.61444000  0.24012000  1
  C  C67  1  0.11925000  0.69095000  0.19230000  1
  C  C68  1  0.11947000  0.38556000  0.75988000  1
  C  C69  1  0.11925000  0.30905000  0.80770000  1
  C  C70  1  0.11949000  0.75982000  0.61457000  1
  C  C71  1  0.11910000  0.80730000  0.69134000  1
  C  C72  1  0.11949000  0.24018000  0.38543000  1
  C  C73  1  0.11910000  0.19270000  0.30866000  1
  C  C74  1  0.38051000  0.38543000  0.24018000  1
  C  C75  1  0.38089000  0.30866000  0.19270000  1
  C  C76  1  0.38051000  0.61457000  0.75982000  1
  C  C77  1  0.38089000  0.69134000  0.80730000  1
  C  C78  1  0.38053000  0.24012000  0.61444000  1
  C  C79  1  0.38075000  0.19230000  0.69095000  1
  C  C80  1  0.38053000  0.75988000  0.38556000  1
  C  C81  1  0.38075000  0.80770000  0.30905000  1
  C  C82  1  0.99995000  0.42375000  0.73690000  1
  C  C83  1  0.00016000  0.27016000  0.83145000  1
  C  C84  1  0.00059000  0.18810000  0.88185000  1
  C  C85  1  0.00406000  0.19573000  0.97429000  1
  C  C86  1  0.00116000  0.27942000  0.02022000  1
  C  C87  1  0.99838000  0.26009000  0.10577000  1
  C  C88  1  0.00184000  0.16503000  0.11063000  1
  C  C89  1  0.99995000  0.57626000  0.26310000  1
  C  C90  1  0.00016000  0.72984000  0.16855000  1
  C  C91  1  0.00059000  0.81190000  0.11815000  1
  C  C92  1  0.00406000  0.80427000  0.02571000  1
  C  C93  1  0.00116000  0.72058000  0.97978000  1
  C  C94  1  0.99838000  0.73991000  0.89423000  1
  C  C95  1  0.00184000  0.83497000  0.88937000  1
  C  C96  1  0.00005000  0.26310000  0.42375000  1
  C  C97  1  0.99984000  0.16855000  0.27016000  1
  C  C98  1  0.99941000  0.11815000  0.18810000  1
  C  C99  1  0.99594000  0.02571000  0.19573000  1
  C  C100  1  0.99884000  0.97978000  0.27942000  1
  C  C101  1  0.00162000  0.89423000  0.26009000  1
  C  C102  1  0.99816000  0.88937000  0.16503000  1
  C  C103  1  0.00005000  0.73690000  0.57626000  1
  C  C104  1  0.99984000  0.83145000  0.72984000  1
  C  C105  1  0.99941000  0.88185000  0.81190000  1
  C  C106  1  0.99594000  0.97429000  0.80427000  1
  C  C107  1  0.99884000  0.02022000  0.72058000  1
  C  C108  1  0.00162000  0.10577000  0.73991000  1
  C  C109  1  0.99816000  0.11063000  0.83497000  1
  C  C110  1  0.49995000  0.57626000  0.73690000  1
  C  C111  1  0.50016000  0.72984000  0.83145000  1
  C  C112  1  0.50059000  0.81190000  0.88185000  1
  C  C113  1  0.50406000  0.80427000  0.97429000  1
  C  C114  1  0.50116000  0.72058000  0.02022000  1
  C  C115  1  0.49838000  0.73991000  0.10577000  1
  C  C116  1  0.50184000  0.83497000  0.11063000  1
  C  C117  1  0.49995000  0.42375000  0.26310000  1
  C  C118  1  0.50016000  0.27016000  0.16855000  1
  C  C119  1  0.50059000  0.18810000  0.11815000  1
  C  C120  1  0.50406000  0.19573000  0.02571000  1
  C  C121  1  0.50116000  0.27942000  0.97978000  1
  C  C122  1  0.49838000  0.26009000  0.89423000  1
  C  C123  1  0.50184000  0.16503000  0.88937000  1
  C  C124  1  0.50005000  0.73690000  0.42375000  1
  C  C125  1  0.49984000  0.83145000  0.27016000  1
  C  C126  1  0.49941000  0.88185000  0.18810000  1
  C  C127  1  0.49594000  0.97429000  0.19573000  1
  C  C128  1  0.49884000  0.02022000  0.27942000  1
  C  C129  1  0.50162000  0.10577000  0.26009000  1
  C  C130  1  0.49816000  0.11063000  0.16503000  1
  C  C131  1  0.50005000  0.26310000  0.57626000  1
  C  C132  1  0.49984000  0.16855000  0.72984000  1
  C  C133  1  0.49941000  0.11815000  0.81190000  1
  C  C134  1  0.49594000  0.02571000  0.80427000  1
  C  C135  1  0.49884000  0.97978000  0.72058000  1
  C  C136  1  0.50162000  0.89423000  0.73991000  1
  C  C137  1  0.49816000  0.88937000  0.83497000  1
  S  S138  1  0.99994000  0.52773000  0.68685000  1
  S  S139  1  0.99994000  0.47227000  0.31315000  1
  S  S140  1  0.00006000  0.31315000  0.52773000  1
  S  S141  1  0.00006000  0.68685000  0.47227000  1
  S  S142  1  0.49994000  0.47227000  0.68685000  1
  S  S143  1  0.49994000  0.52773000  0.31315000  1
  S  S144  1  0.50006000  0.68685000  0.52773000  1
  S  S145  1  0.50006000  0.31315000  0.47228000  1
  N  N146  1  0.00802000  0.12849000  0.02944000  1
  N  N147  1  0.00802000  0.87151000  0.97056000  1
  N  N148  1  0.99198000  0.97056000  0.12849000  1
  N  N149  1  0.99198000  0.02944000  0.87151000  1
  N  N150  1  0.50800000  0.87151000  0.02944000  1
  N  N151  1  0.50800000  0.12849000  0.97056000  1
  N  N152  1  0.49200000  0.02944000  0.12849000  1
  N  N153  1  0.49200000  0.97056000  0.87151000  1
  O  O154  1  0.12064000  0.53265000  0.63266000  1
  O  O155  1  0.12064000  0.46735000  0.36734000  1
  O  O156  1  0.12071000  0.36739000  0.53266000  1
  O  O157  1  0.12071000  0.63261000  0.46734000  1
  O  O158  1  0.37929000  0.46734000  0.63261000  1
  O  O159  1  0.37929000  0.53266000  0.36739000  1
  O  O160  1  0.37936000  0.63266000  0.53265000  1
  O  O161  1  0.37936000  0.36734000  0.46735000  1
  O  O162  1  0.87929000  0.46734000  0.36739000  1
  O  O163  1  0.87929000  0.53266000  0.63261000  1
  O  O164  1  0.87936000  0.63266000  0.46735000  1
  O  O165  1  0.87936000  0.36734000  0.53265000  1
  O  O166  1  0.62064000  0.53265000  0.36734000  1
  O  O167  1  0.62064000  0.46735000  0.63266000  1
  O  O168  1  0.62071000  0.36739000  0.46734000  1
  O  O169  1  0.62071000  0.63261000  0.53266000  1
  O  O170  1  0.00000000  0.58952000  0.75819000  1
  O  O171  1  0.00000000  0.41048000  0.24181000  1
  O  O172  1  0.00000000  0.24181000  0.58952000  1
  O  O173  1  0.00000000  0.75819000  0.41048000  1
  O  O174  1  0.50000000  0.41048000  0.75819000  1
  O  O175  1  0.50000000  0.58952000  0.24181000  1
  O  O176  1  0.50000000  0.75819000  0.58952000  1
  O  O177  1  0.50000000  0.24181000  0.41048000  1
