# generated using pymatgen
data_ZnH5C8NO4
_symmetry_space_group_name_H-M   'P 1'
_cell_length_a   20.07357291
_cell_length_b   20.07350211
_cell_length_c   20.08081726
_cell_angle_alpha   105.81381515
_cell_angle_beta   105.81435235
_cell_angle_gamma   105.81349853
_symmetry_Int_Tables_number   1
_chemical_formula_structural   ZnH5C8NO4
_chemical_formula_sum   'Zn18 H90 C144 N18 O72'
_cell_volume   6945.19481369
_cell_formula_units_Z   18
loop_
 _symmetry_equiv_pos_site_id
 _symmetry_equiv_pos_as_xyz
  1  'x, y, z'
loop_
 _atom_site_type_symbol
 _atom_site_label
 _atom_site_symmetry_multiplicity
 _atom_site_fract_x
 _atom_site_fract_y
 _atom_site_fract_z
 _atom_site_occupancy
  C  C1  1  0.18730000  0.86275667  0.19700333  1.0
  C  C2  1  0.12372333  0.79822000  0.13118667  1.0
  C  C3  1  0.47521333  0.37244000  0.96201667  1.0
  C  C4  1  0.53079333  0.39709667  0.92729000  1.0
  C  C5  1  0.95378000  0.37046333  0.53943667  1.0
  C  C6  1  0.81573000  0.78965667  0.95984333  1.0
  C  C7  1  0.98399333  0.34305667  0.48082000  1.0
  C  C8  1  0.61016667  0.37158000  0.86133333  1.0
  C  C9  1  0.85894000  0.35472000  0.59198000  1.0
  C  C10  1  0.61415333  0.49289333  0.90532333  1.0
  C  C11  1  0.62465667  0.78181667  0.93723667  1.0
  C  C12  1  0.79105333  0.64830667  0.90475000  1.0
  C  C13  1  0.07568333  0.70609333  0.00653333  1.0
  C  C14  1  0.69690000  0.77430667  0.94444333  1.0
  C  C15  1  0.99681000  0.70929333  0.07204667  1.0
  C  C16  1  0.76764000  0.82813333  0.97092667  1.0
  C  C17  1  0.77170667  0.71450333  0.92748000  1.0
  C  C18  1  0.05305667  0.76915000  0.13369333  1.0
  C  C19  1  0.55520667  0.34588333  0.88802000  1.0
  C  C20  1  0.56058000  0.47171667  0.93526333  1.0
  C  C21  1  0.96504667  0.46320000  0.65137333  1.0
  C  C22  1  0.99496667  0.43952667  0.59860667  1.0
  C  C23  1  0.88424667  0.32763333  0.53616000  1.0
  C  C24  1  0.13454333  0.76601333  0.06578333  1.0
  C  C25  1  0.86250667  0.19717667  0.18745667  1.0
  C  C26  1  0.79818000  0.13127000  0.12375000  1.0
  C  C27  1  0.37253333  0.96186333  0.47518333  1.0
  C  C28  1  0.39728000  0.92722000  0.53080000  1.0
  C  C29  1  0.37052333  0.53951667  0.95368000  1.0
  C  C30  1  0.78962000  0.95981000  0.81585000  1.0
  C  C31  1  0.34309000  0.48088667  0.98390333  1.0
  C  C32  1  0.37175667  0.86141333  0.61027000  1.0
  C  C33  1  0.35467667  0.59216667  0.85894667  1.0
  C  C34  1  0.49306000  0.90539667  0.61427333  1.0
  C  C35  1  0.78187000  0.93706333  0.62485667  1.0
  C  C36  1  0.64828000  0.90460333  0.79117667  1.0
  C  C37  1  0.70606333  0.00656000  0.07567667  1.0
  C  C38  1  0.77436667  0.94442000  0.69709333  1.0
  C  C39  1  0.70935000  0.07211667  0.99685333  1.0
  C  C40  1  0.82815333  0.97098333  0.76784333  1.0
  C  C41  1  0.71447333  0.92738000  0.77179667  1.0
  C  C42  1  0.76922667  0.13375667  0.05308667  1.0
  C  C43  1  0.34605333  0.88798667  0.55523000  1.0
  C  C44  1  0.47189667  0.93524000  0.56061333  1.0
  C  C45  1  0.46316333  0.65161000  0.96501667  1.0
  C  C46  1  0.43956000  0.59874667  0.99485333  1.0
  C  C47  1  0.32767667  0.53625333  0.88419000  1.0
  C  C48  1  0.76597333  0.06582000  0.13452667  1.0
  C  C49  1  0.19715333  0.18720667  0.86275000  1.0
  C  C50  1  0.13129333  0.12359667  0.79832000  1.0
  C  C51  1  0.96192667  0.47504000  0.37226333  1.0
  C  C52  1  0.92723333  0.53066667  0.39694000  1.0
  C  C53  1  0.53955000  0.95377000  0.37060000  1.0
  C  C54  1  0.95948333  0.81560000  0.78923667  1.0
  C  C55  1  0.48086667  0.98395333  0.34315000  1.0
  C  C56  1  0.86134667  0.61012000  0.37149333  1.0
  C  C57  1  0.59225000  0.85902667  0.35496333  1.0
  C  C58  1  0.90536667  0.61407000  0.49274333  1.0
  C  C59  1  0.93716000  0.62483000  0.78188000  1.0
  C  C60  1  0.90439000  0.79100333  0.64809667  1.0
  C  C61  1  0.00666000  0.07570667  0.70615333  1.0
  C  C62  1  0.94416000  0.69687667  0.77408333  1.0
  C  C63  1  0.07214000  0.99676333  0.70928667  1.0
  C  C64  1  0.97076000  0.76765333  0.82779667  1.0
  C  C65  1  0.92690000  0.77145667  0.71415333  1.0
  C  C66  1  0.13374667  0.05291667  0.76924667  1.0
  C  C67  1  0.88797667  0.55511333  0.34577000  1.0
  C  C68  1  0.93523333  0.56044000  0.47153667  1.0
  C  C69  1  0.65154000  0.96509000  0.46340000  1.0
  C  C70  1  0.59871667  0.99495667  0.43966667  1.0
  C  C71  1  0.53638667  0.88428333  0.32782000  1.0
  C  C72  1  0.06591667  0.13449000  0.76611333  1.0
  C  C73  1  0.36275667  0.68730000  0.69700333  1.0
  C  C74  1  0.29821667  0.62371667  0.63118667  1.0
  C  C75  1  0.87244000  0.97521333  0.46201667  1.0
  C  C76  1  0.89709667  0.03080000  0.42728333  1.0
  C  C77  1  0.87046000  0.45378333  0.03943667  1.0
  C  C78  1  0.28965000  0.31573667  0.45984333  1.0
  C  C79  1  0.84305667  0.48399333  0.98082000  1.0
  C  C80  1  0.87158000  0.11017000  0.36133000  1.0
  C  C81  1  0.85472000  0.35894667  0.09197333  1.0
  C  C82  1  0.99289000  0.11415333  0.40532667  1.0
  C  C83  1  0.28182000  0.12466000  0.43724000  1.0
  C  C84  1  0.14830333  0.29105667  0.40475000  1.0
  C  C85  1  0.20609333  0.57568333  0.50653333  1.0
  C  C86  1  0.27430667  0.19690333  0.44444000  1.0
  C  C87  1  0.20929000  0.49681000  0.57205000  1.0
  C  C88  1  0.32813000  0.26764333  0.47092667  1.0
  C  C89  1  0.21450000  0.27170667  0.42748333  1.0
  C  C90  1  0.26915333  0.55306333  0.63368333  1.0
  C  C91  1  0.84588333  0.05521000  0.38801667  1.0
  C  C92  1  0.97171667  0.06058333  0.43526000  1.0
  C  C93  1  0.96319333  0.46504667  0.15138000  1.0
  C  C94  1  0.93952333  0.49496667  0.09861000  1.0
  C  C95  1  0.82763333  0.38425000  0.03615667  1.0
  C  C96  1  0.26601333  0.63454667  0.56578000  1.0
  C  C97  1  0.69717333  0.36251000  0.68744667  1.0
  C  C98  1  0.63126667  0.29818333  0.62375000  1.0
  C  C99  1  0.46186333  0.87253333  0.97518333  1.0
  C  C100  1  0.42722000  0.89728333  0.03079667  1.0
  C  C101  1  0.03951667  0.87052000  0.45368333  1.0
  C  C102  1  0.45981000  0.28962000  0.31585000  1.0
  C  C103  1  0.98088667  0.84309000  0.48390333  1.0
  C  C104  1  0.36141000  0.87175667  0.11027333  1.0
  C  C105  1  0.09216667  0.85467667  0.35895667  1.0
  C  C106  1  0.40539333  0.99306000  0.11427667  1.0
  C  C107  1  0.43706000  0.28187000  0.12486000  1.0
  C  C108  1  0.40460333  0.14828000  0.29117667  1.0
  C  C109  1  0.50655667  0.20606667  0.57567667  1.0
  C  C110  1  0.44442000  0.27436667  0.19709333  1.0
  C  C111  1  0.57211667  0.20935000  0.49685333  1.0
  C  C112  1  0.47098000  0.32815667  0.26784333  1.0
  C  C113  1  0.42737333  0.21447667  0.27180000  1.0
  C  C114  1  0.63375667  0.26922667  0.55308667  1.0
  C  C115  1  0.38798333  0.84605667  0.05523000  1.0
  C  C116  1  0.43524000  0.97189667  0.06061333  1.0
  C  C117  1  0.15160667  0.96316333  0.46502000  1.0
  C  C118  1  0.09874333  0.93956000  0.49485667  1.0
  C  C119  1  0.03625333  0.82767667  0.38419000  1.0
  C  C120  1  0.56582000  0.26597333  0.63452667  1.0
  C  C121  1  0.68720333  0.69715333  0.36275333  1.0
  C  C122  1  0.62360000  0.63129667  0.29831333  1.0
  C  C123  1  0.97504000  0.46193333  0.87225667  1.0
  C  C124  1  0.03066667  0.42723333  0.89694000  1.0
  C  C125  1  0.45377000  0.03955000  0.87060000  1.0
  C  C126  1  0.31560000  0.45948333  0.28923667  1.0
  C  C127  1  0.48395333  0.98087000  0.84314667  1.0
  C  C128  1  0.11011667  0.36135000  0.87149333  1.0
  C  C129  1  0.35902333  0.09225000  0.85496667  1.0
  C  C130  1  0.11406333  0.40536667  0.99275000  1.0
  C  C131  1  0.12483000  0.43716000  0.28188000  1.0
  C  C132  1  0.29100333  0.40439333  0.14809333  1.0
  C  C133  1  0.57570667  0.50666000  0.20615333  1.0
  C  C134  1  0.19687333  0.44416000  0.27408667  1.0
  C  C135  1  0.49676000  0.57213667  0.20928333  1.0
  C  C136  1  0.26765333  0.47076333  0.32779333  1.0
  C  C137  1  0.27145333  0.42690000  0.21415667  1.0
  C  C138  1  0.55291333  0.63375000  0.26924667  1.0
  C  C139  1  0.05511000  0.38797667  0.84577333  1.0
  C  C140  1  0.06044000  0.43524000  0.97153000  1.0
  C  C141  1  0.46509000  0.15154333  0.96339667  1.0
  C  C142  1  0.49495333  0.09871333  0.93966333  1.0
  C  C143  1  0.38428333  0.03639000  0.82781667  1.0
  C  C144  1  0.63448667  0.56591667  0.26611667  1.0
  H  H1  1  0.87524333  0.81239000  0.97281667  1.0
  H  H2  1  0.63258667  0.33447000  0.83241333  1.0
  H  H3  1  0.80582667  0.32348667  0.59282667  1.0
  H  H4  1  0.63892333  0.55006333  0.90952333  1.0
  H  H5  1  0.08091667  0.67981667  0.95416667  1.0
  H  H6  1  0.94099333  0.68460000  0.07120667  1.0
  H  H7  1  0.78106667  0.88772333  0.99389000  1.0
  H  H8  1  0.04233333  0.79383333  0.18307333  1.0
  H  H9  1  0.53195000  0.28729333  0.87996667  1.0
  H  H10  1  0.54217000  0.51255000  0.96500000  1.0
  H  H11  1  0.99419000  0.51703000  0.69754000  1.0
  H  H12  1  0.04927667  0.47363333  0.60224000  1.0
  H  H13  1  0.85111667  0.27394667  0.49046667  1.0
  H  H14  1  0.18848000  0.78841000  0.06180000  1.0
  H  H15  1  0.81502333  0.55379000  0.80037667  1.0
  H  H16  1  0.81240667  0.97281667  0.87535667  1.0
  H  H17  1  0.33463667  0.83253000  0.63271333  1.0
  H  H18  1  0.32343000  0.59308333  0.80590667  1.0
  H  H19  1  0.55023000  0.90961333  0.63902667  1.0
  H  H20  1  0.67972000  0.95417667  0.08088333  1.0
  H  H21  1  0.68465333  0.07131000  0.94107667  1.0
  H  H22  1  0.88776667  0.99410000  0.78139333  1.0
  H  H23  1  0.79396667  0.18314667  0.04236667  1.0
  H  H24  1  0.28747000  0.87994667  0.53199333  1.0
  H  H25  1  0.51276000  0.96499667  0.54223333  1.0
  H  H26  1  0.51694333  0.69786000  0.99416667  1.0
  H  H27  1  0.47370000  0.60237667  0.04912333  1.0
  H  H28  1  0.27402000  0.49051000  0.85105000  1.0
  H  H29  1  0.78834000  0.06182333  0.18844667  1.0
  H  H30  1  0.55322000  0.80018333  0.81516667  1.0
  H  H31  1  0.97262667  0.87514333  0.81193000  1.0
  H  H32  1  0.83241333  0.63255000  0.33440667  1.0
  H  H33  1  0.59312000  0.80591333  0.32377667  1.0
  H  H34  1  0.90955667  0.63883333  0.54990000  1.0
  H  H35  1  0.95431000  0.08100000  0.67986000  1.0
  H  H36  1  0.07130333  0.94097000  0.68449667  1.0
  H  H37  1  0.99405667  0.78116000  0.88736333  1.0
  H  H38  1  0.18308333  0.04211000  0.79395667  1.0
  H  H39  1  0.87992333  0.53181333  0.28721333  1.0
  H  H40  1  0.96495333  0.54194333  0.51229333  1.0
  H  H41  1  0.69769000  0.99427667  0.51723333  1.0
  H  H42  1  0.60228667  0.04923333  0.47374000  1.0
  H  H43  1  0.49072667  0.85113000  0.27412333  1.0
  H  H44  1  0.06198000  0.18844333  0.78853667  1.0
  H  H45  1  0.80035333  0.81499333  0.55343333  1.0
  H  H46  1  0.31239000  0.37524667  0.47281333  1.0
  H  H47  1  0.83446667  0.13258667  0.33241667  1.0
  H  H48  1  0.82348667  0.30583000  0.09282333  1.0
  H  H49  1  0.05006000  0.13892333  0.40952667  1.0
  H  H50  1  0.17981667  0.58091667  0.45416667  1.0
  H  H51  1  0.18460333  0.44099000  0.57120667  1.0
  H  H52  1  0.38772000  0.28107000  0.49389000  1.0
  H  H53  1  0.29383333  0.54233667  0.68307000  1.0
  H  H54  1  0.78728667  0.03194667  0.37996667  1.0
  H  H55  1  0.01254667  0.04217000  0.46500333  1.0
  H  H56  1  0.01702333  0.49419000  0.19754667  1.0
  H  H57  1  0.97363333  0.54927667  0.10224000  1.0
  H  H58  1  0.77394333  0.35111667  0.99047000  1.0
  H  H59  1  0.28840667  0.68848000  0.56180333  1.0
  H  H60  1  0.05378667  0.31502667  0.30037667  1.0
  H  H61  1  0.47281667  0.31241333  0.37535000  1.0
  H  H62  1  0.33253000  0.83464000  0.13271000  1.0
  H  H63  1  0.09308333  0.82343000  0.30590667  1.0
  H  H64  1  0.40961000  0.05023000  0.13903000  1.0
  H  H65  1  0.45417333  0.17972333  0.58088333  1.0
  H  H66  1  0.57130667  0.18465667  0.44107667  1.0
  H  H67  1  0.49410000  0.38777000  0.28139000  1.0
  H  H68  1  0.68314333  0.29397333  0.54236333  1.0
  H  H69  1  0.37994333  0.78747333  0.03199333  1.0
  H  H70  1  0.46499000  0.01276333  0.04223667  1.0
  H  H71  1  0.19785667  0.01694667  0.49417667  1.0
  H  H72  1  0.10237333  0.97370333  0.54912333  1.0
  H  H73  1  0.99050667  0.77402000  0.35105333  1.0
  H  H74  1  0.56182333  0.28834000  0.68844667  1.0
  H  H75  1  0.30018333  0.05322000  0.31516667  1.0
  H  H76  1  0.37514333  0.47262667  0.31193000  1.0
  H  H77  1  0.13254667  0.33241667  0.83440667  1.0
  H  H78  1  0.30591333  0.09312000  0.82377667  1.0
  H  H79  1  0.13883333  0.40956333  0.04989333  1.0
  H  H80  1  0.58099667  0.45430667  0.17986667  1.0
  H  H81  1  0.44097000  0.57130667  0.18449333  1.0
  H  H82  1  0.28115000  0.49405333  0.38736667  1.0
  H  H83  1  0.54211000  0.68308333  0.29395667  1.0
  H  H84  1  0.03181333  0.37992667  0.78721000  1.0
  H  H85  1  0.04194333  0.46495667  0.01229000  1.0
  H  H86  1  0.49427667  0.19769000  0.01723333  1.0
  H  H87  1  0.54923000  0.10228667  0.97374333  1.0
  H  H88  1  0.35112667  0.99073333  0.77412000  1.0
  H  H89  1  0.68844000  0.56198000  0.28854000  1.0
  H  H90  1  0.31499000  0.30035333  0.05344667  1.0
  N  N1  1  0.00792667  0.67783000  0.00958333  1.0
  N  N2  1  0.89818000  0.42161000  0.64850000  1.0
  N  N3  1  0.63965667  0.44388000  0.86997333  1.0
  N  N4  1  0.67783333  0.00964333  0.00796333  1.0
  N  N5  1  0.42152000  0.64876000  0.89822000  1.0
  N  N6  1  0.44406000  0.87012000  0.63984000  1.0
  N  N7  1  0.00970667  0.00796667  0.67782667  1.0
  N  N8  1  0.64874667  0.89825333  0.42186000  1.0
  N  N9  1  0.87004000  0.63962667  0.44378333  1.0
  N  N10  1  0.17783000  0.50793000  0.50958000  1.0
  N  N11  1  0.92161000  0.39818000  0.14850000  1.0
  N  N12  1  0.94388000  0.13966000  0.36998000  1.0
  N  N13  1  0.50964333  0.17783667  0.50796000  1.0
  N  N14  1  0.14876000  0.92152333  0.39821667  1.0
  N  N15  1  0.37012000  0.94406333  0.13983667  1.0
  N  N16  1  0.50796667  0.50971000  0.17782333  1.0
  N  N17  1  0.39824667  0.14875000  0.92186333  1.0
  N  N18  1  0.13962667  0.37004667  0.94377667  1.0
  O  O1  1  0.82767667  0.51652667  0.81812667  1.0
  O  O2  1  0.05242000  0.37600000  0.49452000  1.0
  O  O3  1  0.85971333  0.66252667  0.91542000  1.0
  O  O4  1  0.43719667  0.30240333  0.93539000  1.0
  O  O5  1  0.62722000  0.84617667  0.97253333  1.0
  O  O6  1  0.47307000  0.42338333  0.01391667  1.0
  O  O7  1  0.17484000  0.88331000  0.25675000  1.0
  O  O8  1  0.69861667  0.70436333  0.91729000  1.0
  O  O9  1  0.73747333  0.58440000  0.87619667  1.0
  O  O10  1  0.24603000  0.88857667  0.18487333  1.0
  O  O11  1  0.93696667  0.28774667  0.42162667  1.0
  O  O12  1  0.56538000  0.72386000  0.89488000  1.0
  O  O13  1  0.87600333  0.55242333  0.99451333  1.0
  O  O14  1  0.93701000  0.43526000  0.80224000  1.0
  O  O15  1  0.97230333  0.62745667  0.84625000  1.0
  O  O16  1  0.97296667  0.51387000  0.92323333  1.0
  O  O17  1  0.75680667  0.38335667  0.67482667  1.0
  O  O18  1  0.68530333  0.38787000  0.74642667  1.0
  O  O19  1  0.78774333  0.43696667  0.92163000  1.0
  O  O20  1  0.89497000  0.56552333  0.72391667  1.0
  O  O21  1  0.51620000  0.81823000  0.82800000  1.0
  O  O22  1  0.37587000  0.49466667  0.05234333  1.0
  O  O23  1  0.66254000  0.91536000  0.85982000  1.0
  O  O24  1  0.30244333  0.93514000  0.43730667  1.0
  O  O25  1  0.84610333  0.97246333  0.62725333  1.0
  O  O26  1  0.42336667  0.01377000  0.47291333  1.0
  O  O27  1  0.88335333  0.25681000  0.17482667  1.0
  O  O28  1  0.70439333  0.91718667  0.69874000  1.0
  O  O29  1  0.58432667  0.87592333  0.73769000  1.0
  O  O30  1  0.88787000  0.18530333  0.24642667  1.0
  O  O31  1  0.28785667  0.42162000  0.93682333  1.0
  O  O32  1  0.72392333  0.89439667  0.56567000  1.0
  O  O33  1  0.55241667  0.99461000  0.87592333  1.0
  O  O34  1  0.43513667  0.80244333  0.93731000  1.0
  O  O35  1  0.51377333  0.92336667  0.97291000  1.0
  O  O36  1  0.38330667  0.67483667  0.75675667  1.0
  O  O37  1  0.38857667  0.74603667  0.68486667  1.0
  O  O38  1  0.43687333  0.92158667  0.78795000  1.0
  O  O39  1  0.81838000  0.82775000  0.51639000  1.0
  O  O40  1  0.49461000  0.05241667  0.37592333  1.0
  O  O41  1  0.91539667  0.85974667  0.66246667  1.0
  O  O42  1  0.93526000  0.43701333  0.30223667  1.0
  O  O43  1  0.01386667  0.47296333  0.42323000  1.0
  O  O44  1  0.25662000  0.17436000  0.88394000  1.0
  O  O45  1  0.91666333  0.69834000  0.70406667  1.0
  O  O46  1  0.87576667  0.73752333  0.58417000  1.0
  O  O47  1  0.18541667  0.24634667  0.88785667  1.0
  O  O48  1  0.42158333  0.93687000  0.28795667  1.0
  O  O49  1  0.99466333  0.87587333  0.55234333  1.0
  O  O50  1  0.80240333  0.93719667  0.43539000  1.0
  O  O51  1  0.92338333  0.97307000  0.51391667  1.0
  O  O52  1  0.67436000  0.75662000  0.38394000  1.0
  O  O53  1  0.74634667  0.68541667  0.38785667  1.0
  O  O54  1  0.92161667  0.78786000  0.43682333  1.0
  O  O55  1  0.01652667  0.32768000  0.31812333  1.0
  O  O57  1  0.16252333  0.35971000  0.41541667  1.0
  O  O59  1  0.34617667  0.12722000  0.47253333  1.0
  O  O61  1  0.20436000  0.19862000  0.41729000  1.0
  O  O62  1  0.08439667  0.23747333  0.37620000  1.0
  O  O64  1  0.22386000  0.06538333  0.39487667  1.0
  O  O67  1  0.12745333  0.47230667  0.34625000  1.0
  O  O70  1  0.06552333  0.39497000  0.22391667  1.0
  O  O71  1  0.31823000  0.01620000  0.32800000  1.0
  O  O73  1  0.41536000  0.16254333  0.35981667  1.0
  O  O75  1  0.47246000  0.34610667  0.12725333  1.0
  O  O77  1  0.41718333  0.20439667  0.19874000  1.0
  O  O78  1  0.37592000  0.08433000  0.23769000  1.0
  O  O80  1  0.39439667  0.22392667  0.06566667  1.0
  O  O85  1  0.32775000  0.31838000  0.01639000  1.0
  O  O87  1  0.35975000  0.41540333  0.16246667  1.0
  O  O90  1  0.19833667  0.41666667  0.20406667  1.0
  O  O91  1  0.23752000  0.37576667  0.08417333  1.0
  Zn  Zn1  1  0.86311667  0.46529333  0.73780000  1.0
  Zn  Zn2  1  0.73864667  0.47777667  0.84791667  1.0
  Zn  Zn3  1  0.91875000  0.58937667  0.91645333  1.0
  Zn  Zn4  1  0.46490000  0.73810667  0.86340333  1.0
  Zn  Zn5  1  0.23810333  0.96490000  0.36340667  1.0
  Zn  Zn6  1  0.36307000  0.23816000  0.96531000  1.0
  Zn  Zn7  1  0.34779667  0.97775667  0.23886667  1.0
  Zn  Zn8  1  0.97777667  0.23864333  0.34791000  1.0
  Zn  Zn9  1  0.58938667  0.91650333  0.91879000  1.0
  Zn  Zn10  1  0.08937667  0.41875333  0.41645000  1.0
  Zn  Zn11  1  0.41883333  0.41653667  0.08943000  1.0
  Zn  Zn12  1  0.47775667  0.84779667  0.73886667  1.0
  Zn  Zn13  1  0.73815667  0.86307000  0.46531333  1.0
  Zn  Zn14  1  0.96528667  0.36311333  0.23780000  1.0
  Zn  Zn17  1  0.23860000  0.34801667  0.97767333  1.0
  Zn  Zn18  1  0.91653333  0.91883333  0.58942333  1.0
  Zn  Zn19  1  0.41650333  0.08939000  0.41878667  1.0
  Zn  Zn20  1  0.84801667  0.73860333  0.47767000  1.0
