# generated using pymatgen
data_Cu2H9C14N5O
_symmetry_space_group_name_H-M   'P 1'
_cell_length_a   7.22591000
_cell_length_b   20.44113000
_cell_length_c   21.56131000
_cell_angle_alpha   90.00000000
_cell_angle_beta   90.00000000
_cell_angle_gamma   90.00000000
_symmetry_Int_Tables_number   1
_chemical_formula_structural   Cu2H9C14N5O
_chemical_formula_sum   'Cu16 H72 C112 N40 O8'
_cell_volume   3184.72980258
_cell_formula_units_Z   8
loop_
 _symmetry_equiv_pos_site_id
 _symmetry_equiv_pos_as_xyz
  1  'x, y, z'
loop_
 _atom_site_type_symbol
 _atom_site_label
 _atom_site_symmetry_multiplicity
 _atom_site_fract_x
 _atom_site_fract_y
 _atom_site_fract_z
 _atom_site_occupancy
  Cu  Cu0  1  0.41413000  0.32722000  0.41394000  1
  Cu  Cu1  1  0.58587000  0.32722000  0.08605000  1
  Cu  Cu2  1  0.41413000  0.17278000  0.58606000  1
  Cu  Cu3  1  0.58587000  0.17278000  0.91395000  1
  Cu  Cu4  1  0.58592000  0.67277000  0.58605000  1
  Cu  Cu5  1  0.41407000  0.67277000  0.91395000  1
  Cu  Cu6  1  0.58592000  0.82723000  0.41395000  1
  Cu  Cu7  1  0.41408000  0.82723000  0.08605000  1
  Cu  Cu8  1  0.50000000  0.50000000  0.50000000  1
  Cu  Cu9  1  0.50000000  0.50000000  0.00000000  1
  Cu  Cu10  1  0.50000000  0.00000000  0.50001000  1
  Cu  Cu11  1  0.49999000  0.00000000  0.00000000  1
  Cu  Cu12  1  0.00000000  0.82514000  0.25000000  1
  Cu  Cu13  1  0.00000000  0.67485000  0.75000000  1
  Cu  Cu14  1  0.00000000  0.17486000  0.75000000  1
  Cu  Cu15  1  0.99999000  0.32513000  0.25000000  1
  H  H16  1  0.77745000  0.28973000  0.46499000  1
  H  H17  1  0.07980000  0.34639000  0.48632000  1
  H  H18  1  0.88456000  0.50684000  0.37406000  1
  H  H19  1  0.59452000  0.44101000  0.35371000  1
  H  H20  1  0.54230000  0.62915000  0.43760000  1
  H  H21  1  0.55920000  0.70617000  0.35189000  1
  H  H22  1  0.39262000  0.78733000  0.28622000  1
  H  H23  1  0.88101000  0.71216000  0.33466000  1
  H  H24  1  0.02512000  0.62474000  0.40013000  1
  H  H25  1  0.22255000  0.28973000  0.03501000  1
  H  H26  1  0.92019000  0.34639000  0.01368000  1
  H  H27  1  0.11544000  0.50683000  0.12594000  1
  H  H28  1  0.40548000  0.44101000  0.14629000  1
  H  H29  1  0.45770000  0.62915000  0.06240000  1
  H  H30  1  0.44080000  0.70617000  0.14811000  1
  H  H31  1  0.60738000  0.78733000  0.21378000  1
  H  H32  1  0.11898000  0.71216000  0.16535000  1
  H  H33  1  0.97488000  0.62474000  0.09987000  1
  H  H34  1  0.77744000  0.21027000  0.53501000  1
  H  H35  1  0.07980000  0.15361000  0.51368000  1
  H  H36  1  0.88456000  0.99316000  0.62594000  1
  H  H37  1  0.59452000  0.05899000  0.64629000  1
  H  H38  1  0.54230000  0.87085000  0.56240000  1
  H  H39  1  0.55920000  0.79382000  0.64811000  1
  H  H40  1  0.39262000  0.71266000  0.71378000  1
  H  H41  1  0.88101000  0.78783000  0.66534000  1
  H  H42  1  0.02512000  0.87526000  0.59987000  1
  H  H43  1  0.22255000  0.21026000  0.96498000  1
  H  H44  1  0.92019000  0.15361000  0.98632000  1
  H  H45  1  0.11544000  0.99316000  0.87406000  1
  H  H46  1  0.40547000  0.05899000  0.85371000  1
  H  H47  1  0.45770000  0.87085000  0.93760000  1
  H  H48  1  0.44080000  0.79382000  0.85189000  1
  H  H49  1  0.60738000  0.71266000  0.78622000  1
  H  H50  1  0.11898000  0.78783000  0.83465000  1
  H  H51  1  0.97488000  0.87525000  0.90013000  1
  H  H52  1  0.22263000  0.71026000  0.53500000  1
  H  H53  1  0.92025000  0.65362000  0.51367000  1
  H  H54  1  0.11542000  0.49317000  0.62595000  1
  H  H55  1  0.40548000  0.55898000  0.64629000  1
  H  H56  1  0.45766000  0.37088000  0.56241000  1
  H  H57  1  0.44078000  0.29383000  0.64811000  1
  H  H58  1  0.60737000  0.21267000  0.71378000  1
  H  H59  1  0.11897000  0.28784000  0.66534000  1
  H  H60  1  0.97487000  0.37526000  0.59986000  1
  H  H61  1  0.77737000  0.71026000  0.96500000  1
  H  H62  1  0.07974000  0.65362000  0.98633000  1
  H  H63  1  0.88458000  0.49317000  0.87405000  1
  H  H64  1  0.59451000  0.55898000  0.85371000  1
  H  H65  1  0.54234000  0.37088000  0.93759000  1
  H  H66  1  0.55921000  0.29383000  0.85189000  1
  H  H67  1  0.39262000  0.21267000  0.78622000  1
  H  H68  1  0.88102000  0.28784000  0.83466000  1
  H  H69  1  0.02513000  0.37526000  0.90014000  1
  H  H70  1  0.22263000  0.78974000  0.46500000  1
  H  H71  1  0.92025000  0.84638000  0.48633000  1
  H  H72  1  0.11542000  0.00683000  0.37405000  1
  H  H73  1  0.40548000  0.94101000  0.35371000  1
  H  H74  1  0.45766000  0.12912000  0.43759000  1
  H  H75  1  0.44078000  0.20616000  0.35189000  1
  H  H76  1  0.60738000  0.28733000  0.28623000  1
  H  H77  1  0.11897000  0.21215000  0.33467000  1
  H  H78  1  0.97487000  0.12474000  0.40014000  1
  H  H79  1  0.77738000  0.78974000  0.03500000  1
  H  H80  1  0.07975000  0.84638000  0.01367000  1
  H  H81  1  0.88458000  0.00683000  0.12595000  1
  H  H82  1  0.59452000  0.94101000  0.14629000  1
  H  H83  1  0.54234000  0.12912000  0.06241000  1
  H  H84  1  0.55921000  0.20616000  0.14811000  1
  H  H85  1  0.39262000  0.28732000  0.21378000  1
  H  H86  1  0.88102000  0.21215000  0.16534000  1
  H  H87  1  0.02513000  0.12474000  0.09986000  1
  C  C88  1  0.37080000  0.27046000  0.47813000  1
  C  C89  1  0.80787000  0.33782000  0.44597000  1
  C  C90  1  0.97262000  0.36996000  0.45865000  1
  C  C91  1  0.00020000  0.43273000  0.43424000  1
  C  C92  1  0.86423000  0.45912000  0.39517000  1
  C  C93  1  0.70423000  0.42326000  0.38395000  1
  C  C94  1  0.17108000  0.46925000  0.44955000  1
  C  C95  1  0.40692000  0.61274000  0.42135000  1
  C  C96  1  0.30531000  0.65758000  0.38137000  1
  C  C97  1  0.40851000  0.70466000  0.34850000  1
  C  C98  1  0.31695000  0.75000000  0.31171000  1
  C  C99  1  0.03121000  0.70798000  0.33879000  1
  C  C100  1  0.11078000  0.65975000  0.37546000  1
  C  C101  1  0.80805000  0.85605000  0.30168000  1
  C  C102  1  0.62922000  0.27046000  0.02186000  1
  C  C103  1  0.19213000  0.33782000  0.05403000  1
  C  C104  1  0.02737000  0.36996000  0.04135000  1
  C  C105  1  0.99980000  0.43273000  0.06576000  1
  C  C106  1  0.13577000  0.45911000  0.10483000  1
  C  C107  1  0.29577000  0.42326000  0.11605000  1
  C  C108  1  0.82892000  0.46925000  0.05045000  1
  C  C109  1  0.59308000  0.61274000  0.07865000  1
  C  C110  1  0.69469000  0.65758000  0.11863000  1
  C  C111  1  0.59149000  0.70466000  0.15150000  1
  C  C112  1  0.68305000  0.75000000  0.18829000  1
  C  C113  1  0.96879000  0.70798000  0.16121000  1
  C  C114  1  0.88922000  0.65975000  0.12454000  1
  C  C115  1  0.19193000  0.85605000  0.19832000  1
  C  C116  1  0.37080000  0.22954000  0.52187000  1
  C  C117  1  0.80787000  0.16218000  0.55403000  1
  C  C118  1  0.97262000  0.13004000  0.54135000  1
  C  C119  1  0.00020000  0.06727000  0.56576000  1
  C  C120  1  0.86423000  0.04088000  0.60483000  1
  C  C121  1  0.70423000  0.07674000  0.61605000  1
  C  C122  1  0.17108000  0.03075000  0.55045000  1
  C  C123  1  0.40692000  0.88726000  0.57865000  1
  C  C124  1  0.30531000  0.84241000  0.61863000  1
  C  C125  1  0.40851000  0.79533000  0.65150000  1
  C  C126  1  0.31695000  0.75000000  0.68829000  1
  C  C127  1  0.03121000  0.79201000  0.66121000  1
  C  C128  1  0.11078000  0.84024000  0.62454000  1
  C  C129  1  0.80807000  0.64395000  0.69832000  1
  C  C130  1  0.62921000  0.22954000  0.97813000  1
  C  C131  1  0.19213000  0.16218000  0.94597000  1
  C  C132  1  0.02737000  0.13004000  0.95865000  1
  C  C133  1  0.99980000  0.06727000  0.93424000  1
  C  C134  1  0.13576000  0.04088000  0.89517000  1
  C  C135  1  0.29577000  0.07674000  0.88395000  1
  C  C136  1  0.82891000  0.03075000  0.94955000  1
  C  C137  1  0.59308000  0.88726000  0.92135000  1
  C  C138  1  0.69469000  0.84241000  0.88137000  1
  C  C139  1  0.59149000  0.79533000  0.84850000  1
  C  C140  1  0.68305000  0.75000000  0.81171000  1
  C  C141  1  0.96879000  0.79201000  0.83879000  1
  C  C142  1  0.88922000  0.84024000  0.87546000  1
  C  C143  1  0.19193000  0.64395000  0.80168000  1
  C  C144  1  0.62925000  0.72954000  0.52186000  1
  C  C145  1  0.19218000  0.66218000  0.55403000  1
  C  C146  1  0.02741000  0.63005000  0.54135000  1
  C  C147  1  0.99980000  0.56728000  0.56576000  1
  C  C148  1  0.13576000  0.54089000  0.60483000  1
  C  C149  1  0.29578000  0.57674000  0.61605000  1
  C  C150  1  0.82891000  0.53076000  0.55045000  1
  C  C151  1  0.59306000  0.38727000  0.57865000  1
  C  C152  1  0.69468000  0.34242000  0.61863000  1
  C  C153  1  0.59147000  0.29534000  0.65150000  1
  C  C154  1  0.68304000  0.25001000  0.68829000  1
  C  C155  1  0.96878000  0.29202000  0.66121000  1
  C  C156  1  0.88920000  0.34025000  0.62453000  1
  C  C157  1  0.19193000  0.14396000  0.69833000  1
  C  C158  1  0.37077000  0.72954000  0.97814000  1
  C  C159  1  0.80781000  0.66218000  0.94597000  1
  C  C160  1  0.97258000  0.63004000  0.95865000  1
  C  C161  1  0.00019000  0.56728000  0.93424000  1
  C  C162  1  0.86424000  0.54089000  0.89517000  1
  C  C163  1  0.70421000  0.57674000  0.88395000  1
  C  C164  1  0.17108000  0.53076000  0.94955000  1
  C  C165  1  0.40694000  0.38727000  0.92135000  1
  C  C166  1  0.30532000  0.34242000  0.88137000  1
  C  C167  1  0.40852000  0.29534000  0.84850000  1
  C  C168  1  0.31695000  0.25001000  0.81171000  1
  C  C169  1  0.03122000  0.29202000  0.83880000  1
  C  C170  1  0.11080000  0.34025000  0.87547000  1
  C  C171  1  0.80806000  0.14396000  0.80168000  1
  C  C172  1  0.62925000  0.77046000  0.47814000  1
  C  C173  1  0.19218000  0.83782000  0.44597000  1
  C  C174  1  0.02741000  0.86995000  0.45865000  1
  C  C175  1  0.99980000  0.93272000  0.43424000  1
  C  C176  1  0.13576000  0.95911000  0.39517000  1
  C  C177  1  0.29578000  0.92326000  0.38395000  1
  C  C178  1  0.82891000  0.96924000  0.44955000  1
  C  C179  1  0.59306000  0.11272000  0.42135000  1
  C  C180  1  0.69467000  0.15758000  0.38137000  1
  C  C181  1  0.59147000  0.20465000  0.34851000  1
  C  C182  1  0.68304000  0.24999000  0.31172000  1
  C  C183  1  0.96878000  0.20797000  0.33880000  1
  C  C184  1  0.88920000  0.15974000  0.37547000  1
  C  C185  1  0.19193000  0.35603000  0.30167000  1
  C  C186  1  0.37077000  0.77046000  0.02186000  1
  C  C187  1  0.80782000  0.83782000  0.05403000  1
  C  C188  1  0.97259000  0.86995000  0.04135000  1
  C  C189  1  0.00020000  0.93272000  0.06576000  1
  C  C190  1  0.86424000  0.95911000  0.10483000  1
  C  C191  1  0.70422000  0.92326000  0.11605000  1
  C  C192  1  0.17109000  0.96924000  0.05045000  1
  C  C193  1  0.40693000  0.11273000  0.07865000  1
  C  C194  1  0.30532000  0.15758000  0.11863000  1
  C  C195  1  0.40852000  0.20466000  0.15150000  1
  C  C196  1  0.31696000  0.24999000  0.18829000  1
  C  C197  1  0.03122000  0.20797000  0.16121000  1
  C  C198  1  0.11079000  0.15975000  0.12453000  1
  C  C199  1  0.80805000  0.35604000  0.19832000  1
  N  N200  1  0.67392000  0.36420000  0.41019000  1
  N  N201  1  0.19231000  0.52799000  0.42358000  1
  N  N202  1  0.35722000  0.55497000  0.44147000  1
  N  N203  1  0.13084000  0.75249000  0.30691000  1
  N  N204  1  0.69429000  0.86431000  0.34031000  1
  N  N205  1  0.32608000  0.36420000  0.08981000  1
  N  N206  1  0.80769000  0.52799000  0.07642000  1
  N  N207  1  0.64278000  0.55497000  0.05853000  1
  N  N208  1  0.86916000  0.75249000  0.19309000  1
  N  N209  1  0.30574000  0.86432000  0.15968000  1
  N  N210  1  0.67392000  0.13579000  0.58981000  1
  N  N211  1  0.19231000  0.97200000  0.57642000  1
  N  N212  1  0.35722000  0.94503000  0.55853000  1
  N  N213  1  0.13084000  0.74750000  0.69309000  1
  N  N214  1  0.69428000  0.63568000  0.65968000  1
  N  N215  1  0.32607000  0.13579000  0.91019000  1
  N  N216  1  0.80769000  0.97200000  0.92358000  1
  N  N217  1  0.64278000  0.94503000  0.94147000  1
  N  N218  1  0.86916000  0.74750000  0.80691000  1
  N  N219  1  0.30573000  0.63568000  0.84032000  1
  N  N220  1  0.32612000  0.63579000  0.58981000  1
  N  N221  1  0.80769000  0.47202000  0.57642000  1
  N  N222  1  0.64276000  0.44505000  0.55853000  1
  N  N223  1  0.86915000  0.24752000  0.69309000  1
  N  N224  1  0.30576000  0.13569000  0.65968000  1
  N  N225  1  0.67387000  0.63579000  0.91019000  1
  N  N226  1  0.19231000  0.47202000  0.92358000  1
  N  N227  1  0.35724000  0.44505000  0.94147000  1
  N  N228  1  0.13085000  0.24752000  0.80691000  1
  N  N229  1  0.69424000  0.13569000  0.84032000  1
  N  N230  1  0.32612000  0.86421000  0.41019000  1
  N  N231  1  0.80768000  0.02798000  0.42358000  1
  N  N232  1  0.64276000  0.05495000  0.44147000  1
  N  N233  1  0.86915000  0.25248000  0.30691000  1
  N  N234  1  0.30575000  0.36430000  0.34031000  1
  N  N235  1  0.67388000  0.86421000  0.08981000  1
  N  N236  1  0.19231000  0.02798000  0.07642000  1
  N  N237  1  0.35724000  0.05495000  0.05854000  1
  N  N238  1  0.13085000  0.25248000  0.19309000  1
  N  N239  1  0.69426000  0.36431000  0.15969000  1
  O  O240  1  0.28746000  0.44195000  0.48748000  1
  O  O241  1  0.71254000  0.44195000  0.01252000  1
  O  O242  1  0.28746000  0.05805000  0.51252000  1
  O  O243  1  0.71253000  0.05805000  0.98748000  1
  O  O244  1  0.71253000  0.55805000  0.51252000  1
  O  O245  1  0.28746000  0.55805000  0.98748000  1
  O  O246  1  0.71254000  0.94194000  0.48748000  1
  O  O247  1  0.28747000  0.94194000  0.01252000  1
