# generated using pymatgen
data_Cd2H48C70N6O5
_symmetry_space_group_name_H-M   'P 1'
_cell_length_a   19.54748000
_cell_length_b   21.03797016
_cell_length_c   29.61867167
_cell_angle_alpha   82.29360904
_cell_angle_beta   72.44079344
_cell_angle_gamma   62.74957766
_symmetry_Int_Tables_number   1
_chemical_formula_structural   Cd2H48C70N6O5
_chemical_formula_sum   'Cd8 H192 C280 N24 O20'
_cell_volume   10323.84523625
_cell_formula_units_Z   4
loop_
 _symmetry_equiv_pos_site_id
 _symmetry_equiv_pos_as_xyz
  1  'x, y, z'
loop_
 _atom_site_type_symbol
 _atom_site_label
 _atom_site_symmetry_multiplicity
 _atom_site_fract_x
 _atom_site_fract_y
 _atom_site_fract_z
 _atom_site_occupancy
  Cd  Cd0  1  0.35240000  0.47605000  0.27140000  1
  Cd  Cd1  1  0.64759000  0.52396000  0.72859000  1
  Cd  Cd2  1  0.84977000  0.48327000  0.33597000  1
  Cd  Cd3  1  0.83072000  0.51924000  0.83670000  1
  Cd  Cd4  1  0.67237000  0.47673000  0.22808000  1
  Cd  Cd5  1  0.15024000  0.51677000  0.66402000  1
  Cd  Cd6  1  0.16925000  0.48078000  0.16330000  1
  Cd  Cd7  1  0.32762000  0.52328000  0.77192000  1
  H  H8  1  0.67601000  0.93914000  0.09121000  1
  H  H9  1  0.21202000  0.63801000  0.28228000  1
  H  H10  1  0.06603000  0.24494000  0.08727000  1
  H  H11  1  0.47143000  0.51410000  0.87673000  1
  H  H12  1  0.95136000  0.66593000  0.66808000  1
  H  H13  1  0.76225000  0.93415000  0.46124000  1
  H  H14  1  0.84942000  0.36775000  0.26442000  1
  H  H15  1  0.55755000  0.96433000  0.57355000  1
  H  H16  1  0.41358000  0.65772000  0.64056000  1
  H  H17  1  0.30746000  0.03794000  0.33441000  1
  H  H18  1  0.00243000  0.45403000  0.18896000  1
  H  H19  1  0.60314000  0.12135000  0.89277000  1
  H  H20  1  0.19018000  0.76117000  0.25504000  1
  H  H21  1  0.48656000  0.48562000  0.37678000  1
  H  H22  1  0.90502000  0.00752000  0.86279000  1
  H  H23  1  0.76401000  0.05390000  0.56679000  1
  H  H24  1  0.49966000  0.55120000  0.29614000  1
  H  H25  1  0.23598000  0.94610000  0.43321000  1
  H  H26  1  0.11137000  0.94381000  0.48423000  1
  H  H27  1  0.56068000  0.32915000  0.82525000  1
  H  H28  1  0.80984000  0.75619000  0.58700000  1
  H  H29  1  0.28100000  0.36948000  0.23512000  1
  H  H30  1  0.69922000  0.84200000  0.68622000  1
  H  H31  1  0.58796000  0.00808000  0.63721000  1
  H  H32  1  0.04292000  0.45375000  0.31169000  1
  H  H33  1  0.68100000  0.02753000  0.73380000  1
  H  H34  1  0.47659000  0.29463000  0.96549000  1
  H  H35  1  0.71898000  0.63054000  0.76488000  1
  H  H36  1  0.11497000  0.06146000  0.59133000  1
  H  H37  1  0.32398000  0.06086000  0.90879000  1
  H  H38  1  0.72746000  0.23642000  0.95050000  1
  H  H39  1  0.56179000  0.79233000  0.67665000  1
  H  H40  1  0.15058000  0.63226000  0.73557000  1
  H  H41  1  0.35766000  0.87664000  0.48917000  1
  H  H42  1  0.06330000  0.23313000  0.29954000  1
  H  H43  1  0.37056000  0.43337000  0.64651000  1
  H  H44  1  0.92803000  0.88773000  0.68284000  1
  H  H45  1  0.19702000  0.06522000  0.96160000  1
  H  H46  1  0.60426000  0.65211000  0.09415000  1
  H  H47  1  0.71438000  0.44692000  0.38538000  1
  H  H48  1  0.44989000  0.55194000  0.20345000  1
  H  H49  1  0.60923000  0.33046000  0.67516000  1
  H  H50  1  0.39574000  0.34789000  0.90585000  1
  H  H51  1  0.11642000  0.33508000  0.16862000  1
  H  H52  1  0.88863000  0.05619000  0.51576000  1
  H  H53  1  0.18770000  0.13144000  0.44714000  1
  H  H54  1  0.67740000  0.42147000  0.47160000  1
  H  H55  1  0.32260000  0.57853000  0.52840000  1
  H  H56  1  0.16742000  0.55062000  0.86220000  1
  H  H57  1  0.25691000  0.68390000  0.77829000  1
  H  H58  1  0.75401000  0.34886000  0.59322000  1
  H  H59  1  0.88504000  0.93854000  0.40866000  1
  H  H60  1  0.07196000  0.11227000  0.31716000  1
  H  H61  1  0.77635000  0.12191000  0.60762000  1
  H  H62  1  0.80298000  0.93478000  0.03840000  1
  H  H63  1  0.72616000  0.29556000  0.53301000  1
  H  H64  1  0.93831000  0.20610000  0.82109000  1
  H  H65  1  0.97742000  0.96542000  0.92636000  1
  H  H66  1  0.83258000  0.44938000  0.13780000  1
  H  H67  1  0.44392000  0.94505000  0.01548000  1
  H  H68  1  0.84440000  0.96337000  0.83469000  1
  H  H69  1  0.29843000  0.24428000  0.25313000  1
  H  H70  1  0.99758000  0.54598000  0.81104000  1
  H  H71  1  0.50032000  0.44881000  0.70386000  1
  H  H72  1  0.89864000  0.12016000  0.82443000  1
  H  H73  1  0.91675000  0.90918000  0.58844000  1
  H  H74  1  0.94785000  0.34732000  0.08881000  1
  H  H75  1  0.66071000  0.23764000  0.63016000  1
  H  H76  1  0.31456000  0.11478000  0.18276000  1
  H  H77  1  0.95727000  0.24304000  0.24639000  1
  H  H78  1  0.41588000  0.09462000  0.88616000  1
  H  H79  1  0.81229000  0.86856000  0.55286000  1
  H  H80  1  0.45002000  0.68560000  0.55367000  1
  H  H81  1  0.78796000  0.36200000  0.71772000  1
  H  H82  1  0.30519000  0.56728000  0.14589000  1
  H  H83  1  0.27253000  0.76358000  0.04950000  1
  H  H84  1  0.67282000  0.90905000  0.91117000  1
  H  H85  1  0.73433000  0.12343000  0.98918000  1
  H  H86  1  0.74308000  0.31611000  0.22171000  1
  H  H87  1  0.24598000  0.65115000  0.40679000  1
  H  H88  1  0.52858000  0.48590000  0.12326000  1
  H  H89  1  0.39704000  0.76251000  0.12975000  1
  H  H90  1  0.28561000  0.55309000  0.61461000  1
  H  H91  1  0.81932000  0.86747000  0.94665000  1
  H  H92  1  0.30075000  0.15802000  0.31378000  1
  H  H93  1  0.18067000  0.13253000  0.05335000  1
  H  H94  1  0.43314000  0.85573000  0.24272000  1
  H  H95  1  0.95576000  0.09284000  0.45950000  1
  H  H96  1  0.66064000  0.55366000  0.88653000  1
  H  H97  1  0.64407000  0.79531000  0.32122000  1
  H  H98  1  0.55009000  0.44807000  0.79656000  1
  H  H99  1  0.54243000  0.09233000  0.83577000  1
  H  H100  1  0.90784000  0.14702000  0.10793000  1
  H  H101  1  0.13448000  0.90648000  0.33597000  1
  H  H102  1  0.00993000  0.90462000  0.38629000  1
  H  H103  1  0.44503000  0.14806000  0.39191000  1
  H  H104  1  0.69253000  0.96207000  0.66559000  1
  H  H105  1  0.68278000  0.05257000  0.93321000  1
  H  H106  1  0.04862000  0.33408000  0.33191000  1
  H  H107  1  0.51343000  0.67553000  0.39487000  1
  H  H108  1  0.10135000  0.87984000  0.17558000  1
  H  H109  1  0.65008000  0.63976000  0.21807000  1
  H  H110  1  0.78929000  0.14391000  0.74268000  1
  H  H111  1  0.80980000  0.23884000  0.74496000  1
  H  H112  1  0.93668000  0.76688000  0.70046000  1
  H  H113  1  0.45214000  0.53516000  0.06218000  1
  H  H114  1  0.63484000  0.31456000  0.05185000  1
  H  H115  1  0.95778000  0.84378000  0.81419000  1
  H  H116  1  0.55607000  0.05495000  0.98452000  1
  H  H117  1  0.48652000  0.46531000  0.56147000  1
  H  H118  1  0.34991000  0.36024000  0.78193000  1
  H  H119  1  0.93274000  0.32054000  0.78314000  1
  H  H120  1  0.06726000  0.67946000  0.21685000  1
  H  H121  1  0.24637000  0.31886000  0.71674000  1
  H  H122  1  0.31900000  0.97247000  0.26620000  1
  H  H123  1  0.64233000  0.12336000  0.51083000  1
  H  H124  1  0.48145000  0.12062000  0.67569000  1
  H  H125  1  0.39076000  0.66955000  0.32484000  1
  H  H126  1  0.20588000  0.34694000  0.41108000  1
  H  H127  1  0.32715000  0.09096000  0.08884000  1
  H  H128  1  0.43820000  0.20768000  0.32335000  1
  H  H129  1  0.09498000  0.99248000  0.13721000  1
  H  H130  1  0.86551000  0.09353000  0.66403000  1
  H  H131  1  0.20244000  0.23510000  0.20032000  1
  H  H132  1  0.46390000  0.76369000  0.45037000  1
  H  H133  1  0.48657000  0.32447000  0.60512000  1
  H  H134  1  0.51341000  0.51439000  0.62323000  1
  H  H135  1  0.39684000  0.87866000  0.10724000  1
  H  H136  1  0.75363000  0.68113000  0.28326000  1
  H  H137  1  0.43930000  0.67085000  0.17476000  1
  H  H138  1  0.41204000  0.99192000  0.36278000  1
  H  H139  1  0.06168000  0.79390000  0.17891000  1
  H  H140  1  0.14620000  0.79208000  0.82387000  1
  H  H141  1  0.22366000  0.87809000  0.39237000  1
  H  H142  1  0.58411000  0.90538000  0.11385000  1
  H  H143  1  0.68544000  0.88522000  0.81724000  1
  H  H144  1  0.60296000  0.23749000  0.87025000  1
  H  H145  1  0.54785000  0.46484000  0.93782000  1
  H  H146  1  0.51346000  0.53470000  0.43853000  1
  H  H147  1  0.33929000  0.76236000  0.36984000  1
  H  H148  1  0.62943000  0.56663000  0.35349000  1
  H  H149  1  0.70154000  0.75574000  0.74688000  1
  H  H150  1  0.59825000  0.57947000  0.97289000  1
  H  H151  1  0.27384000  0.70445000  0.46699000  1
  H  H152  1  0.79754000  0.76491000  0.79969000  1
  H  H153  1  0.56686000  0.14428000  0.75727000  1
  H  H154  1  0.40176000  0.42053000  0.02710000  1
  H  H155  1  0.21882000  0.44864000  0.36162000  1
  H  H156  1  0.33937000  0.44635000  0.11346000  1
  H  H157  1  0.44064000  0.31541000  0.27730000  1
  H  H158  1  0.35592000  0.20469000  0.67878000  1
  H  H159  1  0.54806000  0.76261000  0.24547000  1
  H  H160  1  0.85378000  0.20793000  0.17613000  1
  H  H161  1  0.04424000  0.90716000  0.54050000  1
  H  H162  1  0.04221000  0.15623000  0.18581000  1
  H  H163  1  0.51855000  0.87938000  0.32430000  1
  H  H164  1  0.23775000  0.06585000  0.53875000  1
  H  H165  1  0.78117000  0.55136000  0.63838000  1
  H  H166  1  0.58641000  0.34228000  0.35944000  1
  H  H167  1  0.95704000  0.54627000  0.68831000  1
  H  H168  1  0.88357000  0.66493000  0.83139000  1
  H  H169  1  0.15559000  0.03664000  0.16531000  1
  H  H170  1  0.79187000  0.02684000  0.76605000  1
  H  H171  1  0.02257000  0.03459000  0.07364000  1
  H  H172  1  0.57079000  0.34340000  0.13874000  1
  H  H173  1  0.45755000  0.90767000  0.16424000  1
  H  H174  1  0.45195000  0.23739000  0.75452000  1
  H  H175  1  0.79412000  0.65306000  0.58892000  1
  H  H176  1  0.08325000  0.09082000  0.41155000  1
  H  H177  1  0.53610000  0.23630000  0.54963000  1
  H  H178  1  0.26566000  0.87657000  0.01082000  1
  H  H179  1  0.52341000  0.70537000  0.03450000  1
  H  H180  1  0.09216000  0.85298000  0.89207000  1
  H  H181  1  0.45276000  0.09255000  0.04084000  1
  H  H182  1  0.44244000  0.03567000  0.42645000  1
  H  H183  1  0.99007000  0.09538000  0.61371000  1
  H  H184  1  0.55934000  0.68460000  0.72270000  1
  H  H185  1  0.20810000  0.97317000  0.23396000  1
  H  H186  1  0.31119000  0.67663000  0.10460000  1
  H  H187  1  0.68879000  0.32338000  0.89540000  1
  H  H188  1  0.93396000  0.75507000  0.91273000  1
  H  H189  1  0.05214000  0.65268000  0.91119000  1
  H  H190  1  0.31722000  0.94743000  0.06679000  1
  H  H191  1  0.54998000  0.31440000  0.44633000  1
  H  H192  1  0.36515000  0.68543000  0.94815000  1
  H  H193  1  0.42920000  0.65661000  0.86126000  1
  H  H194  1  0.21068000  0.85610000  0.25733000  1
  H  H195  1  0.55497000  0.85194000  0.60808000  1
  H  H196  1  0.19015000  0.24381000  0.41300000  1
  H  H197  1  0.69480000  0.43272000  0.85411000  1
  H  H198  1  0.54723000  0.90745000  0.95916000  1
  H  H199  1  0.04273000  0.75697000  0.75360000  1
  C  C200  1  0.75911000  0.71078000  0.73258000  1
  C  C201  1  0.20893000  0.97082000  0.46808000  1
  C  C202  1  0.15955000  0.60529000  0.85484000  1
  C  C203  1  0.52211000  0.36502000  0.03462000  1
  C  C204  1  0.67846000  0.73249000  0.62821000  1
  C  C205  1  0.24934000  0.00619000  0.01755000  1
  C  C206  1  0.61618000  0.53513000  0.14877000  1
  C  C207  1  0.30416000  0.62685000  0.41395000  1
  C  C208  1  0.75602000  0.86471000  0.56437000  1
  C  C209  1  0.60898000  0.03019000  0.99750000  1
  C  C210  1  0.24900000  0.92735000  0.21077000  1
  C  C211  1  0.88243000  0.25485000  0.82916000  1
  C  C212  1  0.16522000  0.07976000  0.17428000  1
  C  C213  1  0.59585000  0.58256000  0.90021000  1
  C  C214  1  0.41416000  0.41625000  0.18283000  1
  C  C215  1  0.32322000  0.03675000  0.94367000  1
  C  C216  1  0.66518000  0.19220000  0.65356000  1
  C  C217  1  0.31809000  0.20420000  0.39823000  1
  C  C218  1  0.31317000  0.72769000  0.21228000  1
  C  C219  1  0.18649000  0.74587000  0.13817000  1
  C  C220  1  0.43006000  0.37215000  0.91299000  1
  C  C221  1  0.79107000  0.02918000  0.53191000  1
  C  C222  1  0.44759000  0.66608000  0.30205000  1
  C  C223  1  0.37802000  0.94297000  0.42924000  1
  C  C224  1  0.24915000  0.71674000  0.24335000  1
  C  C225  1  0.20972000  0.03906000  0.52720000  1
  C  C226  1  0.14878000  0.73959000  0.83413000  1
  C  C227  1  0.76856000  0.64104000  0.74277000  1
  C  C228  1  0.12179000  0.12244000  0.31695000  1
  C  C229  1  0.50162000  0.81269000  0.38463000  1
  C  C230  1  0.90941000  0.35782000  0.24260000  1
  C  C231  1  0.52817000  0.94740000  0.10860000  1
  C  C232  1  0.41334000  0.65737000  0.56756000  1
  C  C233  1  0.43415000  0.32046000  0.62911000  1
  C  C234  1  0.54676000  0.18644000  0.56908000  1
  C  C235  1  0.39325000  0.87736000  0.45310000  1
  C  C236  1  0.35040000  0.53442000  0.35131000  1
  C  C237  1  0.45670000  0.94812000  0.13709000  1
  C  C238  1  0.45121000  0.39604000  0.13156000  1
  C  C239  1  0.74780000  0.38134000  0.84815000  1
  C  C240  1  0.26139000  0.93417000  0.33057000  1
  C  C241  1  0.25220000  0.61866000  0.15184000  1
  C  C242  1  0.26974000  0.87373000  0.35968000  1
  C  C243  1  0.51517000  0.12157000  0.63913000  1
  C  C244  1  0.48361000  0.62312000  0.04548000  1
  C  C245  1  0.63056000  0.61845000  0.34779000  1
  C  C246  1  0.33016000  0.58414000  0.68420000  1
  C  C247  1  0.55240000  0.33393000  0.69795000  1
  C  C248  1  0.24562000  0.19892000  0.41661000  1
  C  C249  1  0.67634000  0.07319000  0.71071000  1
  C  C250  1  0.19023000  0.06668000  0.32748000  1
  C  C251  1  0.11756000  0.74515000  0.17084000  1
  C  C252  1  0.80821000  0.80811000  0.80755000  1
  C  C253  1  0.57027000  0.34265000  0.06588000  1
  C  C254  1  0.73972000  0.35195000  0.74194000  1
  C  C255  1  0.19178000  0.19190000  0.19245000  1
  C  C256  1  0.59201000  0.64913000  0.24222000  1
  C  C257  1  0.18570000  0.81278000  0.11528000  1
  C  C258  1  0.04706000  0.27743000  0.20523000  1
  C  C259  1  0.56810000  0.74597000  0.36171000  1
  C  C260  1  0.88641000  0.79484000  0.80570000  1
  C  C261  1  0.86688000  0.05741000  0.88236000  1
  C  C262  1  0.25522000  0.68000000  0.12878000  1
  C  C263  1  0.83477000  0.92025000  0.82572000  1
  C  C264  1  0.60676000  0.12264000  0.54689000  1
  C  C265  1  0.31545000  0.07441000  0.43742000  1
  C  C266  1  0.73025000  0.12628000  0.64032000  1
  C  C267  1  0.68190000  0.79580000  0.60177000  1
  C  C268  1  0.84045000  0.39471000  0.14516000  1
  C  C269  1  0.17503000  0.27763000  0.29482000  1
  C  C270  1  0.38864000  0.86051000  0.27639000  1
  C  C271  1  0.47051000  0.00107000  0.92694000  1
  C  C272  1  0.90438000  0.33744000  0.11802000  1
  C  C273  1  0.35546000  0.87419000  0.14007000  1
  C  C274  1  0.74967000  0.13916000  0.77637000  1
  C  C275  1  0.99466000  0.05105000  0.43296000  1
  C  C276  1  0.05566000  0.19952000  0.08362000  1
  C  C277  1  0.47789000  0.63498000  0.96538000  1
  C  C278  1  0.13939000  0.96899000  0.49737000  1
  C  C279  1  0.90477000  0.05283000  0.63680000  1
  C  C280  1  0.97569000  0.05327000  0.60835000  1
  C  C281  1  0.87920000  0.86411000  0.93527000  1
  C  C282  1  0.39473000  0.00233000  0.95758000  1
  C  C283  1  0.38649333  0.66666667  0.19781000  1
  C  C284  1  0.95295000  0.72258000  0.79476000  1
  C  C285  1  0.56994000  0.62785000  0.08701000  1
  C  C286  1  0.39101000  0.96981000  0.00250000  1
  C  C287  1  0.88213000  0.00126000  0.62980000  1
  C  C288  1  0.09524000  0.94717000  0.36319000  1
  C  C289  1  0.68455000  0.92559000  0.56257000  1
  C  C290  1  0.51552000  0.43879000  0.93033000  1
  C  C291  1  0.69922000  0.68201000  0.30817000  1
  C  C292  1  0.23318000  0.81358000  0.06899000  1
  C  C293  1  0.61645000  0.94904000  0.90528000  1
  C  C294  1  0.31941000  0.65631000  0.44717000  1
  C  C295  1  0.47478000  0.34268000  0.94587000  1
  C  C296  1  0.57597000  0.05778000  0.61764000  1
  C  C297  1  0.74496000  0.87600000  0.81709000  1
  C  C298  1  0.61256000  0.91890000  0.57709000  1
  C  C299  1  0.58665000  0.34263000  0.43245000  1
  C  C300  1  0.89762000  0.66138000  0.68938000  1
  C  C301  1  0.24397000  0.13529000  0.43563000  1
  C  C302  1  0.30079000  0.31798000  0.69183000  1
  C  C303  1  0.12041000  0.68095000  0.19184000  1
  C  C304  1  0.00615000  0.59380000  0.79882000  1
  C  C305  1  0.43884000  0.40267000  0.05144000  1
  C  C306  1  0.86371000  0.12128000  0.86095000  1
  C  C307  1  0.56585000  0.67954000  0.37088000  1
  C  C308  1  0.55989000  0.46717000  0.60280000  1
  C  C309  1  0.45506000  0.05112000  0.06738000  1
  C  C310  1  0.81884000  0.79496000  0.69440000  1
  C  C311  1  0.68028000  0.02825000  0.96804000  1
  C  C312  1  0.97188000  0.99871000  0.42721000  1
  C  C313  1  0.69451000  0.20076000  0.80382000  1
  C  C314  1  0.11787000  0.99874000  0.37020000  1
  C  C315  1  0.32153000  0.26752000  0.37178000  1
  C  C316  1  0.52948000  0.99893000  0.07306000  1
  C  C317  1  0.61227000  0.36551000  0.46381000  1
  C  C318  1  0.17875000  0.94317000  0.07084000  1
  C  C319  1  0.73861000  0.06583000  0.66942000  1
  C  C320  1  0.87820000  0.87757000  0.68304000  1
  C  C321  1  0.11358000  0.20517000  0.19430000  1
  C  C322  1  0.03203000  0.08049000  0.07722000  1
  C  C323  1  0.18115000  0.20505000  0.30560000  1
  C  C324  1  0.34709000  0.60419000  0.63301000  1
  C  C325  1  0.61350667  0.33333333  0.80219000  1
  C  C326  1  0.97814000  0.20428000  0.10180000  1
  C  C327  1  0.38354000  0.05096000  0.09472000  1
  C  C328  1  0.46593000  0.28240000  0.74299000  1
  C  C329  1  0.39457000  0.62223000  0.45591000  1
  C  C330  1  0.90075000  0.59375000  0.70075000  1
  C  C331  1  0.40413000  0.41746000  0.09978000  1
  C  C332  1  0.24477000  0.00579000  0.48265000  1
  C  C333  1  0.14003000  0.03697000  0.55640000  1
  C  C334  1  0.25503000  0.12400000  0.18292000  1
  C  C335  1  0.25075000  0.14813000  0.31387000  1
  C  C336  1  0.75703000  0.93273000  0.82758000  1
  C  C337  1  0.11036000  0.07446000  0.06284000  1
  C  C338  1  0.12079000  0.13589000  0.06473000  1
  C  C339  1  0.03022000  0.71169000  0.76761000  1
  C  C340  1  0.54329000  0.05189000  0.86291000  1
  C  C341  1  0.53406000  0.71761000  0.25701000  1
  C  C342  1  0.63544000  0.43498000  0.61129000  1
  C  C343  1  0.67826000  0.41793000  0.39887000  1
  C  C344  1  0.64959000  0.46558000  0.64869000  1
  C  C345  1  0.75523000  0.99421000  0.51734000  1
  C  C346  1  0.38319000  0.99948000  0.13013000  1
  C  C347  1  0.39304000  0.64209000  0.61555000  1
  C  C348  1  0.47235000  0.46658000  0.89670000  1
  C  C349  1  0.68058000  0.34370000  0.55283000  1
  C  C350  1  0.13312000  0.94259000  0.11764000  1
  C  C351  1  0.25496000  0.08029000  0.32549000  1
  C  C352  1  0.03229000  0.85619000  0.90317000  1
  C  C353  1  0.10234000  0.33864000  0.31062000  1
  C  C354  1  0.60704000  0.40045000  0.78621000  1
  C  C355  1  0.46528000  0.64158000  0.88607000  1
  C  C356  1  0.24294000  0.06728000  0.17243000  1
  C  C357  1  0.60526000  0.99767000  0.04242000  1
  C  C358  1  0.10291000  0.00218000  0.54228000  1
  C  C359  1  0.52522000  0.65732000  0.05413000  1
  C  C360  1  0.02812000  0.00129000  0.57279000  1
  C  C361  1  0.54075000  0.27229000  0.71220000  1
  C  C362  1  0.26549000  0.39410000  0.35427000  1
  C  C363  1  0.38744000  0.08110000  0.42290000  1
  C  C364  1  0.96977000  0.28833000  0.23239000  1
  C  C365  1  0.02431000  0.94673000  0.39165000  1
  C  C366  1  0.40799000  0.35087000  0.75777000  1
  C  C367  1  0.02184000  0.79573000  0.89820000  1
  C  C368  1  0.74850000  0.96111000  0.02697000  1
  C  C369  1  0.38773000  0.63449000  0.53619000  1
  C  C370  1  0.06648000  0.05063000  0.40567000  1
  C  C371  1  0.75100000  0.07265000  0.78923000  1
  C  C372  1  0.10156000  0.14734000  0.18587000  1
  C  C373  1  0.42403000  0.94222000  0.38235000  1
  C  C374  1  0.09922000  0.40626000  0.29925000  1
  C  C375  1  0.89709000  0.99783000  0.45771000  1
  C  C376  1  0.88314000  0.80938000  0.69259000  1
  C  C377  1  0.49136000  0.40076000  0.71397000  1
  C  C378  1  0.39293000  0.59956000  0.21380000  1
  C  C379  1  0.08882000  0.73221000  0.87203000  1
  C  C380  1  0.45323000  0.81356000  0.43092000  1
  C  C381  1  0.81351000  0.25413000  0.86183000  1
  C  C382  1  0.21032000  0.67995000  0.80839000  1
  C  C383  1  0.85122000  0.26041000  0.16587000  1
  C  C384  1  0.30548000  0.79925000  0.19618000  1
  C  C385  1  0.39494000  0.79905000  0.30376000  1
  C  C386  1  0.66983000  0.41586000  0.31580000  1
  C  C387  1  0.25150000  0.03889000  0.97303000  1
  C  C388  1  0.38848000  0.26007000  0.33358000  1
  C  C389  1  0.63749000  0.74604000  0.32920000  1
  C  C390  1  0.09562000  0.66256000  0.88198000  1
  C  C391  1  0.25894000  0.33700000  0.38167000  1
  C  C392  1  0.60506000  0.20095000  0.69624000  1
  C  C393  1  0.64362000  0.19193000  0.84669000  1
  C  C394  1  0.36454000  0.56503000  0.38871000  1
  C  C395  1  0.80977000  0.93332000  0.67251000  1
  C  C396  1  0.38860000  0.14438000  0.40315000  1
  C  C397  1  0.33481000  0.80781000  0.34643000  1
  C  C398  1  0.99386000  0.40621000  0.20118000  1
  C  C399  1  0.53470000  0.35843000  0.11393000  1
  C  C400  1  0.32366000  0.92681000  0.28929000  1
  C  C401  1  0.45533000  0.56057000  0.43125000  1
  C  C402  1  0.38383000  0.46487000  0.85122000  1
  C  C403  1  0.68682000  0.27231000  0.78772000  1
  C  C404  1  0.60542000  0.37778000  0.54409000  1
  C  C405  1  0.54879000  0.60397000  0.86843000  1
  C  C406  1  0.49839000  0.18731000  0.61536000  1
  C  C407  1  0.78968000  0.32005000  0.19161000  1
  C  C408  1  0.09059000  0.64220000  0.75739000  1
  C  C409  1  0.65807000  0.40341000  0.44718000  1
  C  C410  1  0.91118000  0.26779000  0.12797000  1
  C  C411  1  0.96770000  0.14381000  0.09684000  1
  C  C412  1  0.43189000  0.25403000  0.63829000  1
  C  C413  1  0.94433000  0.80048000  0.91638000  1
  C  C414  1  0.88962000  0.92555000  0.93716000  1
  C  C415  1  0.74105000  0.66300000  0.61833000  1
  C  C416  1  0.36944000  0.38155000  0.65221000  1
  C  C417  1  0.69619000  0.06528000  0.83057000  1
  C  C418  1  0.48482000  0.87843000  0.36087000  1
  C  C419  1  0.54493000  0.94888000  0.93262000  1
  C  C420  1  0.30380000  0.93472000  0.16943000  1
  C  C421  1  0.69582000  0.37316000  0.58606000  1
  C  C422  1  0.34192000  0.59660000  0.55281000  1
  C  C423  1  0.32172000  0.58208000  0.60113000  1
  C  C424  1  0.13628000  0.87872000  0.13906000  1
  C  C425  1  0.61140000  0.85562000  0.59684000  1
  C  C426  1  0.51639000  0.37688000  0.95452000  1
  C  C427  1  0.87958000  0.31905000  0.80816000  1
  C  C428  1  0.31971000  0.97175000  0.03196000  1
  C  C429  1  0.47182000  0.05260000  0.89140000  1
  C  C430  1  0.75065000  0.99381000  0.98245000  1
  C  C431  1  0.85997000  0.96303000  0.44359000  1
  C  C432  1  0.48448000  0.56121000  0.06967000  1
  C  C433  1  0.76680000  0.18642000  0.93102000  1
  C  C434  1  0.52764000  0.53342000  0.10330000  1
  C  C435  1  0.75083000  0.28327000  0.75665000  1
  C  C436  1  0.22928000  0.87741000  0.04688000  1
  C  C437  1  0.54467000  0.43943000  0.56875000  1
  C  C438  1  0.39030000  0.31951000  0.30757000  1
  C  C439  1  0.26027000  0.64806000  0.25806000  1
  C  C440  1  0.61151000  0.73993000  0.66642000  1
  C  C441  1  0.82495000  0.72238000  0.70518000  1
  C  C442  1  0.42973000  0.65735000  0.93412000  1
  C  C443  1  0.93352000  0.94937000  0.59433000  1
  C  C444  1  0.24087000  0.28924000  0.26742000  1
  C  C445  1  0.50864000  0.59924000  0.28603000  1
  C  C446  1  0.79027000  0.96094000  0.47280000  1
  C  C447  1  0.64453000  0.12582000  0.85993000  1
  C  C448  1  0.61135000  0.13950000  0.72361000  1
  C  C449  1  0.74477000  0.32000000  0.87122000  1
  C  C450  1  0.73449000  0.60591000  0.64573000  1
  C  C451  1  0.74504000  0.91972000  0.67450000  1
  C  C452  1  0.05838000  0.33893000  0.18975000  1
  C  C453  1  0.94163000  0.66107000  0.81025000  1
  C  C454  1  0.62198000  0.05703000  0.57075000  1
  C  C455  1  0.77070000  0.12260000  0.95312000  1
  C  C456  1  0.35637000  0.80808000  0.15331000  1
  C  C457  1  0.82124000  0.05683000  0.92917000  1
  C  C458  1  0.67677000  0.96325000  0.05633000  1
  C  C459  1  0.89843000  0.85267000  0.81413000  1
  C  C460  1  0.81430000  0.18722000  0.88472000  1
  C  C461  1  0.60696000  0.35791000  0.38445000  1
  C  C462  1  0.57106000  0.56595000  0.11190000  1
  C  C463  1  0.58582000  0.58378000  0.81715000  1
  C  C464  1  0.42893000  0.43405000  0.88810000  1
  C  C465  1  0.86061000  0.03101000  0.50262000  1
  C  C466  1  0.61680000  0.00052000  0.86987000  1
  C  C467  1  0.23142000  0.35898000  0.25723000  1
  C  C468  1  0.00534000  0.94895000  0.56703000  1
  C  C469  1  0.60968000  0.68050000  0.69243000  1
  C  C470  1  0.25032000  0.86085000  0.22363000  1
  C  C471  1  0.44010000  0.53284000  0.39720000  1
  C  C472  1  0.11685000  0.19062000  0.30741000  1
  C  C473  1  0.74923000  0.85188000  0.68613000  1
  C  C474  1  0.75438000  0.80108000  0.58338000  1
  C  C475  1  0.56114000  0.59734000  0.94856000  1
  C  C476  1  0.36251000  0.25395000  0.67080000  1
  C  C477  1  0.65291000  0.39581000  0.36698000  1
  C  C478  1  0.96796000  0.91951000  0.92278000  1
  C  C479  1  0.45924000  0.72772000  0.28780000  1
  N  N480  1  0.80903000  0.00080000  0.65795000  1
  N  N481  1  0.31584000  0.00759000  0.45205000  1
  N  N482  1  0.30294000  0.38152000  0.68323000  1
  N  N483  1  0.69705000  0.61848000  0.31677000  1
  N  N484  1  0.68417000  0.99240000  0.54795000  1
  N  N485  1  0.81381000  0.38204000  0.81695000  1
  N  N486  1  0.83792000  0.58252000  0.72696000  1
  N  N487  1  0.41994000  0.40945000  0.74339000  1
  N  N488  1  0.78416000  0.38639000  0.18164000  1
  N  N489  1  0.66920000  0.40995000  0.75659000  1
  N  N490  1  0.32979000  0.38573000  0.31754000  1
  N  N491  1  0.16205000  0.41750000  0.27304000  1
  N  N492  1  0.69042000  0.00010000  0.84188000  1
  N  N493  1  0.82338000  0.99222000  0.95178000  1
  N  N494  1  0.17661000  0.00778000  0.04822000  1
  N  N495  1  0.58007000  0.59055000  0.25660000  1
  N  N496  1  0.21583000  0.61362000  0.81836000  1
  N  N497  1  0.18619000  0.61796000  0.18304000  1
  N  N498  1  0.33078000  0.59006000  0.24341000  1
  N  N499  1  0.08003000  0.58325000  0.77286000  1
  N  N500  1  0.19095000  0.99921000  0.34205000  1
  N  N501  1  0.91997000  0.41676000  0.22714000  1
  N  N502  1  0.30956000  0.99991000  0.15812000  1
  N  N503  1  0.67019000  0.61428000  0.68246000  1
  O  O504  1  0.40490000  0.50741000  0.82143000  1
  O  O505  1  0.41376000  0.49237000  0.32119000  1
  O  O506  1  0.66971000  0.55279000  0.14949000  1
  O  O507  1  0.66203000  0.54941000  0.80206000  1
  O  O508  1  0.59508000  0.49261000  0.17858000  1
  O  O509  1  0.33794000  0.45060000  0.19792000  1
  O  O510  1  0.53963000  0.59935000  0.79038000  1
  O  O511  1  0.58917000  0.34842000  0.51111000  1
  O  O512  1  0.56203000  0.34791000  0.98717000  1
  O  O513  1  0.41083000  0.65158000  0.48889000  1
  O  O514  1  0.33031000  0.44720000  0.85049000  1
  O  O515  1  0.43796000  0.65210000  0.01283000  1
  O  O516  1  0.72045000  0.44820000  0.64951000  1
  O  O517  1  0.27953000  0.55180000  0.35049000  1
  O  O518  1  0.29070000  0.54722000  0.69860000  1
  O  O519  1  0.64162000  0.39788000  0.28854000  1
  O  O520  1  0.70929000  0.45278000  0.30140000  1
  O  O521  1  0.58621000  0.50765000  0.67881000  1
  O  O522  1  0.35836000  0.60213000  0.71146000  1
  O  O523  1  0.46032000  0.40071000  0.20962000  1
