# generated using pymatgen
data_H32C55(NO)8
_symmetry_space_group_name_H-M   'P 1'
_cell_length_a   43.70446621
_cell_length_b   43.70411023
_cell_length_c   43.70451704
_cell_angle_alpha   109.47265684
_cell_angle_beta   109.47186290
_cell_angle_gamma   109.46843508
_symmetry_Int_Tables_number   1
_chemical_formula_structural   H32C55(NO)8
_chemical_formula_sum   'H192 C330 N48 O48'
_cell_volume   64262.30916244
_cell_formula_units_Z   6
loop_
 _symmetry_equiv_pos_site_id
 _symmetry_equiv_pos_as_xyz
  1  'x, y, z'
loop_
 _atom_site_type_symbol
 _atom_site_label
 _atom_site_symmetry_multiplicity
 _atom_site_fract_x
 _atom_site_fract_y
 _atom_site_fract_z
 _atom_site_occupancy
  C  1  1  0.30045950  0.76778650  0.41561800  1
  C  2  1  0.32884100  0.79586400  0.41580000  1
  C  3  1  0.37891400  0.79790650  0.46792550  1
  C  4  1  0.35100950  0.76973800  0.46813050  1
  C  5  1  0.36280100  0.75716700  0.49352500  1
  C  6  1  0.40104350  0.77141750  0.51775200  1
  C  7  1  0.42824250  0.80010100  0.51798250  1
  C  8  1  0.41725250  0.81300200  0.49309350  1
  C  9  1  0.31877500  0.80902300  0.39061900  1
  C  10  1  0.28098950  0.79515100  0.36574650  1
  C  11  1  0.25253150  0.76819350  0.36598300  1
  C  12  1  0.26249600  0.75419400  0.39022700  1
  C  13  1  0.29468450  0.71130650  0.41757700  1
  C  14  1  0.26679650  0.68355650  0.41820200  1
  C  15  1  0.26422050  0.73353800  0.46558350  1
  C  16  1  0.29258350  0.76203850  0.46618500  1
  C  17  1  0.24847650  0.74327950  0.48817900  1
  C  18  1  0.26025300  0.78090100  0.51110700  1
  C  19  1  0.28811150  0.80972050  0.51192900  1
  C  20  1  0.30426800  0.79996000  0.48991300  1
  C  21  1  0.30886400  0.69924650  0.39384050  1
  C  22  1  0.29660900  0.66107200  0.37184100  1
  C  23  1  0.26863900  0.63404850  0.37270150  1
  C  24  1  0.25394450  0.64521400  0.39562350  1
  C  37  1  0.30967700  0.75271100  0.44187900  1
  C  38  1  0.25018000  0.69321800  0.44190000  1
  C  41  1  0.36922800  0.81222350  0.44185450  1
  C  48  1  0.81340450  0.23021700  0.46625850  1
  C  49  1  0.78503550  0.20205600  0.46600450  1
  C  50  1  0.73494600  0.20409250  0.41797150  1
  C  51  1  0.76284100  0.23215900  0.41765500  1
  C  52  1  0.75103600  0.24573900  0.39327100  1
  C  53  1  0.71279250  0.23174300  0.36931550  1
  C  54  1  0.68560350  0.20481350  0.37084700  1
  C  55  1  0.69660650  0.19093950  0.39475800  1
  C  56  1  0.79511100  0.18696800  0.48925600  1
  C  57  1  0.83290050  0.19987650  0.51315000  1
  C  58  1  0.86135100  0.22854350  0.51461350  1
  C  59  1  0.85137300  0.24278700  0.49061700  1
  C  60  1  0.81914600  0.23788850  0.41551750  1
  C  61  1  0.84703000  0.26637900  0.41562500  1
  C  62  1  0.84964400  0.31638150  0.46817850  1
  C  63  1  0.82128300  0.28864200  0.46834000  1
  C  64  1  0.86541050  0.35472750  0.49365500  1
  C  65  1  0.85366400  0.36591000  0.51952100  1
  C  66  1  0.82580200  0.33889500  0.52050000  1
  C  67  1  0.80962350  0.30071650  0.49459300  1
  C  68  1  0.80495800  0.19996050  0.38930150  1
  C  69  1  0.81720450  0.19018650  0.36338100  1
  C  70  1  0.84517050  0.21899300  0.36429750  1
  C  71  1  0.85986850  0.25662100  0.39012850  1
  C  84  1  0.80417600  0.24723300  0.44194200  1
  C  85  1  0.86366350  0.30670250  0.44188700  1
  C  88  1  0.74464600  0.18773850  0.44200550  1
  C  95  1  0.82677350  0.52622600  0.23601350  1
  C  96  1  0.85496800  0.52605750  0.26392650  1
  C  97  1  0.85295750  0.47393950  0.21387100  1
  C  98  1  0.82485550  0.47372700  0.18548250  1
  C  99  1  0.81126800  0.44832600  0.14752000  1
  C  100  1  0.82529000  0.42410100  0.13756900  1
  C  101  1  0.85226750  0.42389300  0.16603750  1
  C  102  1  0.86614700  0.44878500  0.20382000  1
  C  103  1  0.87005950  0.55123800  0.30226150  1
  C  104  1  0.85713650  0.57610950  0.31323600  1
  C  105  1  0.82843450  0.57585150  0.28602600  1
  C  106  1  0.81418400  0.55160900  0.24779000  1
  C  107  1  0.81905200  0.52425950  0.17757450  1
  C  108  1  0.79053600  0.52362200  0.14918900  1
  C  109  1  0.74058500  0.47623350  0.15178550  1
  C  110  1  0.76835300  0.47564050  0.17969050  1
  C  111  1  0.70224750  0.45363200  0.13893050  1
  C  112  1  0.69110350  0.43071050  0.15363300  1
  C  113  1  0.71814650  0.42988750  0.18162300  1
  C  114  1  0.75631600  0.45190600  0.19388000  1
  C  115  1  0.85696700  0.54801050  0.18926450  1
  C  116  1  0.86670650  0.57000800  0.17308750  1
  C  117  1  0.83787250  0.56914200  0.14519650  1
  C  118  1  0.80025550  0.54619900  0.13342350  1
  C  131  1  0.80975100  0.49996300  0.19468300  1
  C  132  1  0.75022150  0.49991250  0.13514500  1
  C  135  1  0.86931850  0.50001200  0.25425650  1
  C  142  1  0.28912050  0.47568350  0.64783600  1
  C  143  1  0.26102350  0.47595450  0.61992600  1
  C  144  1  0.25896300  0.52398950  0.66999050  1
  C  145  1  0.28714750  0.52428100  0.69837550  1
  C  146  1  0.29971150  0.54864900  0.73633950  1
  C  147  1  0.28544000  0.57262300  0.74630000  1
  C  148  1  0.25675550  0.57112850  0.71783600  1
  C  149  1  0.24385450  0.54722400  0.68005050  1
  C  150  1  0.24786000  0.45270850  0.58159050  1
  C  151  1  0.26175050  0.42880650  0.57060800  1
  C  152  1  0.28872000  0.42732600  0.59781400  1
  C  153  1  0.30272650  0.45131800  0.63605250  1
  C  154  1  0.34559300  0.52640550  0.70627350  1
  C  155  1  0.37334800  0.52626850  0.73464650  1
  C  156  1  0.32337850  0.47370750  0.73205100  1
  C  157  1  0.29487200  0.47357300  0.70415400  1
  C  158  1  0.31364400  0.44821650  0.74489750  1
  C  159  1  0.27602550  0.42236400  0.73020050  1
  C  160  1  0.24720200  0.42141800  0.70222200  1
  C  161  1  0.25695350  0.44733550  0.68996700  1
  C  162  1  0.35764800  0.55264800  0.69459800  1
  C  163  1  0.39582150  0.57857000  0.71077250  1
  C  164  1  0.42285000  0.57760700  0.73864100  1
  C  165  1  0.41168900  0.55175550  0.75040650  1
  C  178  1  0.30418950  0.49998600  0.68916650  1
  C  179  1  0.36369550  0.49998500  0.74868050  1
  C  182  1  0.24464350  0.49996800  0.62960550  1
  C  189  1  0.53267800  0.70591300  0.17410000  1
  C  190  1  0.53295800  0.67799900  0.14601400  1
  C  191  1  0.58097900  0.72805300  0.14393600  1
  C  192  1  0.58126850  0.75644300  0.17211450  1
  C  193  1  0.60563350  0.79440150  0.18466800  1
  C  194  1  0.62960300  0.80435250  0.17039150  1
  C  195  1  0.62810350  0.77588350  0.14170600  1
  C  196  1  0.60420500  0.73810150  0.12881850  1
  C  197  1  0.50972450  0.63966500  0.13286350  1
  C  198  1  0.48583700  0.62868950  0.14676850  1
  C  199  1  0.48433850  0.65589650  0.17371600  1
  C  200  1  0.50831600  0.69413500  0.18770800  1
  C  201  1  0.58339700  0.76435600  0.23056500  1
  C  202  1  0.58326400  0.79273750  0.25831650  1
  C  203  1  0.53069950  0.79013050  0.20833800  1
  C  204  1  0.53056300  0.76222900  0.17983700  1
  C  205  1  0.50520900  0.80298050  0.19860050  1
  C  206  1  0.47935050  0.78827300  0.16097950  1
  C  207  1  0.47840600  0.76029050  0.13215850  1
  C  208  1  0.50432650  0.74803850  0.14191500  1
  C  209  1  0.60964050  0.75268200  0.24262650  1
  C  210  1  0.63555350  0.76885150  0.28080200  1
  C  211  1  0.63461150  0.79674350  0.30782600  1
  C  212  1  0.60875750  0.80850800  0.29665950  1
  C  225  1  0.55697600  0.74724200  0.18916100  1
  C  226  1  0.55698500  0.80677200  0.24865800  1
  C  229  1  0.55696650  0.68766950  0.12963000  1
  C  236  1  0.58317050  0.29407050  0.71167000  1
  C  237  1  0.58296050  0.32197550  0.73983200  1
  C  238  1  0.53085150  0.27190300  0.73780750  1
  C  239  1  0.53067700  0.24352300  0.70973500  1
  C  240  1  0.50529450  0.20555750  0.69615000  1
  C  241  1  0.48105600  0.19559050  0.71015350  1
  C  242  1  0.48079650  0.22405250  0.73708700  1
  C  243  1  0.50567150  0.26183750  0.75096600  1
  C  244  1  0.60811300  0.36031450  0.75491050  1
  C  245  1  0.63298350  0.37130000  0.74199050  1
  C  246  1  0.63276750  0.34409850  0.71332100  1
  C  247  1  0.60856350  0.30585800  0.69909450  1
  C  248  1  0.58125350  0.23566150  0.70400400  1
  C  249  1  0.58064900  0.20727750  0.67551350  1
  C  250  1  0.53325200  0.20981700  0.62550800  1
  C  251  1  0.53263000  0.23772250  0.65324850  1
  C  252  1  0.51066700  0.19693900  0.58716100  1
  C  253  1  0.48773750  0.21162150  0.57597900  1
  C  254  1  0.48689150  0.23962150  0.60299300  1
  C  255  1  0.50889350  0.25189650  0.64117200  1
  C  256  1  0.60499650  0.24737800  0.74193150  1
  C  257  1  0.62703050  0.23124350  0.75171000  1
  C  258  1  0.62618800  0.20334900  0.72290300  1
  C  259  1  0.60324950  0.19154300  0.68527250  1
  C  272  1  0.55693300  0.25273600  0.69465700  1
  C  273  1  0.55695450  0.19320750  0.63518900  1
  C  276  1  0.55689950  0.31229100  0.75416050  1
  C  565  1  0.43939350  0.09696000  0.67959250  1
  C  566  1  0.40095350  0.08491900  0.66739950  1
  C  567  1  0.37412500  0.04655750  0.64752850  1
  C  568  1  0.38510100  0.01924800  0.63952800  1
  C  569  1  0.42340400  0.03099400  0.65221700  1
  C  570  1  0.45014350  0.06931000  0.67202650  1
  C  573  1  0.35812400  0.98044900  0.61717400  1
  C  574  1  0.33472250  0.96465000  0.57806550  1
  C  575  1  0.31029450  0.92543450  0.55544500  1
  C  576  1  0.30898800  0.90194800  0.57113700  1
  C  577  1  0.33179200  0.91789700  0.61000000  1
  C  578  1  0.35657500  0.95698500  0.63327900  1
  C  589  1  0.28744450  0.86372800  0.54867950  1
  C  590  1  0.46628450  0.13439000  0.69669350  1
  C  593  1  0.67449000  0.35515550  0.65638350  1
  C  594  1  0.71292550  0.38138850  0.68280400  1
  C  595  1  0.73977250  0.38838600  0.67129550  1
  C  596  1  0.72882250  0.36944950  0.63301400  1
  C  597  1  0.69052850  0.34381450  0.60644100  1
  C  598  1  0.66376450  0.33686350  0.61798600  1
  C  601  1  0.75581800  0.37409600  0.62121500  1
  C  602  1  0.77923850  0.35841300  0.62883250  1
  C  603  1  0.80366950  0.36023300  0.61404950  1
  C  604  1  0.80499550  0.37726300  0.59189750  1
  C  605  1  0.78218800  0.39332100  0.58504800  1
  C  606  1  0.75736500  0.39175950  0.59930850  1
  C  617  1  0.82652900  0.37634650  0.57520850  1
  C  618  1  0.64757700  0.34532000  0.66688800  1
  C  621  1  0.69772650  0.90294600  0.22734950  1
  C  622  1  0.69759550  0.91500200  0.20096450  1
  C  623  1  0.71604350  0.95336900  0.21250650  1
  C  624  1  0.73529600  0.98066650  0.25078750  1
  C  625  1  0.73622550  0.96890700  0.27733250  1
  C  626  1  0.71775750  0.93058700  0.26574950  1
  C  629  1  0.75170250  0.01946700  0.26261350  1
  C  630  1  0.72835900  0.03522300  0.25496600  1
  C  631  1  0.74491300  0.07443400  0.26974500  1
  C  632  1  0.78408300  0.09796000  0.29196500  1
  C  633  1  0.80703350  0.08205350  0.29887000  1
  C  634  1  0.79126550  0.04297050  0.28456800  1
  C  645  1  0.79979800  0.13617550  0.30863350  1
  C  646  1  0.67744050  0.86550700  0.21679950  1
  C  649  1  0.41628000  0.64480700  0.20429300  1
  C  650  1  0.41643900  0.61856000  0.21648300  1
  C  651  1  0.39793050  0.61157550  0.23633200  1
  C  652  1  0.37861000  0.63053600  0.24433100  1
  C  653  1  0.37769800  0.65618650  0.23168350  1
  C  654  1  0.39619800  0.66312500  0.21187100  1
  C  657  1  0.36215900  0.62589800  0.26667600  1
  C  658  1  0.38545600  0.64157350  0.30577950  1
  C  659  1  0.36885050  0.63975400  0.32838850  1
  C  660  1  0.32967000  0.62273550  0.31268350  1
  C  661  1  0.30676600  0.60669000  0.27381900  1
  C  662  1  0.32258900  0.60824750  0.25055950  1
  C  673  1  0.31389600  0.62364650  0.33513250  1
  C  674  1  0.43662200  0.65462450  0.18721050  1
  C  677  1  0.70163050  0.26220300  0.30118050  1
  C  678  1  0.67536900  0.27438350  0.30130050  1
  C  679  1  0.66845600  0.29429150  0.28283850  1
  C  680  1  0.68748450  0.30233050  0.26358500  1
  C  681  1  0.71310750  0.28964850  0.26266800  1
  C  682  1  0.72000050  0.26980850  0.28114900  1
  C  685  1  0.68289150  0.32470650  0.24715900  1
  C  686  1  0.69857700  0.36380600  0.27048300  1
  C  687  1  0.69679400  0.38644850  0.25391250  1
  C  688  1  0.67984100  0.37078450  0.21473850  1
  C  689  1  0.66380300  0.33192800  0.19180500  1
  C  690  1  0.66528200  0.30863000  0.20759300  1
  C  701  1  0.68078650  0.39327000  0.19900450  1
  C  702  1  0.71136750  0.24505450  0.32147300  1
  C  705  1  0.95999000  0.28548550  0.58265350  1
  C  706  1  0.97202000  0.25907300  0.58246900  1
  C  707  1  0.01037900  0.27059300  0.60095600  1
  C  708  1  0.03769650  0.30887300  0.62027650  1
  C  709  1  0.02596250  0.33543800  0.62121450  1
  C  710  1  0.98764900  0.32388250  0.60273750  1
  C  713  1  0.07649350  0.32068250  0.63670500  1
  C  714  1  0.09227950  0.31306650  0.61338700  1
  C  715  1  0.13149400  0.32785600  0.62997300  1
  C  716  1  0.15498650  0.35001500  0.66915150  1
  C  717  1  0.13904550  0.35686550  0.69207500  1
  C  718  1  0.09996500  0.34259700  0.67627500  1
  C  729  1  0.19320800  0.36670150  0.68490950  1
  C  730  1  0.92256550  0.27496850  0.56233000  1
  C  733  1  0.41213300  0.71447050  0.55945450  1
  C  734  1  0.43837500  0.74088250  0.59789150  1
  C  735  1  0.44535800  0.72936550  0.62473250  1
  C  736  1  0.42641800  0.69108250  0.61376950  1
  C  737  1  0.40081400  0.66451250  0.57546750  1
  C  738  1  0.39385100  0.67607000  0.54871500  1
  C  741  1  0.43105650  0.67927450  0.64075800  1
  C  742  1  0.41533900  0.68686350  0.66414950  1
  C  743  1  0.41715450  0.67208150  0.68858100  1
  C  744  1  0.43417200  0.64991700  0.68990100  1
  C  745  1  0.45024650  0.64307900  0.66710850  1
  C  746  1  0.44873250  0.65737800  0.64232150  1
  C  757  1  0.43326100  0.63323600  0.71144300  1
  C  758  1  0.40230650  0.72498900  0.53255150  1
  C  761  1  0.15392100  0.73769000  0.32433500  1
  C  762  1  0.14187550  0.72549150  0.28589300  1
  C  763  1  0.10351350  0.70561000  0.25906350  1
  C  764  1  0.07620500  0.69758300  0.27003700  1
  C  765  1  0.08795450  0.71023850  0.30833700  1
  C  766  1  0.12627250  0.73008700  0.33508350  1
  C  769  1  0.03740600  0.67521050  0.24305750  1
  C  770  1  0.02162950  0.63611350  0.21963600  1
  C  771  1  0.98241550  0.61347900  0.19520750  1
  C  772  1  0.95891350  0.62915450  0.19389100  1
  C  773  1  0.97484600  0.66801550  0.21670850  1
  C  774  1  0.01392650  0.69129850  0.24152300  1
  C  785  1  0.92069550  0.60668150  0.17235200  1
  C  786  1  0.19135150  0.75480950  0.35123000  1
  C  789  1  0.34239050  0.64069350  0.84493000  1
  C  790  1  0.31599250  0.64053750  0.85697200  1
  C  791  1  0.32752300  0.65901900  0.89533500  1
  C  792  1  0.36580750  0.67832750  0.92264300  1
  C  793  1  0.39236350  0.67927900  0.91089450  1
  C  794  1  0.38079100  0.66077850  0.87257850  1
  C  797  1  0.37762800  0.69476400  0.96144300  1
  C  798  1  0.37002450  0.67144950  0.97723400  1
  C  799  1  0.38481300  0.68803450  0.01644850  1
  C  800  1  0.40699650  0.72721200  0.03994250  1
  C  801  1  0.41385300  0.75013350  0.02400150  1
  C  802  1  0.39954500  0.73433200  0.98491400  1
  C  813  1  0.42368450  0.74296650  0.07816500  1
  C  814  1  0.33185500  0.62036900  0.80749900  1
  C  817  1  0.31934550  0.35929600  0.58674650  1
  C  818  1  0.33155600  0.35947750  0.56051750  1
  C  819  1  0.35139100  0.34095500  0.55351600  1
  C  820  1  0.35935650  0.32159950  0.57244500  1
  C  821  1  0.34669100  0.32066650  0.59807750  1
  C  822  1  0.32689200  0.33918150  0.60503250  1
  C  825  1  0.38169500  0.30513700  0.56779700  1
  C  826  1  0.42079950  0.32842200  0.58348650  1
  C  827  1  0.44339650  0.31180200  0.58166150  1
  C  828  1  0.42767650  0.27261650  0.56461700  1
  C  829  1  0.38880600  0.24972300  0.54855000  1
  C  830  1  0.36555900  0.26556200  0.55011800  1
  C  841  1  0.45010950  0.25682450  0.56551600  1
  C  842  1  0.30228300  0.37965500  0.59658800  1
  C  845  1  0.79478700  0.38245250  0.03896250  1
  C  846  1  0.78258800  0.34400950  0.02690450  1
  C  847  1  0.76267300  0.31718550  0.98853750  1
  C  848  1  0.75463200  0.32816900  0.96123800  1
  C  849  1  0.76732550  0.36647600  0.97300150  1
  C  850  1  0.78717950  0.39321350  0.01132300  1
  C  853  1  0.73224400  0.30119850  0.92243750  1
  C  854  1  0.69314550  0.27779450  0.90667400  1
  C  855  1  0.67049250  0.25336750  0.86746100  1
  C  856  1  0.68614400  0.25206550  0.84394050  1
  C  857  1  0.72499900  0.27487250  0.85985150  1
  C  858  1  0.74830950  0.29965100  0.89893850  1
  C  869  1  0.66365100  0.23051800  0.80572100  1
  C  870  1  0.81194550  0.40934450  0.07640400  1
  C  873  1  0.77146950  0.61754350  0.29708600  1
  C  874  1  0.79788200  0.65598400  0.32331400  1
  C  875  1  0.78636200  0.68282300  0.33030400  1
  C  876  1  0.74807900  0.67186100  0.31136300  1
  C  877  1  0.72151400  0.63356250  0.28573350  1
  C  878  1  0.73307250  0.60680800  0.27879350  1
  C  881  1  0.73626850  0.69884850  0.31599900  1
  C  882  1  0.74386550  0.72225250  0.30029700  1
  C  883  1  0.72907300  0.74667800  0.30211100  1
  C  884  1  0.70693300  0.74801250  0.31915250  1
  C  885  1  0.70010250  0.72521950  0.33522900  1
  C  886  1  0.71437150  0.70040500  0.33367350  1
  C  897  1  0.69024250  0.76954750  0.31824300  1
  C  898  1  0.78198900  0.59064000  0.28725500  1
  H  25  1  0.25841050  0.60607400  0.35638450  1
  H  26  1  0.23366100  0.62501250  0.39571550  1
  H  27  1  0.22819650  0.72291250  0.48811000  1
  H  28  1  0.24860850  0.78699950  0.52743500  1
  H  29  1  0.32471100  0.82094250  0.49076650  1
  H  30  1  0.32899500  0.71882900  0.39298100  1
  H  31  1  0.34314300  0.73691800  0.49417000  1
  H  32  1  0.45614450  0.81117600  0.53566350  1
  H  33  1  0.43757150  0.83344000  0.49328450  1
  H  34  1  0.24159700  0.73391600  0.38960300  1
  H  35  1  0.33902800  0.82912100  0.39040100  1
  H  36  1  0.27438900  0.80534000  0.34803400  1
  H  39  1  0.21992800  0.67958350  0.42343250  1
  H  40  1  0.25503000  0.68144950  0.46038050  1
  H  42  1  0.38122800  0.84248250  0.45867750  1
  H  43  1  0.38264200  0.80736050  0.42501650  1
  H  72  1  0.85539500  0.21287700  0.34655200  1
  H  73  1  0.88015300  0.27697900  0.39019400  1
  H  74  1  0.88569450  0.37492200  0.49355550  1
  H  75  1  0.86533150  0.39388500  0.53726450  1
  H  76  1  0.78918950  0.28114300  0.49515550  1
  H  77  1  0.78484050  0.17898650  0.38878100  1
  H  78  1  0.77068550  0.26601050  0.39264100  1
  H  79  1  0.65769850  0.19461500  0.35405150  1
  H  80  1  0.67629500  0.17084750  0.39492150  1
  H  81  1  0.87226500  0.26303450  0.49120250  1
  H  82  1  0.77486500  0.16652850  0.48913650  1
  H  83  1  0.83950900  0.18879150  0.52996750  1
  H  86  1  0.89391500  0.31847650  0.45849450  1
  H  87  1  0.85881500  0.32032200  0.42525700  1
  H  89  1  0.73267500  0.19260650  0.46028450  1
  H  90  1  0.73120950  0.15747750  0.42375000  1
  H  119  1  0.84395700  0.58544700  0.13352800  1
  H  120  1  0.77987800  0.54609750  0.11312150  1
  H  121  1  0.68203350  0.45369550  0.11863000  1
  H  122  1  0.66313450  0.41437050  0.14339900  1
  H  123  1  0.77591000  0.45106400  0.21401800  1
  H  124  1  0.87796050  0.54887600  0.20971050  1
  H  125  1  0.79096900  0.44767400  0.12661300  1
  H  126  1  0.86248200  0.40620050  0.15944650  1
  H  127  1  0.88626250  0.44859100  0.22408150  1
  H  128  1  0.79391000  0.55222100  0.22812100  1
  H  129  1  0.89052700  0.55146300  0.32258900  1
  H  130  1  0.86822400  0.59381200  0.34113700  1
  H  133  1  0.73842800  0.51837300  0.13997000  1
  H  134  1  0.73659800  0.48143050  0.10489750  1
  H  136  1  0.86448650  0.48318800  0.26768950  1
  H  137  1  0.89957250  0.51685750  0.26625000  1
  H  166  1  0.45082300  0.59535150  0.75029650  1
  H  167  1  0.43189400  0.55166950  0.77069350  1
  H  168  1  0.33401450  0.44829550  0.76518600  1
  H  169  1  0.26993200  0.40461600  0.74042500  1
  H  170  1  0.23596800  0.44679200  0.66983500  1
  H  171  1  0.33806450  0.55318900  0.67415050  1
  H  172  1  0.31997200  0.54925650  0.75724150  1
  H  173  1  0.24564400  0.58792300  0.72443200  1
  H  174  1  0.22339100  0.54707250  0.65979450  1
  H  175  1  0.32302400  0.45072600  0.65571700  1
  H  176  1  0.22774550  0.45283900  0.56126450  1
  H  177  1  0.25154750  0.41199300  0.54270550  1
  H  180  1  0.37732800  0.48336700  0.74383600  1
  H  181  1  0.37546950  0.51659850  0.77893000  1
  H  183  1  0.21438950  0.48169700  0.61617950  1
  H  184  1  0.24948200  0.51822750  0.61760950  1
  H  213  1  0.65236050  0.80840900  0.33579950  1
  H  214  1  0.60867800  0.82880600  0.31686100  1
  H  215  1  0.50529600  0.82327800  0.21896900  1
  H  216  1  0.46161250  0.79850750  0.15488000  1
  H  217  1  0.50377850  0.72789900  0.12093250  1
  H  218  1  0.61017850  0.73222800  0.22304450  1
  H  219  1  0.60625350  0.81531000  0.20493550  1
  H  220  1  0.64491150  0.78247250  0.13060700  1
  H  221  1  0.60406400  0.71784200  0.10836800  1
  H  222  1  0.50771000  0.71380150  0.20799150  1
  H  223  1  0.50986150  0.61933850  0.11275800  1
  H  224  1  0.46901850  0.60078800  0.13656150  1
  H  227  1  0.54037100  0.80194300  0.26229700  1
  H  228  1  0.57359950  0.83702250  0.26042400  1
  H  230  1  0.53869500  0.67423150  0.09937450  1
  H  231  1  0.57523350  0.67568250  0.13448000  1
  H  260  1  0.64252550  0.19171650  0.72901700  1
  H  261  1  0.60317450  0.17124650  0.66491500  1
  H  262  1  0.51075700  0.17664350  0.56696750  1
  H  263  1  0.47142900  0.20138600  0.54800000  1
  H  264  1  0.50803750  0.27203950  0.66074500  1
  H  265  1  0.60585450  0.26783650  0.76290600  1
  H  266  1  0.50467600  0.18465900  0.67587400  1
  H  267  1  0.46310150  0.21745250  0.74729600  1
  H  268  1  0.50545400  0.28209100  0.77106400  1
  H  269  1  0.60920750  0.28619550  0.67884600  1
  H  270  1  0.60831150  0.38063500  0.77535550  1
  H  271  1  0.65067550  0.39920300  0.75307750  1
  H  274  1  0.57542650  0.19803700  0.62340950  1
  H  275  1  0.53849050  0.16295800  0.62157650  1
  H  277  1  0.54005650  0.32570100  0.74929950  1
  H  278  1  0.57373000  0.32429750  0.78441950  1
  H  571  1  0.43200350  0.01172600  0.64621050  1
  H  572  1  0.47753450  0.07670400  0.67988950  1
  H  579  1  0.29414300  0.91399350  0.52712350  1
  H  580  1  0.33122700  0.90097900  0.62159700  1
  H  581  1  0.39189200  0.10390700  0.67207000  1
  H  582  1  0.34646500  0.03868300  0.63834900  1
  H  591  1  0.49319400  0.14133850  0.70708650  1
  H  592  1  0.26210300  0.85067350  0.54527950  1
  H  599  1  0.68194850  0.32921350  0.57857600  1
  H  600  1  0.63638700  0.31730350  0.59797650  1
  H  607  1  0.81984400  0.34808900  0.61877700  1
  H  608  1  0.78271950  0.40545050  0.56866400  1
  H  609  1  0.72196600  0.39512050  0.71084750  1
  H  610  1  0.76742450  0.40688950  0.69109400  1
  H  619  1  0.62068050  0.32872850  0.64691100  1
  H  620  1  0.85181950  0.39833100  0.58742550  1
  H  627  1  0.74944800  0.98816800  0.30519800  1
  H  628  1  0.71821300  0.92318000  0.28573600  1
  H  635  1  0.72800600  0.08584500  0.26500300  1
  H  636  1  0.83554350  0.09900100  0.31525150  1
  H  637  1  0.68331550  0.89601900  0.17291550  1
  H  638  1  0.71475050  0.96125150  0.19272800  1
  H  647  1  0.68094250  0.85853650  0.23674700  1
  H  648  1  0.80925350  0.14922250  0.29624900  1
  H  655  1  0.36445000  0.67080300  0.23771000  1
  H  656  1  0.39576900  0.68269450  0.20406050  1
  H  663  1  0.38572050  0.65189100  0.35670650  1
  H  664  1  0.27825200  0.59456550  0.26222050  1
  H  665  1  0.43073200  0.60480800  0.21177900  1
  H  666  1  0.39920500  0.59306200  0.24547300  1
  H  675  1  0.43320500  0.67117300  0.17685400  1
  H  676  1  0.30417600  0.60168050  0.33847650  1
  H  683  1  0.72775000  0.29568200  0.24944400  1
  H  684  1  0.73953650  0.26194950  0.28070400  1
  H  691  1  0.70895200  0.41476400  0.27080600  1
  H  692  1  0.65167400  0.32035200  0.16329300  1
  H  693  1  0.66160100  0.26968300  0.31557900  1
  H  694  1  0.64996300  0.30346100  0.28412000  1
  H  703  1  0.72781000  0.23457700  0.31797300  1
  H  704  1  0.65892950  0.39682450  0.18950300  1
  H  711  1  0.04523750  0.36330350  0.63446500  1
  H  712  1  0.98026750  0.34388350  0.60318300  1
  H  719  1  0.14292850  0.32312700  0.61308850  1
  H  720  1  0.15597350  0.37324950  0.72058900  1
  H  721  1  0.95302450  0.23103000  0.56817450  1
  H  722  1  0.01824450  0.25080100  0.59966450  1
  H  731  1  0.91562100  0.29493150  0.56575950  1
  H  732  1  0.20627100  0.35442000  0.69456000  1
  H  739  1  0.38622800  0.63664300  0.56687600  1
  H  740  1  0.37432850  0.65606400  0.52132650  1
  H  747  1  0.40497500  0.67678000  0.70472500  1
  H  748  1  0.46242150  0.62673500  0.66768150  1
  H  749  1  0.45207300  0.76893300  0.60694700  1
  H  750  1  0.46382800  0.74916000  0.65239100  1
  H  759  1  0.38576000  0.70502100  0.50564500  1
  H  760  1  0.45520900  0.64550750  0.73677250  1
  H  767  1  0.06869000  0.70419700  0.31693400  1
  H  768  1  0.13366650  0.73790450  0.36246700  1
  H  775  1  0.97099000  0.58516600  0.17903000  1
  H  776  1  0.95791200  0.67959200  0.21618000  1
  H  777  1  0.16086600  0.73021950  0.27683950  1
  H  778  1  0.09563550  0.69646550  0.23140600  1
  H  787  1  0.19831500  0.76523150  0.37814450  1
  H  788  1  0.90762950  0.60327050  0.14700800  1
  H  795  1  0.42023150  0.69253900  0.93016250  1
  H  796  1  0.40078800  0.66125050  0.86518350  1
  H  803  1  0.38010500  0.67114950  0.02788350  1
  H  804  1  0.43021100  0.77864850  0.04092650  1
  H  805  1  0.28794200  0.62621150  0.83798250  1
  H  806  1  0.30773700  0.65770700  0.90320900  1
  H  815  1  0.35181450  0.62382700  0.80054650  1
  H  816  1  0.41136950  0.75255100  0.09122450  1
  H  823  1  0.35269550  0.30739450  0.61267200  1
  H  824  1  0.31906950  0.33873550  0.62459000  1
  H  831  1  0.47171600  0.32866050  0.59380850  1
  H  832  1  0.37719700  0.22120900  0.53640900  1
  H  833  1  0.32687950  0.37379950  0.54679200  1
  H  834  1  0.36054650  0.34224700  0.53501650  1
  H  843  1  0.29196450  0.37626850  0.61317200  1
  H  844  1  0.45333650  0.24697600  0.54349050  1
  H  851  1  0.76129200  0.37508300  0.95374200  1
  H  852  1  0.79504800  0.42060750  0.01873150  1
  H  859  1  0.64217750  0.23721600  0.85604550  1
  H  860  1  0.73656850  0.27430950  0.84291100  1
  H  861  1  0.78729650  0.33494450  0.04588700  1
  H  862  1  0.75349550  0.28952250  0.98065100  1
  H  871  1  0.82240400  0.43626100  0.08337200  1
  H  872  1  0.66009250  0.20510150  0.79267500  1
  H  879  1  0.69364900  0.62497500  0.27113300  1
  H  880  1  0.71306900  0.57942600  0.25923600  1
  H  887  1  0.73378750  0.76284200  0.28995550  1
  H  888  1  0.68372900  0.72576100  0.34737000  1
  H  889  1  0.82592850  0.66503200  0.33704750  1
  H  890  1  0.80615400  0.71047850  0.34880250  1
  H  899  1  0.76202050  0.56373700  0.27068750  1
  H  900  1  0.70248150  0.79485100  0.34021950  1
  N  44  1  0.30130550  0.84591300  0.53356350  1
  N  45  1  0.21689200  0.75531400  0.34263400  1
  N  46  1  0.41150950  0.75913850  0.54111500  1
  N  47  1  0.31119600  0.65262650  0.35023650  1
  N  91  1  0.81265950  0.34735050  0.54354400  1
  N  92  1  0.89699150  0.24082250  0.53735700  1
  N  93  1  0.70232450  0.24462750  0.34656000  1
  N  94  1  0.80265550  0.15399200  0.34039750  1
  N  138  1  0.70970950  0.40825200  0.19618050  1
  N  139  1  0.81614150  0.59920350  0.29648300  1
  N  140  1  0.81240050  0.40074050  0.10193000  1
  N  141  1  0.90289600  0.59162500  0.18625500  1
  N  185  1  0.21101150  0.39839900  0.68764350  1
  N  186  1  0.30160800  0.40457150  0.58734950  1
  N  187  1  0.29771450  0.59536800  0.78193850  1
  N  188  1  0.40426950  0.60157200  0.69758450  1
  N  232  1  0.45539650  0.74572550  0.09596600  1
  N  233  1  0.46158400  0.64543700  0.18660300  1
  N  234  1  0.65235500  0.83998800  0.18267100  1
  N  235  1  0.65858300  0.75569000  0.28924900  1
  N  279  1  0.46529850  0.25421700  0.59453850  1
  N  280  1  0.65612950  0.35456500  0.70104250  1
  N  281  1  0.45770150  0.15995100  0.69726650  1
  N  282  1  0.64867150  0.24445400  0.78790650  1
  N  583  1  0.37989850  0.97288600  0.67229750  1
  N  584  1  0.33709350  0.98803050  0.56193500  1
  N  611  1  0.73400800  0.40741700  0.59185400  1
  N  612  1  0.77687450  0.33990700  0.64983950  1
  N  639  1  0.81441750  0.02711000  0.29202750  1
  N  640  1  0.68885400  0.01180350  0.23392250  1
  N  667  1  0.29948200  0.59259900  0.21154800  1
  N  668  1  0.42496850  0.66006650  0.32192000  1
  N  695  1  0.64959700  0.26961550  0.18445450  1
  N  696  1  0.71704150  0.37991000  0.30999250  1
  N  723  1  0.08407650  0.35004350  0.69940100  1
  N  724  1  0.06889100  0.29205200  0.57387800  1
  N  751  1  0.46444100  0.64996750  0.61900750  1
  N  752  1  0.39681750  0.70785500  0.66176550  1
  N  779  1  0.02980450  0.73030800  0.26487950  1
  N  780  1  0.04502800  0.62000150  0.22199150  1
  N  807  1  0.40696700  0.75745900  0.96902100  1
  N  808  1  0.34901600  0.63193850  0.95384550  1
  N  835  1  0.32654350  0.24246650  0.53445600  1
  N  836  1  0.43695550  0.36793650  0.60200300  1
  N  863  1  0.78732300  0.32296950  0.91480450  1
  N  864  1  0.67705300  0.28016800  0.93008900  1
  N  891  1  0.70693850  0.67706400  0.34935150  1
  N  892  1  0.76486450  0.71988200  0.28178450  1
  O  585  1  0.30625050  0.98642150  0.54634400  1
  O  586  1  0.36093000  0.96676950  0.68795050  1
  O  587  1  0.40185050  0.96028750  0.67885200  1
  O  588  1  0.34749850  0.97950600  0.53832950  1
  O  613  1  0.80771700  0.35517250  0.67907950  1
  O  614  1  0.75294500  0.44204300  0.60471100  1
  O  615  1  0.71207850  0.39201250  0.55729900  1
  O  616  1  0.76648650  0.30590250  0.63091300  1
  O  641  1  0.67488200  0.01340250  0.20468050  1
  O  642  1  0.83621400  0.03326600  0.27921100  1
  O  643  1  0.83354250  0.03971100  0.32658150  1
  O  644  1  0.67373200  0.02029050  0.25281650  1
  O  669  1  0.43893200  0.64479050  0.33749150  1
  O  670  1  0.27770650  0.55797450  0.19585400  1
  O  671  1  0.28034200  0.60801450  0.20502750  1
  O  672  1  0.44005650  0.69407150  0.34554300  1
  O  697  1  0.70176700  0.39548350  0.32395550  1
  O  698  1  0.61498450  0.25396550  0.16265800  1
  O  699  1  0.66502800  0.26308550  0.16533350  1
  O  700  1  0.75105550  0.40352250  0.32511100  1
  O  725  1  0.07049900  0.26281550  0.55989750  1
  O  726  1  0.09018300  0.33718950  0.72117050  1
  O  727  1  0.09669600  0.38459800  0.71855600  1
  O  728  1  0.07740250  0.31097200  0.55878550  1
  O  753  1  0.41205550  0.73708900  0.69260550  1
  O  754  1  0.49906300  0.66283700  0.63798500  1
  O  755  1  0.44906100  0.61542050  0.59706050  1
  O  756  1  0.36280800  0.68891150  0.65135250  1
  O  781  1  0.04342100  0.60443600  0.19114500  1
  O  782  1  0.02369250  0.74598850  0.24594100  1
  O  783  1  0.01718350  0.73681250  0.28681600  1
  O  784  1  0.03652250  0.59638000  0.23238150  1
  O  809  1  0.31978450  0.61795400  0.95545550  1
  O  810  1  0.39411900  0.77923100  0.97515100  1
  O  811  1  0.44151650  0.77660850  0.98161700  1
  O  812  1  0.36794450  0.61685350  0.96235800  1
  O  837  1  0.45254500  0.38190950  0.58674450  1
  O  838  1  0.31085650  0.22070500  0.49982850  1
  O  839  1  0.32000150  0.22330850  0.54985000  1
  O  840  1  0.46056750  0.38300500  0.63600750  1
  O  865  1  0.66148200  0.24932450  0.92848450  1
  O  866  1  0.80296150  0.30399250  0.90865000  1
  O  867  1  0.79385350  0.34492550  0.90221000  1
  O  868  1  0.65344600  0.29057600  0.92160200  1
  O  893  1  0.79409750  0.75072500  0.29703550  1
  O  894  1  0.71980750  0.69601800  0.38397850  1
  O  895  1  0.67238900  0.65513200  0.33396200  1
  O  896  1  0.74592900  0.70947750  0.24777550  1
