# generated using pymatgen
data_H7(C3N)4
_symmetry_space_group_name_H-M   'P 1'
_cell_length_a   36.37530000
_cell_length_b   36.37530000
_cell_length_c   36.37530000
_cell_angle_alpha   90.00000000
_cell_angle_beta   90.00000000
_cell_angle_gamma   90.00000000
_symmetry_Int_Tables_number   1
_chemical_formula_structural   H7(C3N)4
_chemical_formula_sum   'H112 C192 N64'
_cell_volume   48130.43107076
_cell_formula_units_Z   16
loop_
 _symmetry_equiv_pos_site_id
 _symmetry_equiv_pos_as_xyz
  1  'x, y, z'
loop_
 _atom_site_type_symbol
 _atom_site_label
 _atom_site_symmetry_multiplicity
 _atom_site_fract_x
 _atom_site_fract_y
 _atom_site_fract_z
 _atom_site_occupancy
  H  7  1  0.06127100  0.02839800  0.98719800  1
  H  8  1  0.94589800  0.01656600  0.97687300  1
  H  9  1  0.00402300  0.08594800  0.90680600  1
  H  16  1  0.06125200  0.97808500  0.01909900  1
  H  17  1  0.00418100  0.92081300  0.09981200  1
  H  18  1  0.94598100  0.99036800  0.02999200  1
  H  29  1  0.44567900  0.97832700  0.48721800  1
  H  30  1  0.56101600  0.99046700  0.47683800  1
  H  31  1  0.50305900  0.92087600  0.40683400  1
  H  38  1  0.44559100  0.02867400  0.51906700  1
  H  39  1  0.50254200  0.08610600  0.59975400  1
  H  40  1  0.56087800  0.01656700  0.53002000  1
  H  51  1  0.23557700  0.81031400  0.23017800  1
  H  52  1  0.23166400  0.69396600  0.23393500  1
  H  53  1  0.17007000  0.75172200  0.15713600  1
  H  60  1  0.27161100  0.81035000  0.27614100  1
  H  61  1  0.33701200  0.75185700  0.34936100  1
  H  62  1  0.27529100  0.69398300  0.27274900  1
  H  73  1  0.27109600  0.19654500  0.72999900  1
  H  74  1  0.27537900  0.31286100  0.73413900  1
  H  75  1  0.33675600  0.25517500  0.65712000  1
  H  82  1  0.23549600  0.19648400  0.77631300  1
  H  83  1  0.16987500  0.25494000  0.84936800  1
  H  84  1  0.23134300  0.31281700  0.77256100  1
  H  95  1  0.77913700  0.19518300  0.76843400  1
  H  96  1  0.76610900  0.31023800  0.78038200  1
  H  97  1  0.83681600  0.25190000  0.84913500  1
  H  104  1  0.72723600  0.19518400  0.73887300  1
  H  105  1  0.66971100  0.25174300  0.65796400  1
  H  106  1  0.74048400  0.31017200  0.72656200  1
  H  117  1  0.72778300  0.81175800  0.26846800  1
  H  118  1  0.74065200  0.69667400  0.28033600  1
  H  119  1  0.66992000  0.75504900  0.34903100  1
  H  126  1  0.77960100  0.81174400  0.23883600  1
  H  127  1  0.83727800  0.75514800  0.15806800  1
  H  128  1  0.76644700  0.69673200  0.22661500  1
  H  139  1  0.56186300  0.52880400  0.48787800  1
  H  140  1  0.44657500  0.51688700  0.47700000  1
  H  141  1  0.50466700  0.58777600  0.40839800  1
  H  148  1  0.56182400  0.47770400  0.51860500  1
  H  149  1  0.50459300  0.41889500  0.59818700  1
  H  150  1  0.44658100  0.48992400  0.52966500  1
  H  161  1  0.94501600  0.47797900  0.98787500  1
  H  162  1  0.06029200  0.49000600  0.97698000  1
  H  163  1  0.00225000  0.41912000  0.90834000  1
  H  170  1  0.94501600  0.52908200  0.01862000  1
  H  171  1  0.00220000  0.58786400  0.09824500  1
  H  172  1  0.06026600  0.51694700  0.02965400  1
  H  183  1  0.90773500  0.91766500  0.18228300  1
  H  184  1  0.83952400  0.86054400  0.08480700  1
  H  186  1  0.94656900  0.94589600  0.13411700  1
  H  188  1  0.81206000  0.81987300  0.13176800  1
  H  195  1  0.59895900  0.08952600  0.68225200  1
  H  196  1  0.66756600  0.14624700  0.58481500  1
  H  198  1  0.56015500  0.06130600  0.63409000  1
  H  200  1  0.69508200  0.18689100  0.63179200  1
  H  207  1  0.34066300  0.64898500  0.42588000  1
  H  208  1  0.40425500  0.58916700  0.32688700  1
  H  210  1  0.31239400  0.68954800  0.37902400  1
  H  212  1  0.44605900  0.56325100  0.37404300  1
  H  219  1  0.16595900  0.35780400  0.92579400  1
  H  220  1  0.10263500  0.41790500  0.82679300  1
  H  222  1  0.19434900  0.31734800  0.87894900  1
  H  224  1  0.06085600  0.44393400  0.87399000  1
  H  231  1  0.60007800  0.91795900  0.32477000  1
  H  232  1  0.66731300  0.86012600  0.42250700  1
  H  234  1  0.56085400  0.94592900  0.37278600  1
  H  236  1  0.69507400  0.81961200  0.37554900  1
  H  243  1  0.90695400  0.08920300  0.82481300  1
  H  244  1  0.83944400  0.14675600  0.92253100  1
  H  246  1  0.94613500  0.06116800  0.87281600  1
  H  248  1  0.81163700  0.18722300  0.87555900  1
  H  255  1  0.16652400  0.64852600  0.08088400  1
  H  256  1  0.10229500  0.58939200  0.17987900  1
  H  258  1  0.19463400  0.68925100  0.12765300  1
  H  260  1  0.06071300  0.56317900  0.13266300  1
  H  267  1  0.34039900  0.35830900  0.58097200  1
  H  268  1  0.40453300  0.41764400  0.67991300  1
  H  270  1  0.31212400  0.31772400  0.62777800  1
  H  272  1  0.44616600  0.44372200  0.63263000  1
  H  279  1  0.10588700  0.09060300  0.83177400  1
  H  280  1  0.16747000  0.15511900  0.92904600  1
  H  282  1  0.06747500  0.06123400  0.87949100  1
  H  284  1  0.19490100  0.19480500  0.88122200  1
  H  291  1  0.40121800  0.91605700  0.33177500  1
  H  292  1  0.33937600  0.85169700  0.42898900  1
  H  294  1  0.43958200  0.94542300  0.37951600  1
  H  296  1  0.31192900  0.81209300  0.38113000  1
  H  303  1  0.66684600  0.34826400  0.57472800  1
  H  304  1  0.60994200  0.41655800  0.67227000  1
  H  306  1  0.69455200  0.30900900  0.62292600  1
  H  308  1  0.56903800  0.44381300  0.62537800  1
  H  315  1  0.84025000  0.65866700  0.07484800  1
  H  316  1  0.89683500  0.59001100  0.17232400  1
  H  318  1  0.81257400  0.69788900  0.12304400  1
  H  320  1  0.93769200  0.56270400  0.12539200  1
  H  327  1  0.40020100  0.09037700  0.67437000  1
  H  328  1  0.33956900  0.15585300  0.57714500  1
  H  330  1  0.43886400  0.06127900  0.62673400  1
  H  332  1  0.31186300  0.19520100  0.62504000  1
  H  339  1  0.10653600  0.91636700  0.17444300  1
  H  340  1  0.16737000  0.85104000  0.07724100  1
  H  342  1  0.06787600  0.94546700  0.12679100  1
  H  344  1  0.19514600  0.81175200  0.12517500  1
  H  351  1  0.83968900  0.34890500  0.93202400  1
  H  352  1  0.89708800  0.41638700  0.83420700  1
  H  354  1  0.81211800  0.30934800  0.88398000  1
  H  356  1  0.93787400  0.44391200  0.88104900  1
  H  363  1  0.66698100  0.65804300  0.43192500  1
  H  364  1  0.60978800  0.59023900  0.33421100  1
  H  366  1  0.69450200  0.69758700  0.38385400  1
  H  368  1  0.56903800  0.56272900  0.38111300  1
  C  1  1  0.00375300  0.01605500  0.98766000  1
  C  2  1  0.03676200  0.03267700  0.97431000  1
  C  3  1  0.03753200  0.05635100  0.94358100  1
  C  4  1  0.00405000  0.06638500  0.92707500  1
  C  5  1  0.97047300  0.05160000  0.93928700  1
  C  6  1  0.97080300  0.02673500  0.96909500  1
  C  10  1  0.00378200  0.99065400  0.01891800  1
  C  11  1  0.03679400  0.97391700  0.03211900  1
  C  12  1  0.03762800  0.95026700  0.06286500  1
  C  13  1  0.00418300  0.94035600  0.07952400  1
  C  14  1  0.97060200  0.95528100  0.06749200  1
  C  15  1  0.97088200  0.98010600  0.03765200  1
  C  23  1  0.50316900  0.99079400  0.48766900  1
  C  24  1  0.47019600  0.97408500  0.47433600  1
  C  25  1  0.46948100  0.95039000  0.44362000  1
  C  26  1  0.50299000  0.94040300  0.42713900  1
  C  27  1  0.53652700  0.95531400  0.43930400  1
  C  28  1  0.53614200  0.98020200  0.46909400  1
  C  32  1  0.50308600  0.01622300  0.51890200  1
  C  33  1  0.47004500  0.03291300  0.53207600  1
  C  34  1  0.46916200  0.05657800  0.56280800  1
  C  35  1  0.50258600  0.06658300  0.57944600  1
  C  36  1  0.53619700  0.05167200  0.56746800  1
  C  37  1  0.53596000  0.02681700  0.53765100  1
  C  45  1  0.24062400  0.75208300  0.23770100  1
  C  46  1  0.22758000  0.78515700  0.22087200  1
  C  47  1  0.20286600  0.78549000  0.19094000  1
  C  48  1  0.18972900  0.75179100  0.17730800  1
  C  49  1  0.20150100  0.71823500  0.19241200  1
  C  50  1  0.22572000  0.71891400  0.22271300  1
  C  54  1  0.26645300  0.75210500  0.26879500  1
  C  55  1  0.27956600  0.78520700  0.28551800  1
  C  56  1  0.30426400  0.78558900  0.31546400  1
  C  57  1  0.31737000  0.75190700  0.32916900  1
  C  58  1  0.30552600  0.71832900  0.31417200  1
  C  59  1  0.28129000  0.71895300  0.28388500  1
  C  67  1  0.26622400  0.25476600  0.73769400  1
  C  68  1  0.27917000  0.22170600  0.72076500  1
  C  69  1  0.30386300  0.22138100  0.69081800  1
  C  70  1  0.31706700  0.25509000  0.67726500  1
  C  71  1  0.30538900  0.28863600  0.69247100  1
  C  72  1  0.28119700  0.28794000  0.72279100  1
  C  76  1  0.24042400  0.25472600  0.76880500  1
  C  77  1  0.22744000  0.22162400  0.78562200  1
  C  78  1  0.20272300  0.22123400  0.81554600  1
  C  79  1  0.18954500  0.25491000  0.82920600  1
  C  80  1  0.20130300  0.28849800  0.81414900  1
  C  81  1  0.22547700  0.28786600  0.78381300  1
  C  89  1  0.76615000  0.25253600  0.76899200  1
  C  90  1  0.78329100  0.21954600  0.78165800  1
  C  91  1  0.80726000  0.21862400  0.81212900  1
  C  92  1  0.81710200  0.25197600  0.82901400  1
  C  93  1  0.80190500  0.28558100  0.81732500  1
  C  94  1  0.77669500  0.28538400  0.78778500  1
  C  98  1  0.74033600  0.25251100  0.73813600  1
  C  99  1  0.72314500  0.21951000  0.72556500  1
  C  100  1  0.69919200  0.21853200  0.69508200  1
  C  101  1  0.68940800  0.25185200  0.67810100  1
  C  102  1  0.70467900  0.28546900  0.68966400  1
  C  103  1  0.72985300  0.28531500  0.71923100  1
  C  111  1  0.74069300  0.75438400  0.26897800  1
  C  112  1  0.72357400  0.78738400  0.28165000  1
  C  113  1  0.69955800  0.78831300  0.31208600  1
  C  114  1  0.68962300  0.75495500  0.32889900  1
  C  115  1  0.70482800  0.72134500  0.31724000  1
  C  116  1  0.73008100  0.72153700  0.28774000  1
  C  120  1  0.76655900  0.75440300  0.23815900  1
  C  121  1  0.78374400  0.78740300  0.22557600  1
  C  122  1  0.80772700  0.78837400  0.19511800  1
  C  123  1  0.81758600  0.75503800  0.17821200  1
  C  124  1  0.80229200  0.72142400  0.18975000  1
  C  125  1  0.77707800  0.72158900  0.21928400  1
  C  133  1  0.50438900  0.51633700  0.48792500  1
  C  134  1  0.53738200  0.53330200  0.47500400  1
  C  135  1  0.53815700  0.55760400  0.44476400  1
  C  136  1  0.50469200  0.56788000  0.42834100  1
  C  137  1  0.47113100  0.55279300  0.44025000  1
  C  138  1  0.47146600  0.52730900  0.46951400  1
  C  142  1  0.50437800  0.49030300  0.51863000  1
  C  143  1  0.53734600  0.47324700  0.53149900  1
  C  144  1  0.53811600  0.44897300  0.56176400  1
  C  145  1  0.50464500  0.43875400  0.57821200  1
  C  146  1  0.47110900  0.45393800  0.56635500  1
  C  147  1  0.47145800  0.47942500  0.53709900  1
  C  155  1  0.00247200  0.49050900  0.98791000  1
  C  156  1  0.96949400  0.47352200  0.97498100  1
  C  157  1  0.96872200  0.44926400  0.94470500  1
  C  158  1  0.00219800  0.43902400  0.92827100  1
  C  159  1  0.03574700  0.45411600  0.94021000  1
  C  160  1  0.03540400  0.47958100  0.96948600  1
  C  164  1  0.00246400  0.51651000  0.01864400  1
  C  165  1  0.96948600  0.53351900  0.03153400  1
  C  166  1  0.96870800  0.55778000  0.06180600  1
  C  167  1  0.00217000  0.56799300  0.07828100  1
  C  168  1  0.03572100  0.55283700  0.06641700  1
  C  169  1  0.03538100  0.52740000  0.03711700  1
  C  177  1  0.89261500  0.90673200  0.16126400  1
  C  179  1  0.84695500  0.86288600  0.14300300  1
  C  180  1  0.85282400  0.87333000  0.10601100  1
  C  182  1  0.89951000  0.91616700  0.12417900  1
  C  185  1  0.92945600  0.93764500  0.11437900  1
  C  187  1  0.82494500  0.83311600  0.15201300  1
  C  189  1  0.61419200  0.10032100  0.66124300  1
  C  191  1  0.65998100  0.14403400  0.64298900  1
  C  192  1  0.65411800  0.13358300  0.60600000  1
  C  194  1  0.60729700  0.09089800  0.62415200  1
  C  197  1  0.57725200  0.06957100  0.61434100  1
  C  199  1  0.68213900  0.17369200  0.65202300  1
  C  201  1  0.35298200  0.63562200  0.40443700  1
  C  203  1  0.39879600  0.59226000  0.38525100  1
  C  204  1  0.39003700  0.60054800  0.34829200  1
  C  206  1  0.34530100  0.64498800  0.36749700  1
  C  209  1  0.32329100  0.67482400  0.35865000  1
  C  211  1  0.42932500  0.57124500  0.39420700  1
  C  213  1  0.15374600  0.37125000  0.90434300  1
  C  215  1  0.10801000  0.41469100  0.88514800  1
  C  216  1  0.11675600  0.40638900  0.84819200  1
  C  218  1  0.16139700  0.36186400  0.86740000  1
  C  221  1  0.18332700  0.33197300  0.85856400  1
  C  223  1  0.07759600  0.43586800  0.89411600  1
  C  225  1  0.61499200  0.90686900  0.34585600  1
  C  227  1  0.66035000  0.86277300  0.36426700  1
  C  228  1  0.65422200  0.87305500  0.40126200  1
  C  230  1  0.60783300  0.91614700  0.38293100  1
  C  233  1  0.57787100  0.93766500  0.39259900  1
  C  235  1  0.68236500  0.83299500  0.35529100  1
  C  237  1  0.89194700  0.10017500  0.84589400  1
  C  239  1  0.84651500  0.14419500  0.86430700  1
  C  240  1  0.85264800  0.13391500  0.90129900  1
  C  242  1  0.89912200  0.09092300  0.88297400  1
  C  245  1  0.92917500  0.06955000  0.89263700  1
  C  247  1  0.82440900  0.17390100  0.85530100  1
  C  249  1  0.15406500  0.63530800  0.10233400  1
  C  251  1  0.10802500  0.59218800  0.12152600  1
  C  252  1  0.11664500  0.60062800  0.15848200  1
  C  254  1  0.16161400  0.64482300  0.13926300  1
  C  257  1  0.18366700  0.67464000  0.14807400  1
  C  259  1  0.07749400  0.57119000  0.11254700  1
  C  261  1  0.35278900  0.37159600  0.60241800  1
  C  263  1  0.39884800  0.41471300  0.62157100  1
  C  264  1  0.39024300  0.40629500  0.65853300  1
  C  266  1  0.34527600  0.36208900  0.63935800  1
  C  269  1  0.32323900  0.33226400  0.64816900  1
  C  271  1  0.42932700  0.43577400  0.61254300  1
  C  273  1  0.11955200  0.10321100  0.85285400  1
  C  275  1  0.16339800  0.14901100  0.87079500  1
  C  276  1  0.15560100  0.14077300  0.90798800  1
  C  278  1  0.11079000  0.09595400  0.89003900  1
  C  281  1  0.08139400  0.07366200  0.89956200  1
  C  283  1  0.18493200  0.17896400  0.86120900  1
  C  285  1  0.38747200  0.90352900  0.35285000  1
  C  287  1  0.34357400  0.85776400  0.37075200  1
  C  288  1  0.35136200  0.86597600  0.40795000  1
  C  290  1  0.39623900  0.91073700  0.39004300  1
  C  293  1  0.42569900  0.93293300  0.39957900  1
  C  295  1  0.32194400  0.82789500  0.36110500  1
  C  297  1  0.65596500  0.36340400  0.59576500  1
  C  299  1  0.61227000  0.40920900  0.61406300  1
  C  300  1  0.62269000  0.40324700  0.65105000  1
  C  302  1  0.66536400  0.35641500  0.63284200  1
  C  305  1  0.68670300  0.32634800  0.64262600  1
  C  307  1  0.58252200  0.43127700  0.60507600  1
  C  309  1  0.85101000  0.64342400  0.09587000  1
  C  311  1  0.89459400  0.59750200  0.11414100  1
  C  312  1  0.88419200  0.60346200  0.15112900  1
  C  314  1  0.84164300  0.65041500  0.13295700  1
  C  317  1  0.82046100  0.68057800  0.14276000  1
  C  319  1  0.92423000  0.57529500  0.10511100  1
  C  321  1  0.38673500  0.10319300  0.65328700  1
  C  323  1  0.34320300  0.14930200  0.63537700  1
  C  324  1  0.35122800  0.14130300  0.59817800  1
  C  326  1  0.39573000  0.09617200  0.61611400  1
  C  329  1  0.42511600  0.07384700  0.60662900  1
  C  331  1  0.32172400  0.17927300  0.64504000  1
  C  333  1  0.12006800  0.90362500  0.15335800  1
  C  335  1  0.16364100  0.85755000  0.13546300  1
  C  336  1  0.15560200  0.86551700  0.09826300  1
  C  338  1  0.11104600  0.91059400  0.11618000  1
  C  341  1  0.08160700  0.93284500  0.10670600  1
  C  343  1  0.18526000  0.82768300  0.14515400  1
  C  345  1  0.85068000  0.36387400  0.91092400  1
  C  347  1  0.89456900  0.40942100  0.89245300  1
  C  348  1  0.88423800  0.40325200  0.85547700  1
  C  350  1  0.84136300  0.35667400  0.87386600  1
  C  353  1  0.81997200  0.32660400  0.86421100  1
  C  355  1  0.92435100  0.43146900  0.90138500  1
  C  357  1  0.65609400  0.64297500  0.41084500  1
  C  359  1  0.61227900  0.59732900  0.39243400  1
  C  360  1  0.62256300  0.60350100  0.35544500  1
  C  362  1  0.66534000  0.65018600  0.37376800  1
  C  365  1  0.68655200  0.68036100  0.36408500  1
  C  367  1  0.58259400  0.57516800  0.40142400  1
  N  19  1  0.93923200  0.94150200  0.08054500  1
  N  20  1  0.06863200  0.93397800  0.07373200  1
  N  21  1  0.93908000  0.06550400  0.92641300  1
  N  22  1  0.06855000  0.07252500  0.93258700  1
  N  41  1  0.56754500  0.06550800  0.58051300  1
  N  42  1  0.43813000  0.07281300  0.57367000  1
  N  43  1  0.56794400  0.94151900  0.42638900  1
  N  44  1  0.43849000  0.93416500  0.43262100  1
  N  63  1  0.32098700  0.68708200  0.32548500  1
  N  64  1  0.31910100  0.81686800  0.32755800  1
  N  65  1  0.18597200  0.68698900  0.18120300  1
  N  66  1  0.18811500  0.81676900  0.17874000  1
  N  85  1  0.18572700  0.31970600  0.82540700  1
  N  86  1  0.18790100  0.18995200  0.82765600  1
  N  87  1  0.32097900  0.31986300  0.68128400  1
  N  88  1  0.31865600  0.19011800  0.67862600  1
  N  107  1  0.69096700  0.31682200  0.67648400  1
  N  108  1  0.68281300  0.18743800  0.68468500  1
  N  109  1  0.81566700  0.31696000  0.83039100  1
  N  110  1  0.82358700  0.18752000  0.82258900  1
  N  129  1  0.81603800  0.69006800  0.17660700  1
  N  130  1  0.82409900  0.81947400  0.18471500  1
  N  131  1  0.69101400  0.68997200  0.33027700  1
  N  132  1  0.68326900  0.81943600  0.32255400  1
  N  151  1  0.43959300  0.44008200  0.57892400  1
  N  152  1  0.56918400  0.43258000  0.57226300  1
  N  153  1  0.43962600  0.56676700  0.42779100  1
  N  154  1  0.56924900  0.57393100  0.43423700  1
  N  173  1  0.06721200  0.56678100  0.07894700  1
  N  174  1  0.93765100  0.57417000  0.07232400  1
  N  175  1  0.06723900  0.44014800  0.92771000  1
  N  176  1  0.93765400  0.43287900  0.93420600  1
  N  178  1  0.86744700  0.88028200  0.16904500  1
  N  181  1  0.87913300  0.89860800  0.09813300  1
  N  190  1  0.63941500  0.12671600  0.66902600  1
  N  193  1  0.62775600  0.10836400  0.59811300  1
  N  202  1  0.37966700  0.61056100  0.41173600  1
  N  205  1  0.36454700  0.62683000  0.34101700  1
  N  214  1  0.12709800  0.39635500  0.91164200  1
  N  217  1  0.14220800  0.38007400  0.84091500  1
  N  226  1  0.64013300  0.88037300  0.33814700  1
  N  229  1  0.62793800  0.89838800  0.40905300  1
  N  238  1  0.86677300  0.12664200  0.83818500  1
  N  241  1  0.87896800  0.10862300  0.90909300  1
  N  250  1  0.12733400  0.61029400  0.09503800  1
  N  253  1  0.14218600  0.62686000  0.16574400  1
  N  262  1  0.37953300  0.39659400  0.59509400  1
  N  265  1  0.36469300  0.38008200  0.66582300  1
  N  274  1  0.14463300  0.12966200  0.84481300  1
  N  277  1  0.12939600  0.11543300  0.91601500  1
  N  286  1  0.36237300  0.87710200  0.34478400  1
  N  289  1  0.37758400  0.89128700  0.41600500  1
  N  298  1  0.62960600  0.38867900  0.58800700  1
  N  301  1  0.64786900  0.37683000  0.65890100  1
  N  310  1  0.87731600  0.61809600  0.08809700  1
  N  313  1  0.85907000  0.62992500  0.15900300  1
  N  322  1  0.36170500  0.12968800  0.66134800  1
  N  325  1  0.37738800  0.11591700  0.59015100  1
  N  334  1  0.14512400  0.87715700  0.16142900  1
  N  337  1  0.12942100  0.89087700  0.09022000  1
  N  346  1  0.87709300  0.38911600  0.91859100  1
  N  349  1  0.85899900  0.37686300  0.84772400  1
  N  358  1  0.62973000  0.61768600  0.41854800  1
  N  361  1  0.64774200  0.62993400  0.34765400  1
