# generated using pymatgen
data_ZnH16C25(NO6)2
_symmetry_space_group_name_H-M   'P 1'
_cell_length_a   8.08409000
_cell_length_b   9.18744000
_cell_length_c   27.34364000
_cell_angle_alpha   90.63297000
_cell_angle_beta   90.18924000
_cell_angle_gamma   90.35144000
_symmetry_Int_Tables_number   1
_chemical_formula_structural   ZnH16C25(NO6)2
_chemical_formula_sum   'Zn2 H32 C50 N4 O24'
_cell_volume   2030.69567436
_cell_formula_units_Z   2
loop_
 _symmetry_equiv_pos_site_id
 _symmetry_equiv_pos_as_xyz
  1  'x, y, z'
loop_
 _atom_site_type_symbol
 _atom_site_label
 _atom_site_symmetry_multiplicity
 _atom_site_fract_x
 _atom_site_fract_y
 _atom_site_fract_z
 _atom_site_occupancy
  Zn  Zn0  1  0.68278000  0.50000000  0.50000000  1
  Zn  Zn1  1  0.31722000  0.50000000  0.50000000  1
  H  H2  1  0.23100000  0.33298000  0.68160000  1
  H  H3  1  0.31754000  0.68552000  0.36794000  1
  H  H4  1  0.69336000  0.73550000  0.60896000  1
  H  H5  1  0.64697000  0.25398000  0.39259000  1
  H  H6  1  0.33708000  0.60827000  0.83076000  1
  H  H7  1  0.23324000  0.69864000  0.78094000  1
  H  H8  1  0.12321000  0.57535000  0.82054000  1
  H  H9  1  0.16411000  0.44101000  0.74843000  1
  H  H10  1  0.31352000  0.37137000  0.78930000  1
  H  H11  1  0.14102000  0.40107000  0.22386000  1
  H  H12  1  0.06461000  0.52492000  0.27047000  1
  H  H13  1  0.04397000  0.56887000  0.20661000  1
  H  H14  1  0.27599000  0.71081000  0.24639000  1
  H  H15  1  0.33883000  0.59798000  0.19698000  1
  H  H16  1  0.93321000  0.84688000  0.68982000  1
  H  H17  1  0.78929000  0.87669000  0.73891000  1
  H  H18  1  0.00471000  0.84641000  0.75189000  1
  H  H19  1  0.89978000  0.61292000  0.76748000  1
  H  H20  1  0.96086000  0.59385000  0.70606000  1
  H  H21  1  0.72069000  0.06303000  0.30344000  1
  H  H22  1  0.62752000  0.07647000  0.24361000  1
  H  H23  1  0.84392000  0.03481000  0.24950000  1
  H  H24  1  0.81960000  0.28922000  0.22606000  1
  H  H25  1  0.89824000  0.28115000  0.28639000  1
  H  H26  1  0.59540000  0.02259000  0.87613000  1
  H  H27  1  0.66336000  0.83339000  0.16294000  1
  H  H28  1  0.89879000  0.83071000  0.84973000  1
  H  H29  1  0.59271000  0.05739000  0.14779000  1
  H  H30  1  0.81763000  0.04029000  0.05392000  1
  H  H31  1  0.93305000  0.90058000  0.96331000  1
  H  H32  1  0.56307000  0.82205000  0.01132000  1
  H  H33  1  0.43917000  0.06288000  0.93838000  1
  C  C34  1  0.49968000  0.21746000  0.49998000  1
  C  C35  1  0.50033000  0.78254000  0.50001000  1
  C  C36  1  0.50112000  0.50968000  0.59453000  1
  C  C37  1  0.50000000  0.49539000  0.40543000  1
  C  C38  1  0.63059000  0.38945000  0.81616000  1
  C  C39  1  0.66540000  0.55286000  0.18261000  1
  C  C40  1  0.66026000  0.64546000  0.82761000  1
  C  C41  1  0.53251000  0.32354000  0.17053000  1
  C  C42  1  0.69595000  0.60589000  0.71474000  1
  C  C43  1  0.64473000  0.35517000  0.28319000  1
  C  C44  1  0.41963000  0.50324000  0.73118000  1
  C  C45  1  0.41175000  0.52029000  0.26953000  1
  C  C46  1  0.65378000  0.61504000  0.66535000  1
  C  C47  1  0.61965000  0.36708000  0.33367000  1
  C  C48  1  0.39195000  0.48902000  0.68005000  1
  C  C49  1  0.39664000  0.54289000  0.32021000  1
  C  C50  1  0.57917000  0.54831000  0.74795000  1
  C  C51  1  0.54209000  0.43360000  0.25129000  1
  C  C52  1  0.68512000  0.48806000  0.89699000  1
  C  C53  1  0.64781000  0.44828000  0.10156000  1
  C  C54  1  0.64392000  0.36746000  0.86689000  1
  C  C55  1  0.67981000  0.57004000  0.13173000  1
  C  C56  1  0.71300000  0.62511000  0.87590000  1
  C  C57  1  0.59023000  0.31820000  0.12208000  1
  C  C58  1  0.60938000  0.23152000  0.88809000  1
  C  C59  1  0.71273000  0.70463000  0.10952000  1
  C  C60  1  0.78847000  0.73734000  0.90402000  1
  C  C61  1  0.60259000  0.18908000  0.09398000  1
  C  C62  1  0.51094000  0.54215000  0.64739000  1
  C  C63  1  0.50325000  0.46815000  0.35245000  1
  C  C64  1  0.66072000  0.32940000  0.02159000  1
  C  C65  1  0.73140000  0.59742000  0.97758000  1
  C  C66  1  0.70322000  0.59090000  0.02874000  1
  C  C67  1  0.65661000  0.33836000  0.96984000  1
  C  C68  1  0.67167000  0.45629000  0.05046000  1
  C  C69  1  0.69368000  0.47369000  0.94813000  1
  C  C70  1  0.66409000  0.19711000  0.04607000  1
  C  C71  1  0.80079000  0.72190000  0.95512000  1
  C  C72  1  0.69305000  0.71604000  0.05890000  1
  C  C73  1  0.60183000  0.22046000  0.93965000  1
  C  C74  1  0.49959000  0.06463000  0.49997000  1
  C  C75  1  0.50046000  0.93537000  0.49999000  1
  C  C76  1  0.28164000  0.46813000  0.76742000  1
  C  C77  1  0.24244000  0.59593000  0.80173000  1
  C  C78  1  0.29244000  0.59529000  0.23505000  1
  C  C79  1  0.12523000  0.51745000  0.23416000  1
  C  C80  1  0.87045000  0.64993000  0.73019000  1
  C  C81  1  0.90018000  0.81466000  0.72754000  1
  C  C82  1  0.78513000  0.26109000  0.26404000  1
  C  C83  1  0.74097000  0.09920000  0.26534000  1
  N  N84  1  0.62505000  0.52775000  0.79830000  1
  N  N85  1  0.58020000  0.43621000  0.20027000  1
  N  N86  1  0.07364000  0.50000000  0.50000000  1
  N  N87  1  0.92636000  0.50000000  0.50000000  1
  O  O88  1  0.63685000  0.28535000  0.50000000  1
  O  O89  1  0.36315000  0.71465000  0.50000000  1
  O  O90  1  0.63685000  0.71465000  0.50000000  1
  O  O91  1  0.36315000  0.28535000  0.50000000  1
  O  O92  1  0.63686000  0.50000000  0.57124000  1
  O  O93  1  0.36314000  0.50000000  0.42876000  1
  O  O94  1  0.63686000  0.50000000  0.42876000  1
  O  O95  1  0.36314000  0.50000000  0.57124000  1
  O  O96  1  0.61728000  0.27513000  0.78494000  1
  O  O97  1  0.73123000  0.65100000  0.21427000  1
  O  O98  1  0.63697000  0.78104000  0.81071000  1
  O  O99  1  0.42895000  0.22059000  0.18769000  1
  O  O100  1  0.25435000  0.41876000  0.66106000  1
  O  O101  1  0.28063000  0.64218000  0.33647000  1
  O  O102  1  0.76040000  0.68816000  0.63465000  1
  O  O103  1  0.71444000  0.28116000  0.36389000  1
  O  O104  1  0.57323000  0.11331000  0.85812000  1
  O  O105  1  0.74465000  0.82926000  0.13605000  1
  O  O106  1  0.85807000  0.85864000  0.88264000  1
  O  O107  1  0.56812000  0.05434000  0.11246000  1
  O  O108  1  0.75969000  0.08815000  0.02642000  1
  O  O109  1  0.88895000  0.82092000  0.98364000  1
  O  O110  1  0.62614000  0.84283000  0.04179000  1
  O  O111  1  0.52511000  0.10212000  0.96092000  1
