# generated using pymatgen
data_H24C41(N4O3)2
_symmetry_space_group_name_H-M   'P 1'
_cell_length_a   30.74890000
_cell_length_b   43.17620000
_cell_length_c   43.17620000
_cell_angle_alpha   90.00000000
_cell_angle_beta   89.99310000
_cell_angle_gamma   90.00000000
_symmetry_Int_Tables_number   1
_chemical_formula_structural   H24C41(N4O3)2
_chemical_formula_sum   'H192 C328 N64 O48'
_cell_volume   57321.61455970
_cell_formula_units_Z   8
loop_
 _symmetry_equiv_pos_site_id
 _symmetry_equiv_pos_as_xyz
  1  'x, y, z'
loop_
 _atom_site_type_symbol
 _atom_site_label
 _atom_site_symmetry_multiplicity
 _atom_site_fract_x
 _atom_site_fract_y
 _atom_site_fract_z
 _atom_site_occupancy
  H  25  1  0.00173200  0.15358500  0.00016800  1
  H  26  1  0.00566900  0.11474600  0.03967700  1
  H  27  1  0.01942900  0.08325700  0.08813800  1
  H  28  1  0.03004000  0.06245900  0.13865200  1
  H  29  1  0.00100500  0.14984500  0.17797500  1
  H  30  1  0.99273900  0.22332800  0.06893900  1
  H  31  1  0.09158300  0.17581300  0.11667600  1
  H  32  1  0.11407800  0.25652800  0.17031500  1
  H  33  1  0.03734000  0.26492800  0.17455600  1
  H  34  1  0.90429300  0.17346700  0.11988400  1
  H  35  1  0.95801600  0.26468000  0.17463800  1
  H  36  1  0.88162600  0.25515700  0.17210900  1
  H  70  1  0.00211800  0.84686900  0.86192300  1
  H  71  1  0.00608300  0.88572800  0.82243600  1
  H  72  1  0.01980900  0.91724800  0.77398000  1
  H  73  1  0.03025000  0.93808300  0.72347600  1
  H  74  1  0.00105000  0.85074600  0.68412200  1
  H  75  1  0.99292700  0.77717100  0.79311500  1
  H  76  1  0.09182100  0.82438200  0.74543700  1
  H  77  1  0.11374700  0.74387900  0.69135400  1
  H  78  1  0.03696800  0.73577700  0.68706700  1
  H  79  1  0.90444900  0.82706400  0.74266900  1
  H  80  1  0.95769700  0.73617300  0.68713600  1
  H  81  1  0.88132700  0.74565800  0.69010500  1
  H  115  1  0.00255800  0.93113300  0.08461000  1
  H  116  1  0.00667900  0.89165700  0.04574300  1
  H  117  1  0.02019400  0.84317700  0.01418200  1
  H  118  1  0.03039000  0.79264400  0.99332600  1
  H  119  1  0.00065300  0.75333300  0.08060500  1
  H  120  1  0.99269600  0.86229800  0.15423900  1
  H  121  1  0.09170200  0.81416300  0.10735700  1
  H  122  1  0.11249900  0.75950800  0.18762600  1
  H  123  1  0.03562100  0.75570300  0.19551600  1
  H  124  1  0.90438400  0.81231000  0.10392800  1
  H  125  1  0.95631500  0.75631600  0.19491400  1
  H  126  1  0.88004500  0.75964700  0.18509100  1
  H  160  1  0.00201100  0.06942700  0.77762700  1
  H  161  1  0.00592500  0.10890900  0.81649300  1
  H  162  1  0.01979200  0.15736400  0.84796200  1
  H  163  1  0.03030500  0.20788300  0.86878100  1
  H  164  1  0.00046300  0.24722900  0.78155000  1
  H  165  1  0.99229600  0.13824200  0.70797300  1
  H  166  1  0.09109100  0.18620400  0.75505300  1
  H  167  1  0.11250100  0.24036800  0.67453700  1
  H  168  1  0.03565900  0.24441000  0.66653000  1
  H  169  1  0.90380900  0.18846900  0.75813600  1
  H  170  1  0.95629800  0.24408800  0.66707200  1
  H  171  1  0.87998000  0.24095200  0.67678300  1
  H  205  1  0.50095500  0.65335000  0.49940500  1
  H  206  1  0.50712100  0.61466000  0.53889000  1
  H  207  1  0.52208700  0.58346900  0.58737600  1
  H  208  1  0.53380200  0.56294600  0.63797400  1
  H  209  1  0.50075000  0.64965100  0.67724200  1
  H  210  1  0.48643100  0.72261000  0.56818300  1
  H  211  1  0.58833400  0.68016300  0.61546200  1
  H  212  1  0.60282500  0.76305900  0.66717900  1
  H  213  1  0.52576900  0.76710500  0.67223200  1
  H  214  1  0.40204400  0.66779100  0.62015200  1
  H  215  1  0.44687500  0.76169900  0.67452700  1
  H  216  1  0.37172100  0.74746200  0.67350300  1
  H  250  1  0.50026900  0.34702700  0.36286500  1
  H  251  1  0.50637300  0.38574700  0.32340500  1
  H  252  1  0.52143000  0.41699600  0.27501200  1
  H  253  1  0.53354800  0.43754600  0.22446900  1
  H  254  1  0.50121800  0.35076900  0.18504700  1
  H  255  1  0.48648000  0.27774500  0.29403900  1
  H  256  1  0.58840200  0.32038900  0.24750000  1
  H  257  1  0.60399900  0.23762800  0.19573400  1
  H  258  1  0.52703400  0.23345700  0.19007300  1
  H  259  1  0.40208900  0.33239100  0.24143200  1
  H  260  1  0.44822100  0.23885100  0.18697700  1
  H  261  1  0.37303800  0.25301200  0.18729700  1
  H  295  1  0.50041800  0.43196700  0.58426200  1
  H  296  1  0.50661700  0.39250300  0.54556000  1
  H  297  1  0.52176500  0.34410800  0.51433300  1
  H  298  1  0.53384100  0.29356700  0.49377000  1
  H  299  1  0.50164800  0.25414200  0.58057000  1
  H  300  1  0.48675600  0.36314900  0.65357200  1
  H  301  1  0.58881200  0.31663300  0.61083200  1
  H  302  1  0.60458500  0.26508600  0.69371200  1
  H  303  1  0.52763900  0.25936300  0.69794500  1
  H  304  1  0.40248300  0.31047900  0.59903300  1
  H  305  1  0.44882900  0.25606200  0.69253200  1
  H  306  1  0.37362000  0.25632200  0.67843800  1
  H  340  1  0.50118600  0.56853500  0.27810500  1
  H  341  1  0.50747500  0.60804000  0.31676700  1
  H  342  1  0.52246500  0.65652500  0.34794500  1
  H  343  1  0.53416300  0.70713400  0.36846700  1
  H  344  1  0.50131600  0.74637600  0.28170900  1
  H  345  1  0.48683100  0.63728300  0.20880200  1
  H  346  1  0.58892600  0.68458700  0.25115500  1
  H  347  1  0.60330700  0.73574700  0.16790200  1
  H  348  1  0.52625700  0.74084500  0.16393500  1
  H  349  1  0.40265900  0.68970600  0.26381900  1
  H  350  1  0.44744100  0.74348300  0.16956100  1
  H  351  1  0.37237500  0.74288300  0.18403400  1
  H  367  1  0.05829900  0.00633300  0.20792300  1
  H  370  1  0.95342000  0.02292700  0.09634700  1
  H  371  1  0.92426100  0.05241900  0.11622300  1
  H  372  1  0.89601000  0.02333800  0.09526700  1
  H  375  1  0.02936300  0.05805600  0.22623700  1
  H  377  1  0.96021400  0.95560700  0.12294400  1
  H  384  1  0.05832100  0.99433600  0.65429900  1
  H  387  1  0.95338100  0.97757700  0.76581200  1
  H  388  1  0.92436900  0.94801200  0.74594200  1
  H  389  1  0.89597400  0.97703700  0.76688000  1
  H  392  1  0.02963900  0.94256700  0.63595600  1
  H  394  1  0.95991200  0.04488300  0.73921800  1
  H  401  1  0.05834900  0.72344000  0.93708200  1
  H  404  1  0.95352800  0.83520500  0.95359600  1
  H  405  1  0.92433000  0.81555500  0.98319800  1
  H  406  1  0.89612700  0.83632600  0.95394100  1
  H  409  1  0.02955800  0.70515600  0.98884000  1
  H  411  1  0.96011000  0.80840100  0.88640800  1
  H  418  1  0.05857700  0.27682400  0.92500200  1
  H  421  1  0.95397300  0.16528900  0.91031700  1
  H  422  1  0.92615700  0.18414500  0.87953600  1
  H  423  1  0.89664100  0.16407900  0.90860600  1
  H  426  1  0.02981100  0.29533100  0.87329500  1
  H  428  1  0.95987900  0.19211600  0.97562300  1
  H  435  1  0.55783800  0.50562100  0.70724900  1
  H  438  1  0.45511600  0.52271300  0.59512900  1
  H  439  1  0.42838000  0.55409000  0.61380800  1
  H  440  1  0.39789100  0.52562700  0.59361700  1
  H  443  1  0.53228900  0.55820300  0.72514000  1
  H  445  1  0.45819600  0.45730500  0.62192300  1
  H  452  1  0.55822500  0.49477200  0.15524700  1
  H  455  1  0.45492700  0.47751700  0.26711700  1
  H  456  1  0.42798000  0.44636400  0.24823000  1
  H  457  1  0.39767300  0.47486300  0.26850700  1
  H  460  1  0.53243200  0.44228000  0.13720600  1
  H  462  1  0.45869000  0.54313900  0.24056500  1
  H  469  1  0.55840700  0.22432300  0.43644000  1
  H  472  1  0.45485200  0.33608300  0.45357600  1
  H  473  1  0.42834100  0.31733000  0.48500600  1
  H  474  1  0.39762800  0.33736600  0.45656200  1
  H  477  1  0.53317400  0.20638200  0.48905200  1
  H  479  1  0.45808500  0.30930700  0.38823200  1
  H  486  1  0.55761100  0.77664500  0.42584400  1
  H  489  1  0.45498200  0.66436300  0.40649900  1
  H  490  1  0.42694900  0.68407500  0.37635600  1
  H  491  1  0.39763700  0.66293200  0.40476300  1
  H  494  1  0.53217900  0.79435400  0.37320800  1
  H  496  1  0.45852100  0.69086800  0.47400400  1
  H  503  1  0.75450200  0.27884300  0.14236900  1
  H  506  1  0.75005300  0.23420500  0.26983600  1
  H  507  1  0.79154100  0.20758300  0.25919700  1
  H  508  1  0.74597200  0.19501800  0.28109500  1
  H  511  1  0.82197800  0.25076500  0.13287800  1
  H  513  1  0.66227100  0.23777200  0.23451000  1
  H  520  1  0.75458700  0.72168600  0.72063700  1
  H  523  1  0.74898300  0.76661400  0.59329700  1
  H  524  1  0.79060100  0.79318900  0.60379200  1
  H  525  1  0.74484300  0.80582800  0.58214500  1
  H  528  1  0.82223500  0.74975500  0.72987500  1
  H  530  1  0.66159800  0.76294500  0.62891400  1
  H  537  1  0.75380300  0.79034900  0.20885100  1
  H  540  1  0.75013100  0.66246200  0.16497300  1
  H  541  1  0.79170000  0.67280800  0.13831800  1
  H  542  1  0.74600800  0.65095300  0.12586800  1
  H  545  1  0.82125000  0.80000700  0.18070200  1
  H  547  1  0.66229100  0.69768700  0.16822300  1
  H  554  1  0.75368600  0.21086000  0.65295200  1
  H  557  1  0.75268100  0.33827200  0.69680500  1
  H  558  1  0.79328100  0.32695800  0.72383500  1
  H  559  1  0.74852500  0.34999100  0.73583600  1
  H  562  1  0.82083700  0.20089700  0.68125100  1
  H  564  1  0.66280500  0.30401000  0.69331300  1
  H  571  1  0.22923700  0.71212100  0.15327900  1
  H  574  1  0.24406600  0.77871300  0.26981500  1
  H  575  1  0.20539700  0.80527400  0.25462900  1
  H  576  1  0.25270400  0.81890000  0.27384900  1
  H  579  1  0.16404300  0.74252600  0.14044600  1
  H  581  1  0.33044100  0.76308400  0.23452700  1
  H  588  1  0.22901700  0.28780600  0.70916000  1
  H  591  1  0.24488700  0.22122000  0.59260800  1
  H  592  1  0.20567700  0.19487200  0.60746200  1
  H  593  1  0.25315100  0.18098800  0.58863500  1
  H  596  1  0.16381600  0.25742900  0.72220000  1
  H  598  1  0.33101000  0.23642900  0.62880100  1
  H  605  1  0.22984600  0.22135300  0.21803900  1
  H  608  1  0.24399500  0.33864000  0.15254500  1
  H  609  1  0.20493100  0.32376400  0.12610500  1
  H  610  1  0.25211300  0.34305000  0.11234300  1
  H  613  1  0.16487200  0.20816900  0.18753900  1
  H  615  1  0.33041200  0.30297500  0.16738800  1
  H  622  1  0.22889600  0.77860900  0.64348500  1
  H  625  1  0.24741200  0.66129900  0.70897300  1
  H  626  1  0.20864200  0.67426200  0.73660000  1
  H  627  1  0.25805100  0.65689400  0.74888800  1
  H  630  1  0.16469400  0.79205600  0.67443100  1
  H  632  1  0.32997000  0.69633400  0.69329800  1
  C  1  1  0.96046100  0.19863900  0.13267000  1
  C  2  1  0.97530100  0.22488000  0.14852100  1
  C  3  1  0.02014100  0.22532400  0.14808400  1
  C  4  1  0.03512100  0.19970800  0.13136000  1
  C  5  1  0.08040700  0.19468500  0.12858100  1
  C  6  1  0.10982200  0.21504700  0.14359600  1
  C  7  1  0.09346600  0.24105600  0.15994200  1
  C  8  1  0.04864400  0.24635100  0.16230200  1
  C  9  1  0.94677300  0.24586900  0.16271200  1
  C  10  1  0.90202600  0.24021300  0.16080500  1
  C  11  1  0.88561600  0.21393100  0.14487600  1
  C  12  1  0.91527900  0.19280000  0.13111100  1
  C  13  1  0.99723600  0.17755400  0.08555200  1
  C  14  1  0.00111400  0.14640700  0.07705000  1
  C  15  1  0.00435700  0.12852000  0.10368700  1
  C  16  1  0.00051300  0.14786200  0.12949600  1
  C  17  1  0.01387600  0.09689500  0.10708200  1
  C  18  1  0.01924600  0.08471000  0.13706700  1
  C  19  1  0.01256600  0.10301500  0.16400300  1
  C  20  1  0.00375400  0.13513300  0.15952000  1
  C  21  1  0.99495000  0.20061800  0.06238400  1
  C  22  1  0.99542200  0.19232200  0.03051200  1
  C  23  1  0.99931500  0.16046100  0.02276800  1
  C  24  1  0.00222800  0.13748800  0.04577700  1
  C  37  1  0.99785800  0.18088400  0.11982600  1
  C  38  1  0.01893700  0.09106100  0.19473400  1
  C  39  1  0.99546700  0.21533800  0.00671700  1
  C  40  1  0.15540500  0.21092100  0.14184100  1
  C  41  1  0.84023600  0.20822100  0.14573600  1
  C  46  1  0.96051000  0.80198000  0.72946200  1
  C  47  1  0.97520300  0.77581600  0.71341500  1
  C  48  1  0.02004200  0.77533900  0.71369400  1
  C  49  1  0.03518600  0.80080200  0.73057700  1
  C  50  1  0.08051100  0.80563800  0.73339900  1
  C  51  1  0.10978500  0.78523700  0.71828600  1
  C  52  1  0.09324700  0.75939200  0.70177900  1
  C  53  1  0.04839400  0.75428800  0.69936400  1
  C  54  1  0.94655800  0.75491500  0.69922000  1
  C  55  1  0.90182800  0.76053600  0.70139900  1
  C  56  1  0.88556400  0.78671700  0.71756900  1
  C  57  1  0.91534400  0.80780100  0.73127300  1
  C  58  1  0.99754900  0.82294800  0.77652500  1
  C  59  1  0.00151300  0.85408600  0.78504700  1
  C  60  1  0.00463800  0.87200000  0.75842600  1
  C  61  1  0.00069700  0.85268400  0.73260400  1
  C  62  1  0.01409200  0.90363800  0.75504100  1
  C  63  1  0.01938100  0.91584900  0.72505700  1
  C  64  1  0.01266600  0.89755600  0.69811700  1
  C  65  1  0.00381300  0.86544400  0.70258800  1
  C  66  1  0.99523300  0.79987100  0.79968100  1
  C  67  1  0.99573700  0.80815100  0.83155500  1
  C  68  1  0.99971500  0.84000400  0.83931800  1
  C  69  1  0.00266300  0.86298600  0.81632400  1
  C  82  1  0.99802300  0.81965500  0.74224600  1
  C  83  1  0.01901200  0.90953000  0.66739600  1
  C  84  1  0.99567900  0.78512600  0.85534100  1
  C  85  1  0.15540200  0.78907800  0.72010300  1
  C  86  1  0.84016100  0.79235900  0.71702400  1
  C  91  1  0.96009700  0.79877000  0.12921700  1
  C  92  1  0.97441600  0.78259900  0.15540700  1
  C  93  1  0.01925500  0.78270600  0.15609200  1
  C  94  1  0.03476100  0.79959000  0.13074000  1
  C  95  1  0.08014600  0.80217000  0.12605600  1
  C  96  1  0.10911300  0.78673800  0.14643500  1
  C  97  1  0.09222100  0.77017800  0.17213300  1
  C  98  1  0.04731000  0.76806400  0.17713000  1
  C  99  1  0.94545600  0.76845500  0.17612600  1
  C  100  1  0.90079400  0.77083800  0.17030400  1
  C  101  1  0.88491000  0.78715500  0.14409900  1
  C  102  1  0.91500300  0.80079700  0.12319700  1
  C  103  1  0.99765300  0.84572400  0.10847300  1
  C  104  1  0.00178700  0.85425900  0.07734900  1
  C  105  1  0.00492700  0.82764500  0.05942400  1
  C  106  1  0.00081600  0.80182300  0.07871700  1
  C  107  1  0.01451800  0.82424300  0.02780900  1
  C  108  1  0.01959600  0.79424900  0.01557700  1
  C  109  1  0.01259300  0.76732000  0.03383100  1
  C  110  1  0.00369600  0.77180200  0.06593800  1
  C  111  1  0.99519700  0.86887100  0.13155200  1
  C  112  1  0.99583800  0.90075000  0.12328600  1
  C  113  1  0.00005900  0.90852300  0.09145500  1
  C  114  1  0.00310800  0.88553800  0.06846800  1
  C  127  1  0.99787100  0.81144200  0.11174100  1
  C  128  1  0.01875800  0.73657400  0.02186800  1
  C  129  1  0.99564000  0.92452700  0.14631800  1
  C  130  1  0.15474600  0.78822300  0.14270800  1
  C  131  1  0.83954900  0.78692600  0.13824600  1
  C  136  1  0.95966400  0.20181300  0.73289500  1
  C  137  1  0.97415300  0.21789200  0.70669000  1
  C  138  1  0.01899500  0.21770500  0.70609500  1
  C  139  1  0.03432100  0.20086300  0.73152900  1
  C  140  1  0.07966900  0.19819600  0.73631300  1
  C  141  1  0.10880300  0.21341600  0.71589400  1
  C  142  1  0.09209900  0.22986900  0.69006600  1
  C  143  1  0.04721300  0.23211100  0.68500000  1
  C  144  1  0.94531900  0.23200700  0.68586600  1
  C  145  1  0.90062800  0.22974700  0.69162700  1
  C  146  1  0.88457900  0.21355400  0.71786300  1
  C  147  1  0.91454100  0.19989600  0.73884400  1
  C  148  1  0.99698300  0.15482500  0.75375100  1
  C  149  1  0.00108200  0.14630000  0.78487600  1
  C  150  1  0.00412200  0.17291900  0.80280500  1
  C  151  1  0.00011100  0.19874100  0.78349600  1
  C  152  1  0.01400700  0.17630800  0.83437400  1
  C  153  1  0.01933900  0.20629200  0.84657300  1
  C  154  1  0.01241600  0.23322600  0.82831600  1
  C  155  1  0.00332200  0.22876100  0.79623900  1
  C  156  1  0.99468000  0.13167400  0.73066900  1
  C  157  1  0.99535300  0.09979700  0.73893700  1
  C  158  1  0.99942500  0.09202900  0.77077800  1
  C  159  1  0.00237800  0.11502200  0.79376500  1
  C  172  1  0.99730800  0.18910400  0.75046900  1
  C  173  1  0.01879900  0.26395500  0.84025700  1
  C  174  1  0.99532700  0.07601400  0.71590800  1
  C  175  1  0.15444100  0.21172900  0.71974600  1
  C  176  1  0.83920800  0.21395400  0.72369400  1
  C  181  1  0.45556100  0.69611400  0.63223500  1
  C  182  1  0.46785100  0.72307400  0.64799700  1
  C  183  1  0.51241900  0.72631200  0.64649500  1
  C  184  1  0.52982100  0.70131600  0.63004900  1
  C  185  1  0.57545200  0.69876900  0.62690700  1
  C  186  1  0.60296200  0.72182100  0.63981000  1
  C  187  1  0.58395000  0.74687100  0.65626500  1
  C  188  1  0.53878100  0.74930100  0.65968700  1
  C  189  1  0.43753500  0.74206600  0.66310700  1
  C  190  1  0.39367900  0.73337600  0.66257800  1
  C  191  1  0.38008500  0.70593200  0.64730000  1
  C  192  1  0.41119200  0.68759100  0.63140200  1
  C  193  1  0.49372500  0.67701600  0.58476300  1
  C  194  1  0.50004800  0.64607300  0.57627000  1
  C  195  1  0.50493200  0.62837800  0.60291100  1
  C  196  1  0.50027800  0.64764300  0.62871700  1
  C  197  1  0.51622400  0.59704400  0.60631500  1
  C  198  1  0.52218200  0.58500000  0.63630100  1
  C  199  1  0.51470800  0.60320200  0.66319300  1
  C  200  1  0.50437000  0.63507400  0.65875200  1
  C  201  1  0.49001100  0.69999600  0.56161000  1
  C  202  1  0.49165000  0.69179700  0.52973800  1
  C  203  1  0.49764400  0.66010200  0.52198500  1
  C  204  1  0.50187500  0.63722600  0.54499100  1
  C  217  1  0.49447300  0.68043900  0.61901600  1
  C  218  1  0.52158000  0.59136200  0.69386200  1
  C  219  1  0.49132900  0.71490500  0.50602800  1
  C  220  1  0.64896000  0.71888800  0.63954200  1
  C  221  1  0.33528400  0.69834900  0.64745000  1
  C  226  1  0.45592900  0.30422100  0.22969800  1
  C  227  1  0.46858600  0.27735600  0.21391900  1
  C  228  1  0.51312800  0.27415300  0.21581800  1
  C  229  1  0.53019200  0.29917400  0.23240200  1
  C  230  1  0.57576400  0.30178400  0.23592100  1
  C  231  1  0.60356000  0.27882200  0.22316200  1
  C  232  1  0.58489000  0.25378300  0.20649800  1
  C  233  1  0.53978600  0.25126300  0.20274800  1
  C  234  1  0.43860500  0.25840400  0.19842700  1
  C  235  1  0.39473600  0.26706600  0.19852100  1
  C  236  1  0.38075900  0.29438000  0.21385100  1
  C  237  1  0.41151100  0.31265800  0.23017500  1
  C  238  1  0.49344900  0.32337500  0.27748100  1
  C  239  1  0.49953700  0.35433600  0.28600600  1
  C  240  1  0.50466600  0.37204000  0.25939100  1
  C  241  1  0.50043100  0.35275700  0.23356700  1
  C  242  1  0.51584600  0.40340000  0.25604300  1
  C  243  1  0.52206800  0.41545300  0.22608500  1
  C  244  1  0.51486400  0.39725100  0.19915600  1
  C  245  1  0.50467900  0.36534700  0.20355200  1
  C  246  1  0.48979000  0.30037800  0.30062300  1
  C  247  1  0.49128300  0.30856800  0.33250700  1
  C  248  1  0.49702000  0.34028200  0.34027900  1
  C  249  1  0.50119600  0.36317900  0.31728900  1
  C  262  1  0.49459700  0.31995100  0.24323000  1
  C  263  1  0.52186300  0.40911900  0.16850700  1
  C  264  1  0.49115900  0.28544900  0.35620500  1
  C  265  1  0.64953900  0.28182900  0.22383600  1
  C  266  1  0.33594700  0.30178600  0.21331600  1
  C  271  1  0.45637100  0.29879400  0.62716200  1
  C  272  1  0.46909000  0.28305200  0.65403300  1
  C  273  1  0.51364800  0.28494100  0.65716500  1
  C  274  1  0.53064700  0.30153600  0.63212600  1
  C  275  1  0.57621300  0.30507500  0.62946600  1
  C  276  1  0.60405800  0.29240900  0.65244600  1
  C  277  1  0.58544600  0.27580200  0.67754900  1
  C  278  1  0.54035100  0.27198500  0.68008900  1
  C  279  1  0.43916700  0.26750400  0.67299000  1
  C  280  1  0.39528300  0.26755900  0.66436200  1
  C  281  1  0.38124000  0.28288000  0.63706300  1
  C  282  1  0.41193700  0.29925300  0.61877700  1
  C  283  1  0.49382000  0.34658400  0.60795400  1
  C  284  1  0.49992400  0.35510500  0.57699200  1
  C  285  1  0.50500100  0.32848900  0.55928500  1
  C  286  1  0.50073400  0.30266200  0.57856900  1
  C  287  1  0.51612900  0.32513700  0.52791500  1
  C  288  1  0.52233800  0.29518100  0.51585900  1
  C  289  1  0.51521600  0.26825400  0.53408100  1
  C  290  1  0.50504000  0.27264800  0.56598600  1
  C  291  1  0.49008900  0.36973100  0.63093900  1
  C  292  1  0.49150400  0.40161000  0.62274000  1
  C  293  1  0.49724400  0.40937800  0.59102300  1
  C  294  1  0.50144600  0.38638600  0.56813100  1
  C  307  1  0.49499700  0.31233400  0.61138200  1
  C  308  1  0.52220400  0.23760300  0.52222600  1
  C  309  1  0.49126000  0.42532400  0.64584600  1
  C  310  1  0.65003400  0.29302700  0.64936900  1
  C  311  1  0.33639900  0.28235200  0.62972300  1
  C  316  1  0.45613000  0.70143400  0.23529900  1
  C  317  1  0.46840400  0.71701200  0.20822900  1
  C  318  1  0.51294600  0.71534000  0.20488100  1
  C  319  1  0.53038000  0.69905400  0.22996900  1
  C  320  1  0.57601800  0.69590600  0.23248600  1
  C  321  1  0.60350200  0.70866300  0.20932800  1
  C  322  1  0.58445400  0.72495200  0.18418800  1
  C  323  1  0.53928500  0.72838900  0.18179200  1
  C  324  1  0.43811000  0.73218100  0.18926800  1
  C  325  1  0.39430700  0.73192600  0.19811000  1
  C  326  1  0.38072000  0.71683900  0.22566200  1
  C  327  1  0.41179700  0.70083900  0.24394800  1
  C  328  1  0.49416400  0.65389000  0.25438500  1
  C  329  1  0.50050000  0.64540600  0.28532900  1
  C  330  1  0.50547900  0.67205300  0.30300100  1
  C  331  1  0.50097800  0.69785100  0.28370800  1
  C  332  1  0.51669200  0.67546400  0.33434800  1
  C  333  1  0.52266300  0.70545300  0.34638200  1
  C  334  1  0.51515100  0.73234300  0.32818500  1
  C  335  1  0.50495500  0.72788900  0.29628900  1
  C  336  1  0.49038900  0.63072400  0.23142300  1
  C  337  1  0.49196300  0.59885500  0.23964100  1
  C  338  1  0.49793000  0.59111500  0.27134000  1
  C  339  1  0.50223300  0.61413200  0.29420000  1
  C  352  1  0.49503900  0.68814200  0.25092700  1
  C  353  1  0.52191500  0.76301500  0.34003800  1
  C  354  1  0.49162100  0.57513300  0.21654800  1
  C  355  1  0.64949000  0.70847800  0.21218900  1
  C  356  1  0.33593400  0.71713500  0.23332400  1
  C  361  1  0.98448800  0.97952300  0.15898600  1
  C  363  1  0.03117700  0.00691200  0.19426800  1
  C  364  1  0.00720700  0.03444300  0.19018200  1
  C  366  1  0.95923800  0.00697800  0.15580600  1
  C  368  1  0.92261900  0.00859600  0.13731700  1
  C  369  1  0.92424800  0.02791000  0.10991300  1
  C  378  1  0.98433800  0.02101200  0.70319100  1
  C  380  1  0.03111800  0.99372900  0.66787600  1
  C  381  1  0.00727200  0.96614300  0.67197800  1
  C  383  1  0.95917300  0.99351400  0.70634800  1
  C  385  1  0.92255100  0.99182300  0.72483100  1
  C  386  1  0.92424500  0.97252300  0.75224200  1
  C  395  1  0.98454000  0.77242000  0.91034500  1
  C  397  1  0.03118400  0.73705400  0.93766800  1
  C  398  1  0.00731200  0.74119900  0.96523900  1
  C  400  1  0.95934200  0.77561000  0.93782300  1
  C  402  1  0.92283400  0.79412200  0.93951600  1
  C  403  1  0.92433900  0.82168600  0.95864300  1
  C  412  1  0.98443600  0.22808200  0.95172600  1
  C  414  1  0.03130100  0.26332300  0.92442300  1
  C  415  1  0.00733200  0.25933900  0.89687700  1
  C  417  1  0.95915700  0.22504500  0.92427100  1
  C  419  1  0.92241700  0.20670800  0.92261800  1
  C  420  1  0.92502900  0.17864800  0.90423100  1
  C  429  1  0.48291500  0.48059800  0.65822600  1
  C  431  1  0.53077400  0.50685500  0.69358100  1
  C  432  1  0.50824900  0.53497900  0.68935400  1
  C  434  1  0.45909300  0.50866600  0.65490400  1
  C  436  1  0.42262400  0.51113500  0.63639500  1
  C  437  1  0.42629500  0.52942300  0.60833100  1
  C  446  1  0.48323100  0.51987600  0.20418000  1
  C  448  1  0.53110200  0.49357700  0.16886500  1
  C  449  1  0.50844100  0.46549400  0.17300800  1
  C  451  1  0.45927500  0.49185600  0.20741900  1
  C  453  1  0.42271100  0.48945900  0.22585400  1
  C  454  1  0.42610000  0.47100900  0.25383000  1
  C  463  1  0.48310700  0.27309200  0.41150200  1
  C  465  1  0.53128100  0.23792900  0.43770700  1
  C  466  1  0.50876300  0.24205400  0.46585200  1
  C  468  1  0.45928800  0.27631200  0.43958700  1
  C  470  1  0.42266900  0.29467600  0.44208200  1
  C  471  1  0.42615500  0.32277200  0.46033700  1
  C  480  1  0.48307500  0.72725700  0.45074400  1
  C  482  1  0.53071500  0.76281100  0.42456100  1
  C  483  1  0.50832400  0.75848200  0.39639900  1
  C  485  1  0.45936000  0.72383100  0.42264200  1
  C  487  1  0.42305300  0.70513300  0.42012100  1
  C  488  1  0.42589800  0.67775200  0.40084800  1
  C  497  1  0.71090400  0.25055900  0.20643900  1
  C  499  1  0.75031000  0.26355200  0.16018000  1
  C  500  1  0.77680200  0.23706100  0.16324500  1
  C  502  1  0.73739600  0.22377400  0.20969500  1
  C  504  1  0.73338900  0.20324500  0.23418600  1
  C  505  1  0.75653800  0.21043200  0.26249900  1
  C  514  1  0.71044900  0.75013000  0.65684000  1
  C  516  1  0.75024900  0.73701700  0.70287800  1
  C  517  1  0.77669500  0.76352600  0.69977000  1
  C  519  1  0.73690500  0.77692300  0.65352300  1
  C  521  1  0.73269000  0.79750800  0.62909600  1
  C  522  1  0.75556600  0.79036800  0.60065700  1
  C  531  1  0.71085500  0.72590900  0.18093100  1
  C  533  1  0.74981300  0.77242000  0.19367400  1
  C  534  1  0.77630800  0.76937700  0.16717300  1
  C  536  1  0.73742200  0.72260800  0.15419500  1
  C  538  1  0.73369800  0.69801100  0.13383200  1
  C  539  1  0.75666800  0.66963200  0.14115600  1
  C  548  1  0.71111900  0.27549000  0.68076000  1
  C  550  1  0.74975700  0.22880100  0.66812500  1
  C  551  1  0.77614500  0.23174800  0.69468600  1
  C  553  1  0.73759100  0.27867600  0.70755500  1
  C  555  1  0.73390300  0.30325700  0.72797400  1
  C  556  1  0.75847300  0.33099900  0.72069000  1
  C  565  1  0.27849000  0.74874500  0.21073200  1
  C  567  1  0.23611200  0.73012400  0.16783300  1
  C  568  1  0.21358800  0.75850300  0.16580200  1
  C  570  1  0.25591600  0.77740900  0.20887900  1
  C  572  1  0.26333500  0.80174700  0.22908600  1
  C  573  1  0.24006200  0.80107500  0.25831400  1
  C  582  1  0.27851800  0.25102700  0.65190200  1
  C  584  1  0.23585800  0.26980400  0.69459800  1
  C  585  1  0.21316000  0.24149200  0.69654300  1
  C  587  1  0.25572900  0.22244300  0.65364600  1
  C  589  1  0.26321700  0.19807000  0.63349000  1
  C  590  1  0.24044700  0.19887900  0.60407100  1
  C  599  1  0.27844300  0.27933000  0.18178200  1
  C  601  1  0.23646800  0.23612300  0.20016600  1
  C  602  1  0.21382100  0.23424000  0.17182700  1
  C  604  1  0.25568300  0.27767100  0.15318100  1
  C  606  1  0.26283300  0.29810600  0.12899000  1
  C  607  1  0.23966200  0.32735800  0.13010300  1
  C  616  1  0.27817300  0.72077400  0.67946100  1
  C  618  1  0.23587800  0.76392700  0.66136200  1
  C  619  1  0.21375900  0.76590300  0.68990500  1
  C  621  1  0.25604000  0.72255900  0.70831700  1
  C  623  1  0.26401800  0.70229800  0.73256800  1
  C  624  1  0.24335700  0.67216400  0.73164600  1
  N  362  1  0.01949000  0.98126000  0.17824100  1
  N  365  1  0.97167500  0.03290400  0.17152100  1
  N  374  1  0.01915200  0.06109300  0.20502300  1
  N  376  1  0.97789900  0.95317000  0.14147700  1
  N  379  1  0.01936200  0.01934100  0.68394400  1
  N  382  1  0.97172300  0.96761600  0.69063500  1
  N  391  1  0.01934000  0.93951200  0.65714700  1
  N  393  1  0.97764900  0.04734500  0.72071300  1
  N  396  1  0.01950700  0.75312700  0.91204200  1
  N  399  1  0.97181400  0.75989900  0.96373900  1
  N  408  1  0.01928500  0.72635600  0.99188000  1
  N  410  1  0.97791900  0.78992500  0.88398800  1
  N  413  1  0.01955000  0.24724000  0.95002800  1
  N  416  1  0.97169100  0.24077800  0.89837900  1
  N  425  1  0.01938900  0.27417200  0.87024600  1
  N  427  1  0.97771700  0.21057200  0.97806500  1
  N  430  1  0.51789500  0.48148700  0.67756000  1
  N  433  1  0.47276900  0.53429200  0.67058800  1
  N  442  1  0.52153100  0.56138500  0.70409000  1
  N  444  1  0.47517800  0.45440500  0.64071900  1
  N  447  1  0.51827600  0.51894500  0.18490400  1
  N  450  1  0.47289200  0.46622600  0.19171600  1
  N  459  1  0.52168400  0.43908900  0.15826000  1
  N  461  1  0.47557200  0.54605300  0.22172200  1
  N  464  1  0.51822100  0.25388000  0.41234400  1
  N  467  1  0.47312900  0.26068300  0.46519700  1
  N  476  1  0.52223400  0.22738300  0.49224700  1
  N  478  1  0.47514600  0.29054900  0.38530800  1
  N  481  1  0.51787300  0.74676000  0.44991800  1
  N  484  1  0.47300300  0.73955700  0.39703400  1
  N  493  1  0.52158700  0.77326300  0.37000800  1
  N  495  1  0.47536000  0.70972600  0.47692500  1
  N  498  1  0.71872900  0.26887900  0.18136400  1
  N  501  1  0.76914700  0.21878200  0.18831300  1
  N  510  1  0.81193900  0.23251700  0.14422100  1
  N  512  1  0.67504900  0.25598800  0.22471200  1
  N  515  1  0.71848200  0.73174300  0.68182700  1
  N  518  1  0.76882800  0.78186800  0.67478000  1
  N  527  1  0.81193900  0.76802000  0.71870300  1
  N  529  1  0.67441500  0.74476600  0.63876600  1
  N  532  1  0.71841700  0.75112200  0.19911700  1
  N  535  1  0.76892600  0.74413600  0.14907300  1
  N  544  1  0.81121000  0.78861200  0.16250300  1
  N  546  1  0.67508800  0.70757700  0.18638100  1
  N  549  1  0.71857900  0.25023700  0.66260200  1
  N  552  1  0.76886700  0.25700900  0.71277500  1
  N  561  1  0.81088800  0.21238500  0.69942900  1
  N  563  1  0.67558900  0.29403900  0.67519500  1
  N  566  1  0.26742100  0.72666100  0.18960700  1
  N  569  1  0.22443200  0.78053100  0.18695600  1
  N  578  1  0.17842300  0.76178200  0.14656100  1
  N  580  1  0.31393600  0.74435200  0.22971400  1
  N  583  1  0.26741200  0.27315500  0.67297700  1
  N  586  1  0.22406800  0.21941700  0.67545400  1
  N  595  1  0.17804100  0.23819800  0.71583700  1
  N  597  1  0.31428600  0.25514700  0.63316600  1
  N  600  1  0.26765100  0.25798200  0.20372500  1
  N  603  1  0.22439400  0.25562200  0.14995300  1
  N  612  1  0.17900500  0.21469300  0.16831900  1
  N  614  1  0.31383000  0.29840000  0.18613200  1
  N  617  1  0.26694000  0.74203500  0.65755900  1
  N  620  1  0.22479000  0.74462300  0.71177500  1
  N  629  1  0.17897300  0.78544600  0.69356800  1
  N  631  1  0.31336000  0.70161500  0.67474900  1
  O  42  1  0.01513800  0.24264300  0.01324000  1
  O  43  1  0.03016700  0.11203800  0.21670800  1
  O  44  1  0.17270500  0.21770400  0.11382400  1
  O  45  1  0.82782200  0.18080100  0.15811300  1
  O  87  1  0.01534100  0.75781500  0.84883400  1
  O  88  1  0.03049200  0.88858400  0.64545700  1
  O  89  1  0.17312800  0.78263000  0.74805400  1
  O  90  1  0.82751000  0.81983500  0.70489300  1
  O  132  1  0.01510800  0.91801200  0.17369600  1
  O  133  1  0.03027700  0.71465500  0.04282500  1
  O  134  1  0.17269800  0.81627100  0.14844500  1
  O  135  1  0.82744200  0.77403900  0.11098900  1
  O  177  1  0.01483700  0.08257200  0.68855100  1
  O  178  1  0.03045200  0.28582600  0.81928800  1
  O  179  1  0.17176600  0.18364500  0.71328000  1
  O  180  1  0.82716800  0.22695300  0.75091600  1
  O  222  1  0.50938800  0.74266500  0.51298600  1
  O  223  1  0.53405500  0.61232300  0.71550300  1
  O  224  1  0.66512300  0.69150800  0.64959900  1
  O  225  1  0.31488400  0.70299800  0.62007300  1
  O  267  1  0.50957300  0.25780200  0.34926000  1
  O  268  1  0.53423100  0.38817000  0.14682000  1
  O  269  1  0.66562100  0.30917500  0.21361200  1
  O  270  1  0.31505200  0.29819600  0.24068200  1
  O  312  1  0.50955000  0.41840100  0.67353800  1
  O  313  1  0.53510900  0.21604500  0.54314200  1
  O  314  1  0.66613200  0.28275000  0.62204900  1
  O  315  1  0.31542500  0.30974700  0.63275400  1
  O  357  1  0.50972900  0.58205600  0.18879300  1
  O  358  1  0.53419200  0.78473300  0.31909700  1
  O  359  1  0.66581600  0.71844600  0.23955900  1
  O  360  1  0.31546800  0.68968700  0.22926900  1
  O  373  1  0.88855300  0.00918900  0.15196000  1
  O  390  1  0.88849800  0.99114700  0.71018000  1
  O  407  1  0.88850700  0.77978800  0.94051800  1
  O  424  1  0.88819200  0.22099600  0.92047400  1
  O  441  1  0.38838500  0.51406500  0.65052600  1
  O  458  1  0.38850500  0.48676500  0.21164200  1
  O  475  1  0.38855400  0.28040900  0.44507000  1
  O  492  1  0.38887900  0.71958800  0.41870600  1
  O  509  1  0.73232900  0.17585700  0.22685900  1
  O  526  1  0.73172400  0.82488000  0.63648700  1
  O  543  1  0.73321100  0.70484800  0.10629800  1
  O  560  1  0.73266100  0.29644800  0.75548000  1
  O  577  1  0.26678100  0.82739000  0.21724700  1
  O  594  1  0.26620300  0.17239900  0.64533700  1
  O  611  1  0.26593600  0.28652800  0.10320300  1
  O  628  1  0.26701400  0.71428200  0.75818800  1
