# generated using pymatgen
data_LaH9(C7O2)3
_symmetry_space_group_name_H-M   'P 1'
_cell_length_a   7.92013000
_cell_length_b   11.62031000
_cell_length_c   11.62067000
_cell_angle_alpha   72.77569000
_cell_angle_beta   88.56751000
_cell_angle_gamma   88.56884000
_symmetry_Int_Tables_number   1
_chemical_formula_structural   LaH9(C7O2)3
_chemical_formula_sum   'La2 H18 C42 O12'
_cell_volume   1021.04465918
_cell_formula_units_Z   2
loop_
 _symmetry_equiv_pos_site_id
 _symmetry_equiv_pos_as_xyz
  1  'x, y, z'
loop_
 _atom_site_type_symbol
 _atom_site_label
 _atom_site_symmetry_multiplicity
 _atom_site_fract_x
 _atom_site_fract_y
 _atom_site_fract_z
 _atom_site_occupancy
  La  La0  1  0.25701000  0.00795000  0.97551000  1
  La  La1  1  0.75702000  0.97551000  0.00795000  1
  H  H2  1  0.63220000  0.70680000  0.86608000  1
  H  H3  1  0.68292000  0.53919000  0.91394000  1
  H  H4  1  0.79534000  0.33121000  0.98914000  1
  H  H5  1  0.06753000  0.37114000  0.65858000  1
  H  H6  1  0.09836000  0.46210000  0.48934000  1
  H  H7  1  0.17409000  0.58993000  0.28452000  1
  H  H8  1  0.88618000  0.88278000  0.34256000  1
  H  H9  1  0.73481000  0.94483000  0.44184000  1
  H  H10  1  0.55871000  0.02902000  0.57632000  1
  H  H11  1  0.13220000  0.86609000  0.70679000  1
  H  H12  1  0.18292000  0.91395000  0.53918000  1
  H  H13  1  0.29534000  0.98915000  0.33120000  1
  H  H14  1  0.56753000  0.65859000  0.37114000  1
  H  H15  1  0.59836000  0.48934000  0.46209000  1
  H  H16  1  0.67409000  0.28452000  0.58993000  1
  H  H17  1  0.38618000  0.34257000  0.88277000  1
  H  H18  1  0.23481000  0.44184000  0.94481000  1
  H  H19  1  0.05872000  0.57632000  0.02901000  1
  C  C20  1  0.48362000  0.92298000  0.81032000  1
  C  C21  1  0.58724000  0.87148000  0.72963000  1
  C  C22  1  0.65404000  0.75524000  0.77182000  1
  C  C23  1  0.74689000  0.70187000  0.69548000  1
  C  C24  1  0.80852000  0.57761000  0.73870000  1
  C  C25  1  0.76585000  0.50406000  0.85588000  1
  C  C26  1  0.82855000  0.38761000  0.89919000  1
  C  C27  1  0.93982000  0.34143000  0.82712000  1
  C  C28  1  0.01960000  0.22111000  0.87585000  1
  C  C29  1  0.98078000  0.41110000  0.71046000  1
  C  C30  1  0.91301000  0.52831000  0.66268000  1
  C  C31  1  0.94936000  0.60010000  0.53854000  1
  C  C32  1  0.04920000  0.55393000  0.45903000  1
  C  C33  1  0.09203000  0.62422000  0.34383000  1
  C  C34  1  0.03236000  0.74409000  0.30254000  1
  C  C35  1  0.08828000  0.82405000  0.18383000  1
  C  C36  1  0.92841000  0.78967000  0.37746000  1
  C  C37  1  0.88480000  0.72063000  0.49544000  1
  C  C38  1  0.78208000  0.77211000  0.57466000  1
  C  C39  1  0.71343000  0.89053000  0.53431000  1
  C  C40  1  0.61446000  0.93901000  0.60863000  1
  C  C41  1  0.98361000  0.81033000  0.92297000  1
  C  C42  1  0.08723000  0.72964000  0.87147000  1
  C  C43  1  0.15404000  0.77183000  0.75523000  1
  C  C44  1  0.24689000  0.69548000  0.70186000  1
  C  C45  1  0.30852000  0.73871000  0.57761000  1
  C  C46  1  0.26585000  0.85589000  0.50405000  1
  C  C47  1  0.32855000  0.89919000  0.38760000  1
  C  C48  1  0.43983000  0.82712000  0.34143000  1
  C  C49  1  0.51960000  0.87585000  0.22111000  1
  C  C50  1  0.48078000  0.71047000  0.41110000  1
  C  C51  1  0.41301000  0.66269000  0.52831000  1
  C  C52  1  0.44936000  0.53855000  0.60010000  1
  C  C53  1  0.54920000  0.45903000  0.55392000  1
  C  C54  1  0.59203000  0.34383000  0.62422000  1
  C  C55  1  0.53236000  0.30255000  0.74408000  1
  C  C56  1  0.58828000  0.18383000  0.82405000  1
  C  C57  1  0.42841000  0.37746000  0.78967000  1
  C  C58  1  0.38479000  0.49544000  0.72063000  1
  C  C59  1  0.28208000  0.57467000  0.77210000  1
  C  C60  1  0.21343000  0.53431000  0.89052000  1
  C  C61  1  0.11446000  0.60864000  0.93900000  1
  O  O62  1  0.51599000  0.88950000  0.92566000  1
  O  O63  1  0.36444000  0.99723000  0.77007000  1
  O  O64  1  0.96174000  0.14763000  0.97606000  1
  O  O65  1  0.14965000  0.19347000  0.82289000  1
  O  O66  1  0.20801000  0.79274000  0.12460000  1
  O  O67  1  0.01685000  0.93085000  0.14313000  1
  O  O68  1  0.01599000  0.92567000  0.88949000  1
  O  O69  1  0.86443000  0.77008000  0.99722000  1
  O  O70  1  0.46174000  0.97607000  0.14762000  1
  O  O71  1  0.64966000  0.82289000  0.19347000  1
  O  O72  1  0.70801000  0.12460000  0.79274000  1
  O  O73  1  0.51685000  0.14313000  0.93084000  1
