# generated using pymatgen
data_ScH4C8O5
_symmetry_space_group_name_H-M   'P 1'
_cell_length_a   12.50491000
_cell_length_b   12.58431333
_cell_length_c   12.61278000
_cell_angle_alpha   75.76001509
_cell_angle_beta   60.27648000
_cell_angle_gamma   60.26646603
_symmetry_Int_Tables_number   1
_chemical_formula_structural   ScH4C8O5
_chemical_formula_sum   'Sc4 H16 C32 O20'
_cell_volume   1496.73617811
_cell_formula_units_Z   4
loop_
 _symmetry_equiv_pos_site_id
 _symmetry_equiv_pos_as_xyz
  1  'x, y, z'
loop_
 _atom_site_type_symbol
 _atom_site_label
 _atom_site_symmetry_multiplicity
 _atom_site_fract_x
 _atom_site_fract_y
 _atom_site_fract_z
 _atom_site_occupancy
  Sc  Sc1  1  0.81502000  0.36863000  0.00015000  1.0
  Sc  Sc2  1  0.18172000  0.63451000  0.00013000  1.0
  Sc  Sc3  1  0.93220000  0.50132000  0.13217000  1.0
  Sc  Sc4  1  0.56491000  0.50112000  0.86779000  1.0
  H  H1  1  0.10969000  0.44016000  0.68843000  1.0
  H  H2  1  0.24004000  0.55719000  0.31161000  1.0
  H  H3  1  0.29907000  0.18970000  0.06041000  1.0
  H  H4  1  0.54872000  0.81393000  0.93756000  1.0
  H  H5  1  0.51316000  0.18891000  0.93687000  1.0
  H  H6  1  0.63615000  0.81421000  0.06290000  1.0
  H  H7  1  0.20093000  0.55958000  0.68801000  1.0
  H  H8  1  0.44952000  0.43929000  0.31219000  1.0
  H  H9  1  0.87803000  0.49897000  0.49956000  1.0
  H  H10  1  0.12719000  0.00037000  0.99994000  1.0
  H  H11  1  0.87152000  0.00087000  0.00083000  1.0
  H  H12  1  0.62127000  0.50096000  0.50019000  1.0
  H  H13  1  0.86341000  0.56450000  0.94807000  1.0
  H  H14  1  0.17025000  0.45850000  0.93198000  1.0
  H  H15  1  0.56630000  0.55955000  0.05647000  1.0
  H  H16  1  0.36937000  0.45488000  0.06457000  1.0
  C  C1  1  0.87940000  0.44324000  0.72236000  1.0
  C  C2  1  0.09632000  0.46735000  0.60536000  1.0
  C  C3  1  0.98286000  0.46941000  0.60615000  1.0
  C  C4  1  0.04734000  0.55466000  0.27692000  1.0
  C  C5  1  0.17083000  0.52973000  0.39447000  1.0
  C  C6  1  0.06050000  0.52762000  0.39321000  1.0
  C  C7  1  0.07084000  0.22279000  0.05914000  1.0
  C  C8  1  0.31324000  0.10671000  0.03237000  1.0
  C  C9  1  0.20165000  0.10725000  0.03073000  1.0
  C  C10  1  0.35322000  0.77944000  0.93923000  1.0
  C  C11  1  0.45156000  0.89646000  0.96645000  1.0
  C  C12  1  0.33915000  0.89518000  0.96836000  1.0
  C  C13  1  0.70703000  0.22236000  0.93957000  1.0
  C  C14  1  0.58103000  0.10622000  0.96600000  1.0
  C  C15  1  0.69167000  0.10685000  0.96823000  1.0
  C  C16  1  0.86541000  0.78006000  0.06315000  1.0
  C  C17  1  0.65147000  0.89648000  0.03359000  1.0
  C  C18  1  0.76490000  0.89527000  0.03225000  1.0
  C  C19  1  0.39597000  0.55819000  0.72256000  1.0
  C  C20  1  0.29776000  0.53168000  0.60536000  1.0
  C  C21  1  0.40996000  0.53026000  0.60647000  1.0
  C  C22  1  0.67647000  0.44265000  0.27817000  1.0
  C  C23  1  0.43523000  0.46748000  0.39502000  1.0
  C  C24  1  0.54644000  0.46998000  0.39406000  1.0
  C  C25  1  0.19109000  0.49865000  0.50001000  1.0
  C  C26  1  0.96513000  0.49858000  0.49961000  1.0
  C  C27  1  0.44006000  0.00167000  0.99943000  1.0
  C  C28  1  0.21393000  0.00095000  0.99976000  1.0
  C  C29  1  0.55867000  0.00145000  0.99950000  1.0
  C  C30  1  0.78480000  0.00094000  0.00032000  1.0
  C  C31  1  0.30904000  0.49926000  0.50017000  1.0
  C  C32  1  0.53457000  0.50047000  0.50025000  1.0
  O  O1  1  0.91417000  0.39156000  0.80834000  1.0
  O  O2  1  0.76179000  0.47668000  0.72906000  1.0
  O  O3  1  0.11908000  0.60421000  0.19065000  1.0
  O  O4  1  0.96752000  0.52439000  0.27018000  1.0
  O  O5  1  0.05389000  0.30911000  0.11058000  1.0
  O  O6  1  0.98538000  0.22877000  0.02774000  1.0
  O  O7  1  0.47450000  0.69344000  0.88900000  1.0
  O  O8  1  0.24305000  0.77306000  0.96861000  1.0
  O  O9  1  0.63667000  0.30887000  0.88919000  1.0
  O  O10  1  0.78759000  0.22800000  0.96975000  1.0
  O  O11  1  0.83020000  0.69382000  0.11257000  1.0
  O  O12  1  0.98102000  0.77427000  0.03622000  1.0
  O  O13  1  0.27484000  0.60840000  0.80872000  1.0
  O  O14  1  0.50607000  0.52789000  0.72921000  1.0
  O  O15  1  0.69306000  0.39116000  0.19213000  1.0
  O  O16  1  0.76130000  0.47510000  0.27172000  1.0
  O  O17  1  0.62792000  0.49474000  0.99606000  1.0
  O  O18  1  0.11447000  0.51097000  0.00298000  1.0
  O  O19  1  0.87283000  0.49678000  0.00508000  1.0
  O  O20  1  0.37322000  0.50832000  0.99415000  1.0
