# generated using pymatgen
data_H15C24N3O2
_symmetry_space_group_name_H-M   'P 1'
_cell_length_a   9.99800000
_cell_length_b   76.39130000
_cell_length_c   76.39130000
_cell_angle_alpha   120.00000000
_cell_angle_beta   90.00000000
_cell_angle_gamma   90.00000000
_symmetry_Int_Tables_number   1
_chemical_formula_structural   H15C24N3O2
_chemical_formula_sum   'H135 C216 N27 O18'
_cell_volume   50527.93686003
_cell_formula_units_Z   9
loop_
 _symmetry_equiv_pos_site_id
 _symmetry_equiv_pos_as_xyz
  1  'x, y, z'
loop_
 _atom_site_type_symbol
 _atom_site_label
 _atom_site_symmetry_multiplicity
 _atom_site_fract_x
 _atom_site_fract_y
 _atom_site_fract_z
 _atom_site_occupancy
  C  1  1  0.95530200  0.76866500  0.30748100  1
  C  2  1  0.04698000  0.78481400  0.31365600  1
  C  3  1  0.05366000  0.80040600  0.33397300  1
  C  4  1  0.97039500  0.80004600  0.34875600  1
  C  5  1  0.87810700  0.78401200  0.34260900  1
  C  6  1  0.87135300  0.76850000  0.32230900  1
  C  7  1  0.98093500  0.81429500  0.36915100  1
  C  8  1  0.09620000  0.81800000  0.37948400  1
  C  9  1  0.09962200  0.82858100  0.40037000  1
  C  10  1  0.10525200  0.81768900  0.41078600  1
  C  11  1  0.10621100  0.82779400  0.43211800  1
  C  12  1  0.10382900  0.84915100  0.44304500  1
  C  13  1  0.09839100  0.86038800  0.43291000  1
  C  14  1  0.09697800  0.84991000  0.41150000  1
  C  15  1  0.09934100  0.88136200  0.44411300  1
  C  16  1  0.01058200  0.89317100  0.44162300  1
  C  17  1  0.01295200  0.91409900  0.45293900  1
  C  18  1  0.02282400  0.92556400  0.44312700  1
  C  19  1  0.00159900  0.92439200  0.47423600  1
  C  20  1  0.00290100  0.94565000  0.48545700  1
  C  21  1  0.01701300  0.95719700  0.47574900  1
  C  22  1  0.02528500  0.94681600  0.45439500  1
  C  23  1  0.10916200  0.81638900  0.44162800  1
  C  24  1  0.01043400  0.81673000  0.45375800  1
  C  25  1  0.99936000  0.80210000  0.45938000  1
  C  26  1  0.88392700  0.78981900  0.45377400  1
  C  27  1  0.10434100  0.79800900  0.46920500  1
  C  28  1  0.09648900  0.78142900  0.47242400  1
  C  29  1  0.98376700  0.76842900  0.46597200  1
  C  30  1  0.87632600  0.77330600  0.45705900  1
  C  52  1  0.95581200  0.53850300  0.23114700  1
  C  53  1  0.04756700  0.52850500  0.21501200  1
  C  54  1  0.05430000  0.53318400  0.19938900  1
  C  55  1  0.97097500  0.54829600  0.19969700  1
  C  56  1  0.87864600  0.55821100  0.21572000  1
  C  57  1  0.87174600  0.55345700  0.23125600  1
  C  58  1  0.98148600  0.55437100  0.18539500  1
  C  59  1  0.09668100  0.56107300  0.18175800  1
  C  60  1  0.09977900  0.57143600  0.17122800  1
  C  61  1  0.10533300  0.59274400  0.18216400  1
  C  62  1  0.10603100  0.60401500  0.17210300  1
  C  63  1  0.10346000  0.59363000  0.15074700  1
  C  64  1  0.09804900  0.57226000  0.13946700  1
  C  65  1  0.09693000  0.56128400  0.14990100  1
  C  66  1  0.09889100  0.56253200  0.11849600  1
  C  67  1  0.01015300  0.54823500  0.10667700  1
  C  68  1  0.01258200  0.53863300  0.08575000  1
  C  69  1  0.02251400  0.51735700  0.07427500  1
  C  70  1  0.00125100  0.54964500  0.07546400  1
  C  71  1  0.00265100  0.53961900  0.05420700  1
  C  72  1  0.01680400  0.51836400  0.04265200  1
  C  73  1  0.02503500  0.50738300  0.05302300  1
  C  74  1  0.10896300  0.62492800  0.18354900  1
  C  75  1  0.01027300  0.63673100  0.18323000  1
  C  76  1  0.99923900  0.65698900  0.19785400  1
  C  77  1  0.88375600  0.66367900  0.21012300  1
  C  78  1  0.10427100  0.67089700  0.20194500  1
  C  79  1  0.09646900  0.69069600  0.21852200  1
  C  80  1  0.98363800  0.69726600  0.23150300  1
  C  81  1  0.87610600  0.68348900  0.22661400  1
  C  103  1  0.95582100  0.69237800  0.46121400  1
  C  104  1  0.04718000  0.68619300  0.47121600  1
  C  105  1  0.05383300  0.66586700  0.46645600  1
  C  106  1  0.97075300  0.65109000  0.45127100  1
  C  107  1  0.87876600  0.65725300  0.44136000  1
  C  108  1  0.87203400  0.67756400  0.44617900  1
  C  109  1  0.98103600  0.63069400  0.44512300  1
  C  110  1  0.09648800  0.62036800  0.43871500  1
  C  111  1  0.09959900  0.59947700  0.42835200  1
  C  112  1  0.10501100  0.58910100  0.40704300  1
  C  113  1  0.10562000  0.56777000  0.39577600  1
  C  114  1  0.10318100  0.55680500  0.40616800  1
  C  115  1  0.09799000  0.56689800  0.42753800  1
  C  116  1  0.09688000  0.58830900  0.43851200  1
  C  117  1  0.09886900  0.55566300  0.43727500  1
  C  118  1  0.01023100  0.55814800  0.45158200  1
  C  119  1  0.01266200  0.54683300  0.46119300  1
  C  120  1  0.02259500  0.55664300  0.48246900  1
  C  121  1  0.00138100  0.52553300  0.45018800  1
  C  122  1  0.00283100  0.51431100  0.46022500  1
  C  123  1  0.01688500  0.52402200  0.48148100  1
  C  124  1  0.02506500  0.54537600  0.49245500  1
  C  125  1  0.10838300  0.55831100  0.37486500  1
  C  126  1  0.01027100  0.54604800  0.36303800  1
  C  127  1  0.99926900  0.54048000  0.34279400  1
  C  128  1  0.88384700  0.54609200  0.33612300  1
  C  129  1  0.10423900  0.53064700  0.32888000  1
  C  130  1  0.09645900  0.52744700  0.30908900  1
  C  131  1  0.98379800  0.53391600  0.30254500  1
  C  132  1  0.87633600  0.54282700  0.31633200  1
  C  154  1  0.95326100  0.23256100  0.69427800  1
  C  155  1  0.04266900  0.21617700  0.68827700  1
  C  156  1  0.04895000  0.20047000  0.66800900  1
  C  157  1  0.96776500  0.20094400  0.65308500  1
  C  158  1  0.87762600  0.21721600  0.65908000  1
  C  159  1  0.87102200  0.23282700  0.67934200  1
  C  160  1  0.97851500  0.18662300  0.63270100  1
  C  161  1  0.09519900  0.18197600  0.62260800  1
  C  162  1  0.10061900  0.17130900  0.60174000  1
  C  163  1  0.10602300  0.18211400  0.59122500  1
  C  164  1  0.11059000  0.17190100  0.56989600  1
  C  165  1  0.11255100  0.15054400  0.55908100  1
  C  166  1  0.10746100  0.13947400  0.56937100  1
  C  167  1  0.10173000  0.14997300  0.59074000  1
  C  168  1  0.11202400  0.11857600  0.55843600  1
  C  169  1  0.00866300  0.10681800  0.55737600  1
  C  170  1  0.01034100  0.08582700  0.54607000  1
  C  171  1  0.96337200  0.07435400  0.55467200  1
  C  172  1  0.05353200  0.07541800  0.52571700  1
  C  173  1  0.05275100  0.05416700  0.51449500  1
  C  174  1  0.00643100  0.04254600  0.52303600  1
  C  175  1  0.96177200  0.05309200  0.54336100  1
  C  176  1  0.11279400  0.18318700  0.56026500  1
  C  177  1  0.01502500  0.18238300  0.54778900  1
  C  178  1  0.00300200  0.19678200  0.54188000  1
  C  179  1  0.88698800  0.20892700  0.54730000  1
  C  180  1  0.10757200  0.20077300  0.53192100  1
  C  181  1  0.09867000  0.21712700  0.52836500  1
  C  182  1  0.98536700  0.23001400  0.53462700  1
  C  183  1  0.87840600  0.22522600  0.54369400  1
  C  205  1  0.95322000  0.46151200  0.76735700  1
  C  206  1  0.04315000  0.47185900  0.78367700  1
  C  207  1  0.04957900  0.46734400  0.79941600  1
  C  208  1  0.96794400  0.45203400  0.79904000  1
  C  209  1  0.87729400  0.44179500  0.78283500  1
  C  210  1  0.87059200  0.44639400  0.76719000  1
  C  211  1  0.97878600  0.44602600  0.81339900  1
  C  212  1  0.09534800  0.44035000  0.81783700  1
  C  213  1  0.10076900  0.43017200  0.82852700  1
  C  214  1  0.10655200  0.40885500  0.81774400  1
  C  215  1  0.11117300  0.39775900  0.82797800  1
  C  216  1  0.11296200  0.40832100  0.84933500  1
  C  217  1  0.10756200  0.42967900  0.86038500  1
  C  218  1  0.10167100  0.44052600  0.84986400  1
  C  219  1  0.11203100  0.43965700  0.88128200  1
  C  220  1  0.00858100  0.45033700  0.89303100  1
  C  221  1  0.01026400  0.46003600  0.91402100  1
  C  222  1  0.96323200  0.48010800  0.92548600  1
  C  223  1  0.05355200  0.45010800  0.92444200  1
  C  224  1  0.05278100  0.46014600  0.94569100  1
  C  225  1  0.00639000  0.48030500  0.95730400  1
  C  226  1  0.96164100  0.49007000  0.94674900  1
  C  227  1  0.11375300  0.37684000  0.81672100  1
  C  228  1  0.01564300  0.36518600  0.81747500  1
  C  229  1  0.00347200  0.34488400  0.80306200  1
  C  230  1  0.88735700  0.33818500  0.79093800  1
  C  231  1  0.10794100  0.33091100  0.79904700  1
  C  232  1  0.09889200  0.31101100  0.78267700  1
  C  233  1  0.98556600  0.30442200  0.76979500  1
  C  234  1  0.87868600  0.31829400  0.77461500  1
  C  256  1  0.95355000  0.30548700  0.53819800  1
  C  257  1  0.04297900  0.31148000  0.52781200  1
  C  258  1  0.04930000  0.33174900  0.53237400  1
  C  259  1  0.96807300  0.34667200  0.54776200  1
  C  260  1  0.87789400  0.34068300  0.55804100  1
  C  261  1  0.87128200  0.32042400  0.55339600  1
  C  262  1  0.97869600  0.36704800  0.55378800  1
  C  263  1  0.09533000  0.37715400  0.55936200  1
  C  264  1  0.10062100  0.39802400  0.56958500  1
  C  265  1  0.10608300  0.40851800  0.59090300  1
  C  266  1  0.11059100  0.42984700  0.60203800  1
  C  267  1  0.11248200  0.44068200  0.59151700  1
  C  268  1  0.10735000  0.43041200  0.57015700  1
  C  269  1  0.10163800  0.40904400  0.55926900  1
  C  270  1  0.11186200  0.44136900  0.56021700  1
  C  271  1  0.00855200  0.44242300  0.54950600  1
  C  272  1  0.01028100  0.45372400  0.53981600  1
  C  273  1  0.96337100  0.44511600  0.51973800  1
  C  274  1  0.05357200  0.47407300  0.54975100  1
  C  275  1  0.05283100  0.48528800  0.53971600  1
  C  276  1  0.00647100  0.47674600  0.51955600  1
  C  277  1  0.96184300  0.45642000  0.50978000  1
  C  278  1  0.11290300  0.43945700  0.62295400  1
  C  279  1  0.01522100  0.45194800  0.63464300  1
  C  280  1  0.00322200  0.45781100  0.65494100  1
  C  281  1  0.88710800  0.45240400  0.66165500  1
  C  282  1  0.10782000  0.46774400  0.66889300  1
  C  283  1  0.09884800  0.47127800  0.68879600  1
  C  284  1  0.98541700  0.46503200  0.69541200  1
  C  285  1  0.87841600  0.45600300  0.68155700  1
  C  307  1  0.01836400  0.97866100  0.48726900  1
  C  309  1  0.91586300  0.00841300  0.51408000  1
  C  310  1  0.00728000  0.02099200  0.51141000  1
  C  312  1  0.11174300  0.99105000  0.48453100  1
  C  317  1  0.01823200  0.50842900  0.02118800  1
  C  319  1  0.91574400  0.50548000  0.99143500  1
  C  320  1  0.00723100  0.49024000  0.97885800  1
  C  322  1  0.11169200  0.49331200  0.00880300  1
  C  327  1  0.01829500  0.51250300  0.49142800  1
  C  329  1  0.91577400  0.48570900  0.49439000  1
  C  330  1  0.00728100  0.48837000  0.50962600  1
  C  332  1  0.11171200  0.51524400  0.50655100  1
  C  337  1  0.95736000  0.75199600  0.28741800  1
  C  339  1  0.09362900  0.72664000  0.26112200  1
  C  340  1  0.97931600  0.71649300  0.24961700  1
  C  342  1  0.84183900  0.74239700  0.27580000  1
  C  347  1  0.95773100  0.53512400  0.24782800  1
  C  349  1  0.09391900  0.53412800  0.27316300  1
  C  350  1  0.97952700  0.53281700  0.28332400  1
  C  352  1  0.84215800  0.53311300  0.25742100  1
  C  357  1  0.95778000  0.71246100  0.46466700  1
  C  359  1  0.09391900  0.73880900  0.46569600  1
  C  360  1  0.97950600  0.75028800  0.46703700  1
  C  362  1  0.84219700  0.72407700  0.46672000  1
  C  367  1  0.95622000  0.24935000  0.71425800  1
  C  369  1  0.09387900  0.27463900  0.74036000  1
  C  370  1  0.98010500  0.28507800  0.75182400  1
  C  372  1  0.84116900  0.25923300  0.72584000  1
  C  377  1  0.95611200  0.46465000  0.75053100  1
  C  379  1  0.09377000  0.46538900  0.72520100  1
  C  380  1  0.98000600  0.46641700  0.71476200  1
  C  382  1  0.84107800  0.46634800  0.74064500  1
  C  387  1  0.95635200  0.28550000  0.53498500  1
  C  389  1  0.09390800  0.25940600  0.53421700  1
  C  390  1  0.98005500  0.24796500  0.53321800  1
  C  392  1  0.84126700  0.27392800  0.53329100  1
  H  31  1  0.11068000  0.78527600  0.30340300  1
  H  32  1  0.12217400  0.81174200  0.33797100  1
  H  33  1  0.80854300  0.75659400  0.31868900  1
  H  34  1  0.81865500  0.78301600  0.35300300  1
  H  35  1  0.09489800  0.85783600  0.40393600  1
  H  36  1  0.10636200  0.80217200  0.40272100  1
  H  37  1  0.10560000  0.85655700  0.45854100  1
  H  38  1  0.80687000  0.79216600  0.44634100  1
  H  39  1  0.02904400  0.91854800  0.42769300  1
  H  40  1  0.03042700  0.95463900  0.44677600  1
  H  41  1  0.99593100  0.95262200  0.50087300  1
  H  42  1  0.99199600  0.91650000  0.48175300  1
  H  43  1  0.79364000  0.76422300  0.45180000  1
  H  44  1  0.17562400  0.77881200  0.47928300  1
  H  45  1  0.18924900  0.80666000  0.47348500  1
  H  46  1  0.94129800  0.88683100  0.43087000  1
  H  47  1  0.16833300  0.88783000  0.45490900  1
  H  48  1  0.89622000  0.82010600  0.37674900  1
  H  49  1  0.17938500  0.81084800  0.37230700  1
  H  50  1  0.93338700  0.82606500  0.45668400  1
  H  51  1  0.17969700  0.80579100  0.43717900  1
  H  82  1  0.11130300  0.51781000  0.21458500  1
  H  83  1  0.12285400  0.52582800  0.18806100  1
  H  84  1  0.80887100  0.56175300  0.24314800  1
  H  85  1  0.81901400  0.56955800  0.21665900  1
  H  86  1  0.09491100  0.54579400  0.14194100  1
  H  87  1  0.10660000  0.60016200  0.19767900  1
  H  88  1  0.10506000  0.60175200  0.14337400  1
  H  89  1  0.80653300  0.65391600  0.20774700  1
  H  90  1  0.02873800  0.50893400  0.08128500  1
  H  91  1  0.03025500  0.49194000  0.04519400  1
  H  92  1  0.99567000  0.54806800  0.04724000  1
  H  93  1  0.99160600  0.56505300  0.08336100  1
  H  94  1  0.79326100  0.68733200  0.23566700  1
  H  95  1  0.17566400  0.70016200  0.22114300  1
  H  96  1  0.18931700  0.66650400  0.19332200  1
  H  97  1  0.94102900  0.54378300  0.11300500  1
  H  98  1  0.16780500  0.56688400  0.11203700  1
  H  99  1  0.89681900  0.55609200  0.17953100  1
  H  100  1  0.17962600  0.56122700  0.18904300  1
  H  101  1  0.93325700  0.63036100  0.17387900  1
  H  102  1  0.17947500  0.63106300  0.19415300  1
  H  133  1  0.11065300  0.69644600  0.48197500  1
  H  134  1  0.12196600  0.66186600  0.47383900  1
  H  135  1  0.80945300  0.68120300  0.43788400  1
  H  136  1  0.81943300  0.64686900  0.42994500  1
  H  137  1  0.09499900  0.59584200  0.45399900  1
  H  138  1  0.10613200  0.59719900  0.39962500  1
  H  139  1  0.10475000  0.54130700  0.39804800  1
  H  140  1  0.80682100  0.55352900  0.34590700  1
  H  141  1  0.02881000  0.57207700  0.49088700  1
  H  142  1  0.03032600  0.55299500  0.50789500  1
  H  143  1  0.99581000  0.49889700  0.45178500  1
  H  144  1  0.99173800  0.51801800  0.43478400  1
  H  145  1  0.79366900  0.54808800  0.31250500  1
  H  146  1  0.17558300  0.52058200  0.29961200  1
  H  147  1  0.18912700  0.52636300  0.33325500  1
  H  148  1  0.94108700  0.56894100  0.45604000  1
  H  149  1  0.16780300  0.54484100  0.43291300  1
  H  150  1  0.89626000  0.62307800  0.44324500  1
  H  151  1  0.17991600  0.62750600  0.43876400  1
  H  152  1  0.93313900  0.54309900  0.36940400  1
  H  153  1  0.17887500  0.56275600  0.36870800  1
  H  184  1  0.10512200  0.21564100  0.69861800  1
  H  185  1  0.11588300  0.18896600  0.66414800  1
  H  186  1  0.81003300  0.24489400  0.68284000  1
  H  187  1  0.81974300  0.21831100  0.64859900  1
  H  188  1  0.09920100  0.14206900  0.59832800  1
  H  189  1  0.10451200  0.19763100  0.59920600  1
  H  190  1  0.11715100  0.14302900  0.54359700  1
  H  191  1  0.81021200  0.20664500  0.55482100  1
  H  192  1  0.93117500  0.08137900  0.56936500  1
  H  193  1  0.93037400  0.04542100  0.55039300  1
  H  194  1  0.08417600  0.04727800  0.49978000  1
  H  195  1  0.08542700  0.08321300  0.51881600  1
  H  196  1  0.79529900  0.23422800  0.54882200  1
  H  197  1  0.17749600  0.21966800  0.52140100  1
  H  198  1  0.19288000  0.19221000  0.52777500  1
  H  199  1  0.92635600  0.11335600  0.56534000  1
  H  200  1  0.19482900  0.11226500  0.55054700  1
  H  201  1  0.89382000  0.18138200  0.62490000  1
  H  202  1  0.17953600  0.18843500  0.62992000  1
  H  203  1  0.93914700  0.17282200  0.54471000  1
  H  204  1  0.18207500  0.19397100  0.56477700  1
  H  235  1  0.10590200  0.48267400  0.78414400  1
  H  236  1  0.11686400  0.47495800  0.81087200  1
  H  237  1  0.80902300  0.43787400  0.75518500  1
  H  238  1  0.81885400  0.43031200  0.78183800  1
  H  239  1  0.09892900  0.45601800  0.85775500  1
  H  240  1  0.10512000  0.40130100  0.80222600  1
  H  241  1  0.11766400  0.40036800  0.85686700  1
  H  242  1  0.81068300  0.34800900  0.79323500  1
  H  243  1  0.93090700  0.48776200  0.91845100  1
  H  244  1  0.93013500  0.50476800  0.95441200  1
  H  245  1  0.08429700  0.45233100  0.95258700  1
  H  246  1  0.08552600  0.43541400  0.91665100  1
  H  247  1  0.79551000  0.31444500  0.76562600  1
  H  248  1  0.17770400  0.30149600  0.78010900  1
  H  249  1  0.19332100  0.33531100  0.80759200  1
  H  250  1  0.92621400  0.45173200  0.88648600  1
  H  251  1  0.19493900  0.43812900  0.88760700  1
  H  252  1  0.89422700  0.44363000  0.81879600  1
  H  253  1  0.17937400  0.44101000  0.81119900  1
  H  254  1  0.93970900  0.37167800  0.82702500  1
  H  255  1  0.18284600  0.37057500  0.80591100  1
  H  286  1  0.10533200  0.30113300  0.51692200  1
  H  287  1  0.11609300  0.33560400  0.52470900  1
  H  288  1  0.81023100  0.31692400  0.56195700  1
  H  289  1  0.81994400  0.35116400  0.56960300  1
  H  290  1  0.09909900  0.40147200  0.54377700  1
  H  291  1  0.10466000  0.40052100  0.59842400  1
  H  292  1  0.11706400  0.45616600  0.59949900  1
  H  293  1  0.81021100  0.44493300  0.65185700  1
  H  294  1  0.93104700  0.43042700  0.51207800  1
  H  295  1  0.93030500  0.44939100  0.49508400  1
  H  296  1  0.08426600  0.50000300  0.54753800  1
  H  297  1  0.08545900  0.48097600  0.56444800  1
  H  298  1  0.79518800  0.45089400  0.68542600  1
  H  299  1  0.17769500  0.47822100  0.69830300  1
  H  300  1  0.19318000  0.47188500  0.66448500  1
  H  301  1  0.92623500  0.43446000  0.54807900  1
  H  302  1  0.19473000  0.44923900  0.56177700  1
  H  303  1  0.89404900  0.37485300  0.55632900  1
  H  304  1  0.17947500  0.36983000  0.55857700  1
  H  305  1  0.93937700  0.45502200  0.62815300  1
  H  306  1  0.18206600  0.43492900  0.62922700  1
  H  313  1  0.84049900  0.01418800  0.52446800  1
  H  323  1  0.84039900  0.51009300  0.98565600  1
  H  333  1  0.84052000  0.47530100  0.48976100  1
  H  343  1  0.18776800  0.72094600  0.25673100  1
  H  353  1  0.18798900  0.53549000  0.27889800  1
  H  363  1  0.18800800  0.74319000  0.46435400  1
  H  373  1  0.18839900  0.28018500  0.74467900  1
  H  383  1  0.18828000  0.46413600  0.71964300  1
  H  393  1  0.18832700  0.25513000  0.53555500  1
  N  308  1  0.92494400  0.98807800  0.50204600  1
  N  311  1  0.10103800  0.01145200  0.49671100  1
  N  314  1  0.21709300  0.98283000  0.47043400  1
  N  318  1  0.92479600  0.51378300  0.01176800  1
  N  321  1  0.10100800  0.48509100  0.98840300  1
  N  324  1  0.21702400  0.48743900  0.01702800  1
  N  328  1  0.92487500  0.49772800  0.48607400  1
  N  331  1  0.10103800  0.50306700  0.51477700  1
  N  334  1  0.21702300  0.52934600  0.51242600  1
  N  338  1  0.07793500  0.74354600  0.27938400  1
  N  341  1  0.85915300  0.72515300  0.25769900  1
  N  344  1  0.71245100  0.75027700  0.28242400  1
  N  348  1  0.07827500  0.53552200  0.25627800  1
  N  351  1  0.85939300  0.53225500  0.27466600  1
  N  354  1  0.71279200  0.53186800  0.24953700  1
  N  358  1  0.07831700  0.72051500  0.46427400  1
  N  361  1  0.85939100  0.74219500  0.46761100  1
  N  364  1  0.71287200  0.71742600  0.46796600  1
  N  368  1  0.07729500  0.25763000  0.72220500  1
  N  371  1  0.85944200  0.27657200  0.74382600  1
  N  374  1  0.71133200  0.25154400  0.71927200  1
  N  378  1  0.07717500  0.46427900  0.74222800  1
  N  381  1  0.85934300  0.46696300  0.72328900  1
  N  384  1  0.71124200  0.46751400  0.74835300  1
  N  388  1  0.07736600  0.27756200  0.53536800  1
  N  391  1  0.85943200  0.25595600  0.53267600  1
  N  394  1  0.71148200  0.28049500  0.53214000  1
  O  315  1  0.21172200  0.98926200  0.45819800  1
  O  316  1  0.32793700  0.98792100  0.47933100  1
  O  325  1  0.21170200  0.46877300  0.01059500  1
  O  326  1  0.32787600  0.49125500  0.01194500  1
  O  335  1  0.21165300  0.54158400  0.53109300  1
  O  336  1  0.32788700  0.52045400  0.50861900  1
  O  345  1  0.63976800  0.73744800  0.28352400  1
  O  346  1  0.65928300  0.75454400  0.27013300  1
  O  355  1  0.64013800  0.54580300  0.26236400  1
  O  356  1  0.65954300  0.51531500  0.24526900  1
  O  365  1  0.64010700  0.71634800  0.45405300  1
  O  366  1  0.65971100  0.72968600  0.48453500  1
  O  375  1  0.64002800  0.26440000  0.71799500  1
  O  376  1  0.65712100  0.24756000  0.73169800  1
  O  385  1  0.63980700  0.45338600  0.73551700  1
  O  386  1  0.65719100  0.48392600  0.75231100  1
  O  395  1  0.64004800  0.28179400  0.54626900  1
  O  396  1  0.65734900  0.26805500  0.51572900  1
