# generated using pymatgen
data_H28C53N8
_symmetry_space_group_name_H-M   'P 1'
_cell_length_a   38.25670000
_cell_length_b   38.25670000
_cell_length_c   45.52160000
_cell_angle_alpha   90.00140000
_cell_angle_beta   89.99860000
_cell_angle_gamma   90.00000000
_symmetry_Int_Tables_number   1
_chemical_formula_structural   H28C53N8
_chemical_formula_sum   'H224 C424 N64'
_cell_volume   66624.27999977
_cell_formula_units_Z   8
loop_
 _symmetry_equiv_pos_site_id
 _symmetry_equiv_pos_as_xyz
  1  'x, y, z'
loop_
 _atom_site_type_symbol
 _atom_site_label
 _atom_site_symmetry_multiplicity
 _atom_site_fract_x
 _atom_site_fract_y
 _atom_site_fract_z
 _atom_site_occupancy
  H  25  1  0.81909500  0.14384700  0.74890000  1
  H  26  1  0.82768800  0.08284900  0.75735000  1
  H  27  1  0.83594500  0.02181400  0.75628100  1
  H  28  1  0.83440600  0.96001300  0.75274200  1
  H  29  1  0.76611400  0.96665300  0.67956300  1
  H  30  1  0.76210600  0.12087600  0.67174100  1
  H  31  1  0.71039600  0.03882700  0.72871100  1
  H  32  1  0.62461600  0.03851700  0.66991100  1
  H  33  1  0.66297900  0.04395800  0.62947300  1
  H  34  1  0.82188600  0.03984600  0.63798300  1
  H  35  1  0.70652300  0.05405200  0.59478800  1
  H  36  1  0.75642900  0.05444800  0.56412800  1
  H  66  1  0.27129000  0.94505600  0.74874600  1
  H  67  1  0.26202100  0.00599900  0.75710900  1
  H  68  1  0.25326900  0.06726700  0.75598600  1
  H  69  1  0.25545000  0.12913300  0.75269800  1
  H  70  1  0.32374000  0.12218300  0.67957000  1
  H  71  1  0.32734300  0.96832100  0.67113900  1
  H  72  1  0.37575300  0.03852600  0.72962100  1
  H  73  1  0.46469100  0.05624200  0.67656500  1
  H  74  1  0.42881900  0.05842900  0.63397400  1
  H  75  1  0.26940600  0.03923200  0.63677700  1
  H  76  1  0.38572400  0.05719400  0.59622300  1
  H  77  1  0.33677900  0.05474600  0.56424900  1
  H  107  1  0.14520900  0.27118000  0.24890000  1
  H  108  1  0.08421000  0.26280300  0.25751100  1
  H  109  1  0.02306300  0.25418700  0.25625200  1
  H  110  1  0.96125100  0.25605900  0.25281000  1
  H  111  1  0.96814300  0.32509000  0.18017800  1
  H  112  1  0.12226900  0.32757800  0.17140200  1
  H  113  1  0.05276800  0.38015900  0.22847600  1
  H  114  1  0.04968000  0.46566100  0.16948500  1
  H  115  1  0.04231300  0.42705500  0.12935900  1
  H  116  1  0.05117900  0.26860700  0.13842700  1
  H  117  1  0.03137700  0.38298400  0.09496200  1
  H  118  1  0.03223500  0.33275100  0.06444000  1
  H  148  1  0.94618000  0.81927100  0.24875500  1
  H  149  1  0.00715700  0.82844800  0.25707800  1
  H  150  1  0.06845600  0.83683400  0.25598200  1
  H  151  1  0.13032500  0.83446100  0.25270400  1
  H  152  1  0.12323100  0.76643600  0.17937900  1
  H  153  1  0.96933700  0.76316800  0.17119800  1
  H  154  1  0.05043100  0.71466300  0.22978800  1
  H  155  1  0.03606400  0.62565200  0.17611900  1
  H  156  1  0.03595600  0.66138000  0.13353900  1
  H  157  1  0.05020100  0.82120600  0.13644500  1
  H  158  1  0.03854400  0.70401500  0.09601800  1
  H  159  1  0.03985000  0.75270900  0.06400500  1
  H  189  1  0.83416800  0.95990000  0.23480500  1
  H  190  1  0.83640200  0.02167800  0.23173000  1
  H  191  1  0.82797500  0.08241800  0.23048400  1
  H  192  1  0.81916300  0.14340600  0.23850500  1
  H  193  1  0.76240900  0.12103100  0.31591000  1
  H  194  1  0.76545200  0.96652500  0.30771100  1
  H  195  1  0.71149400  0.03976200  0.25744100  1
  H  196  1  0.62396000  0.04006700  0.31445100  1
  H  197  1  0.66080700  0.04427400  0.35542000  1
  H  198  1  0.82027800  0.03999500  0.35253800  1
  H  199  1  0.70161200  0.04315900  0.39097100  1
  H  200  1  0.74873100  0.03875800  0.42365800  1
  H  230  1  0.25501500  0.12889100  0.23511700  1
  H  231  1  0.25251400  0.06708700  0.23203100  1
  H  232  1  0.26145100  0.00613800  0.23052600  1
  H  233  1  0.27117900  0.94518400  0.23825200  1
  H  234  1  0.32747800  0.96775200  0.31586300  1
  H  235  1  0.32373600  0.12193200  0.30796000  1
  H  236  1  0.37421700  0.03834800  0.25638400  1
  H  237  1  0.46465700  0.05865700  0.30688700  1
  H  238  1  0.43045000  0.05968800  0.35040500  1
  H  239  1  0.27132500  0.03797400  0.35355500  1
  H  240  1  0.39111800  0.04836800  0.38876300  1
  H  241  1  0.34504100  0.04148700  0.42291800  1
  H  271  1  0.13036100  0.83422500  0.73465400  1
  H  272  1  0.06855000  0.83634300  0.73153400  1
  H  273  1  0.00772100  0.82785000  0.73037000  1
  H  274  1  0.94676400  0.81896400  0.73855500  1
  H  275  1  0.96947900  0.76227400  0.81592600  1
  H  276  1  0.12379000  0.76553200  0.80757600  1
  H  277  1  0.05054900  0.71132200  0.75728000  1
  H  278  1  0.05019500  0.62386700  0.81438000  1
  H  279  1  0.04605600  0.66078200  0.85532200  1
  H  280  1  0.05036400  0.82026900  0.85214700  1
  H  281  1  0.04723900  0.70168800  0.89084600  1
  H  282  1  0.05173900  0.74893500  0.92342700  1
  H  312  1  0.96133200  0.25485200  0.73522700  1
  H  313  1  0.02310600  0.25221700  0.73226300  1
  H  314  1  0.08394800  0.26126900  0.73061800  1
  H  315  1  0.14491800  0.27109800  0.73814200  1
  H  316  1  0.12260600  0.32738500  0.81580100  1
  H  317  1  0.96824400  0.32377000  0.80793500  1
  H  318  1  0.05186400  0.37395100  0.75646300  1
  H  319  1  0.03167300  0.46447200  0.80688800  1
  H  320  1  0.03071700  0.43035100  0.85043200  1
  H  321  1  0.05218800  0.27122900  0.85397600  1
  H  322  1  0.04196900  0.39117300  0.88880500  1
  H  323  1  0.04887200  0.34528400  0.92310000  1
  H  339  1  0.80151900  0.83706700  0.71747900  1
  H  340  1  0.82997400  0.79643900  0.74927700  1
  H  345  1  0.97988600  0.89514100  0.78751200  1
  H  346  1  0.00718100  0.95038400  0.77478800  1
  H  347  1  0.97860500  0.99022800  0.74091600  1
  H  348  1  0.92270800  0.97484100  0.71924500  1
  H  350  1  0.83793100  0.91284900  0.68712900  1
  H  352  1  0.86935900  0.79336100  0.79325300  1
  H  363  1  0.28965400  0.25210700  0.71683800  1
  H  364  1  0.26164700  0.29303900  0.74862500  1
  H  369  1  0.11122500  0.19539700  0.78764500  1
  H  370  1  0.08338000  0.14042600  0.77494000  1
  H  371  1  0.11144900  0.10038200  0.74093200  1
  H  372  1  0.16737700  0.11531500  0.71909200  1
  H  374  1  0.25283500  0.17663700  0.68672000  1
  H  376  1  0.22258100  0.29678600  0.79259400  1
  H  387  1  0.83818700  0.28931200  0.21782400  1
  H  388  1  0.79711800  0.26073500  0.24914600  1
  H  393  1  0.89487400  0.11017200  0.28721300  1
  H  394  1  0.95010400  0.08274300  0.27464800  1
  H  395  1  0.99032000  0.11139300  0.24113200  1
  H  396  1  0.97534800  0.16752900  0.21969200  1
  H  398  1  0.91384400  0.25242900  0.18785200  1
  H  400  1  0.79331500  0.22108800  0.29281700  1
  H  411  1  0.25268900  0.80087700  0.21684900  1
  H  412  1  0.29337100  0.82884200  0.24887800  1
  H  417  1  0.19524100  0.97898600  0.28782200  1
  H  418  1  0.14026300  0.00675100  0.27500400  1
  H  419  1  0.10038800  0.97864300  0.24087900  1
  H  420  1  0.11551300  0.92278000  0.21901500  1
  H  422  1  0.17754200  0.83802100  0.18680200  1
  H  424  1  0.29662400  0.86776100  0.29304600  1
  H  435  1  0.28956700  0.25197400  0.26964800  1
  H  436  1  0.26164600  0.29285700  0.23772700  1
  H  441  1  0.11107500  0.19545600  0.19886200  1
  H  442  1  0.08322600  0.14045900  0.21149500  1
  H  443  1  0.11130700  0.10034200  0.24543300  1
  H  444  1  0.16724900  0.11521800  0.26727100  1
  H  446  1  0.25209100  0.17683000  0.29999000  1
  H  448  1  0.22231900  0.29631400  0.19359400  1
  H  459  1  0.80124000  0.83726800  0.26926100  1
  H  460  1  0.82951500  0.79656900  0.23739500  1
  H  465  1  0.97955200  0.89488700  0.19879600  1
  H  466  1  0.00710900  0.94999800  0.21153300  1
  H  467  1  0.97876400  0.98992300  0.24547700  1
  H  468  1  0.92285000  0.97474200  0.26722100  1
  H  470  1  0.83835600  0.91298800  0.29935700  1
  H  472  1  0.86908600  0.79311400  0.19353500  1
  H  483  1  0.25284800  0.80096000  0.76955100  1
  H  484  1  0.29350100  0.82894800  0.73748500  1
  H  489  1  0.19541500  0.97910800  0.69863800  1
  H  490  1  0.14042000  0.00686100  0.71142500  1
  H  491  1  0.10052000  0.97874100  0.74552300  1
  H  492  1  0.11562800  0.92287400  0.76738300  1
  H  494  1  0.17716100  0.83808800  0.79962600  1
  H  496  1  0.29670200  0.86813000  0.69333200  1
  H  507  1  0.83796200  0.28911900  0.76917100  1
  H  508  1  0.79697100  0.26079100  0.73759100  1
  H  513  1  0.89467200  0.11030100  0.69912100  1
  H  514  1  0.94989600  0.08281300  0.71161000  1
  H  515  1  0.99011200  0.11131900  0.74521300  1
  H  516  1  0.97513300  0.16735500  0.76683400  1
  H  518  1  0.91287200  0.25154700  0.79951200  1
  H  520  1  0.79325800  0.22100600  0.69376700  1
  H  531  1  0.50761600  0.03051600  0.69905700  1
  H  532  1  0.56747300  0.04160700  0.69167800  1
  H  537  1  0.62355300  0.05326200  0.83887000  1
  H  538  1  0.59929900  0.04991500  0.88804300  1
  H  539  1  0.53664600  0.04431100  0.89508100  1
  H  540  1  0.49786200  0.04165400  0.85296400  1
  H  542  1  0.46136900  0.03097800  0.76884400  1
  H  544  1  0.61665800  0.08202200  0.72045600  1
  H  555  1  0.05955200  0.58248400  0.19920200  1
  H  556  1  0.04880100  0.52260600  0.19187400  1
  H  561  1  0.03737200  0.46674600  0.33910700  1
  H  562  1  0.04061400  0.49109300  0.38825300  1
  H  563  1  0.04599600  0.55377500  0.39522400  1
  H  564  1  0.04849900  0.59250700  0.35306300  1
  H  566  1  0.05753200  0.62908700  0.26906400  1
  H  568  1  0.00811700  0.47328500  0.22143800  1
  H  579  1  0.50706900  0.02987700  0.28638700  1
  H  580  1  0.56692000  0.04118200  0.29388000  1
  H  585  1  0.62335600  0.05306100  0.14689500  1
  H  586  1  0.59920200  0.04975000  0.09768600  1
  H  587  1  0.53654900  0.04432600  0.09055100  1
  H  588  1  0.49765800  0.04180000  0.13260500  1
  H  590  1  0.46136600  0.03035900  0.21632800  1
  H  592  1  0.61578500  0.08219700  0.26574000  1
  H  603  1  0.06033800  0.50689800  0.78635900  1
  H  604  1  0.04906400  0.56675500  0.79385600  1
  H  609  1  0.03726300  0.62327100  0.64692600  1
  H  610  1  0.04055600  0.59916700  0.59769700  1
  H  611  1  0.04594300  0.53651900  0.59051500  1
  H  612  1  0.04845100  0.49758300  0.63253900  1
  H  614  1  0.05970200  0.46115800  0.71630000  1
  H  616  1  0.00808600  0.61562900  0.76574000  1
  H  627  1  0.78068100  0.03213700  0.52579200  1
  H  628  1  0.77123400  0.04275600  0.47539900  1
  H  633  1  0.94547300  0.05232700  0.42617600  1
  H  634  1  0.00432100  0.04923500  0.44594900  1
  H  635  1  0.01341300  0.04412900  0.49856100  1
  H  636  1  0.96391400  0.04171200  0.53171000  1
  H  638  1  0.86540900  0.03206800  0.56329100  1
  H  640  1  0.80322200  0.08150100  0.43377700  1
  H  651  1  0.31098400  0.03304700  0.52578600  1
  H  652  1  0.32036400  0.04307800  0.47528700  1
  H  657  1  0.14596200  0.05244200  0.42606200  1
  H  658  1  0.08710900  0.04940000  0.44582100  1
  H  659  1  0.07800300  0.04422100  0.49842900  1
  H  660  1  0.12749900  0.04169600  0.53157200  1
  H  662  1  0.22665800  0.03185600  0.56345100  1
  H  664  1  0.28692500  0.08199000  0.43330700  1
  H  675  1  0.05910200  0.31019200  0.02693300  1
  H  676  1  0.04864800  0.32041400  0.97651800  1
  H  681  1  0.03786400  0.14661200  0.92587900  1
  H  682  1  0.04097200  0.08756500  0.94521500  1
  H  683  1  0.04597100  0.07791000  0.99776000  1
  H  684  1  0.04822600  0.12707100  0.03127800  1
  H  686  1  0.05978100  0.22523500  0.06333100  1
  H  688  1  0.00882900  0.28821100  0.93439500  1
  H  699  1  0.05574100  0.77986600  0.02482100  1
  H  700  1  0.04574400  0.77119500  0.97436800  1
  H  705  1  0.03805200  0.94597000  0.92634000  1
  H  706  1  0.04103700  0.00463800  0.94650100  1
  H  707  1  0.04622700  0.01323900  0.99917000  1
  H  708  1  0.04885300  0.96343600  0.03197900  1
  H  710  1  0.05669900  0.86404800  0.06339900  1
  H  712  1  0.00839700  0.80410800  0.93257100  1
  C  1  1  0.76794400  0.04453900  0.64789900  1
  C  2  1  0.73511600  0.04709500  0.63446400  1
  C  3  1  0.70923500  0.04552700  0.65539200  1
  C  4  1  0.72395300  0.04344400  0.68351500  1
  C  5  1  0.70057300  0.04059300  0.70789700  1
  C  6  1  0.66358600  0.03988200  0.70335000  1
  C  7  1  0.65079500  0.04051400  0.67418800  1
  C  8  1  0.67316500  0.04378600  0.65021700  1
  C  9  1  0.73067000  0.05092800  0.60401200  1
  C  10  1  0.76018200  0.05075300  0.58597000  1
  C  11  1  0.79379700  0.04524000  0.59775200  1
  C  12  1  0.79761800  0.04303000  0.62899200  1
  C  13  1  0.77861300  0.07642700  0.69571600  1
  C  14  1  0.79931300  0.06642200  0.71958200  1
  C  15  1  0.80154600  0.03046700  0.72032000  1
  C  16  1  0.78141500  0.01560900  0.69773700  1
  C  17  1  0.82121300  0.01050000  0.74015000  1
  C  18  1  0.82016100  0.97418400  0.73781900  1
  C  19  1  0.80045400  0.95745200  0.71564100  1
  C  20  1  0.78077000  0.97836200  0.69552700  1
  C  21  1  0.77575300  0.11286500  0.68984000  1
  C  22  1  0.79230200  0.13814200  0.70832300  1
  C  23  1  0.80920700  0.12647700  0.73406000  1
  C  24  1  0.81398600  0.09071400  0.73925800  1
  C  37  1  0.76336200  0.04449200  0.68093600  1
  C  42  1  0.32278200  0.04632100  0.64776500  1
  C  43  1  0.35601300  0.05074400  0.63529400  1
  C  44  1  0.38115100  0.05076500  0.65705700  1
  C  45  1  0.36508000  0.04601900  0.68437000  1
  C  46  1  0.38689200  0.04310800  0.70957300  1
  C  47  1  0.42396300  0.04574000  0.70705600  1
  C  48  1  0.43858100  0.05253000  0.67915900  1
  C  49  1  0.41752900  0.05434900  0.65402600  1
  C  50  1  0.36132300  0.05371500  0.60487300  1
  C  51  1  0.33241100  0.05180100  0.58612200  1
  C  52  1  0.29849800  0.04581300  0.59721800  1
  C  53  1  0.29377100  0.04353900  0.62830600  1
  C  54  1  0.31030400  0.01255300  0.69505500  1
  C  55  1  0.28967200  0.02252100  0.71901000  1
  C  56  1  0.28752900  0.05847500  0.71997300  1
  C  57  1  0.30786000  0.07328800  0.69754400  1
  C  58  1  0.26810700  0.07854600  0.73990800  1
  C  59  1  0.26955000  0.11488200  0.73773100  1
  C  60  1  0.28941300  0.13153400  0.71560500  1
  C  61  1  0.30890100  0.11053600  0.69545200  1
  C  62  1  0.31357500  0.97622300  0.68920900  1
  C  63  1  0.29741700  0.95092800  0.70785700  1
  C  64  1  0.28071100  0.96247700  0.73374200  1
  C  65  1  0.27548800  0.99818900  0.73887100  1
  C  78  1  0.32597300  0.04444300  0.68076300  1
  C  83  1  0.04389400  0.32226900  0.14817800  1
  C  84  1  0.03985800  0.35490600  0.13468100  1
  C  85  1  0.04186200  0.38094900  0.15547800  1
  C  86  1  0.04560000  0.36641600  0.18355500  1
  C  87  1  0.04963700  0.38989000  0.20774600  1
  C  88  1  0.05000900  0.42683800  0.20304900  1
  C  89  1  0.04792600  0.43949600  0.17389400  1
  C  90  1  0.04345700  0.41699500  0.15012900  1
  C  91  1  0.03531300  0.35898800  0.10424500  1
  C  92  1  0.03632000  0.32936700  0.08630000  1
  C  93  1  0.04344800  0.29610000  0.09818900  1
  C  94  1  0.04636200  0.29258500  0.12939200  1
  C  95  1  0.07790500  0.31124500  0.19551400  1
  C  96  1  0.06782700  0.29081500  0.21955100  1
  C  97  1  0.03185200  0.28900400  0.22061200  1
  C  98  1  0.01708100  0.30950900  0.19826900  1
  C  99  1  0.01178700  0.26925900  0.24032600  1
  C  100  1  0.97545800  0.27045600  0.23801500  1
  C  101  1  0.95874200  0.29044100  0.21599900  1
  C  102  1  0.97979200  0.31031700  0.19609600  1
  C  103  1  0.11427500  0.31395300  0.18951700  1
  C  104  1  0.13949100  0.29751700  0.20809700  1
  C  105  1  0.12784300  0.28087200  0.23397300  1
  C  106  1  0.09208900  0.27620600  0.23926500  1
  C  119  1  0.04608100  0.32701200  0.18111400  1
  C  124  1  0.04588000  0.76754100  0.14754300  1
  C  125  1  0.04302900  0.73414400  0.13506600  1
  C  126  1  0.04257100  0.70908300  0.15683300  1
  C  127  1  0.04556600  0.72527100  0.18426200  1
  C  128  1  0.04728200  0.70347700  0.20956700  1
  C  129  1  0.04513400  0.66637000  0.20695300  1
  C  130  1  0.03971300  0.65172600  0.17886300  1
  C  131  1  0.03915400  0.67271500  0.15368600  1
  C  132  1  0.04101400  0.72855200  0.10464900  1
  C  133  1  0.04213400  0.75741500  0.08585600  1
  C  134  1  0.04623200  0.79163300  0.09688200  1
  C  135  1  0.04766400  0.79658500  0.12800300  1
  C  136  1  0.01367500  0.78024300  0.19501100  1
  C  137  1  0.02365700  0.80075500  0.21899300  1
  C  138  1  0.05962500  0.80274800  0.21985000  1
  C  139  1  0.07440700  0.78241000  0.19736100  1
  C  140  1  0.07970200  0.82203800  0.23985800  1
  C  141  1  0.11602500  0.82048500  0.23769200  1
  C  142  1  0.13259500  0.80065800  0.21549800  1
  C  143  1  0.11161400  0.78126100  0.19528300  1
  C  144  1  0.97728800  0.77699500  0.18922000  1
  C  145  1  0.95197000  0.79309600  0.20789100  1
  C  146  1  0.96358200  0.80985000  0.23372900  1
  C  147  1  0.99932100  0.81500000  0.23884100  1
  C  160  1  0.04550800  0.76443100  0.18061800  1
  C  165  1  0.76672800  0.04342400  0.34011300  1
  C  166  1  0.73309300  0.04459500  0.35231400  1
  C  167  1  0.70813600  0.04483800  0.33067400  1
  C  168  1  0.72387200  0.04367400  0.30295300  1
  C  169  1  0.70106900  0.04143600  0.27805100  1
  C  170  1  0.66385200  0.04107000  0.28173500  1
  C  171  1  0.65025400  0.04174800  0.31061500  1
  C  172  1  0.67187300  0.04413000  0.33501500  1
  C  173  1  0.72634500  0.04324200  0.38255000  1
  C  174  1  0.75440000  0.04071500  0.40172400  1
  C  175  1  0.78934700  0.04080600  0.39155900  1
  C  176  1  0.79531300  0.04130500  0.36040300  1
  C  177  1  0.78144200  0.01551900  0.29003600  1
  C  178  1  0.80192600  0.03033400  0.26766700  1
  C  179  1  0.79988600  0.06626500  0.26850800  1
  C  180  1  0.77918700  0.07634800  0.29237600  1
  C  181  1  0.81443100  0.09039300  0.24862500  1
  C  182  1  0.80950000  0.12616500  0.25355200  1
  C  183  1  0.79269500  0.13802000  0.27926300  1
  C  184  1  0.77624000  0.11285900  0.29796400  1
  C  185  1  0.78038700  0.97825300  0.29194100  1
  C  186  1  0.80004400  0.95734200  0.27180500  1
  C  187  1  0.82002500  0.97406900  0.24979800  1
  C  188  1  0.82147900  0.01037900  0.24774200  1
  C  201  1  0.76329700  0.04442400  0.30680600  1
  C  206  1  0.32409800  0.04506300  0.34001000  1
  C  207  1  0.35812800  0.04874100  0.35115700  1
  C  208  1  0.38212500  0.05040000  0.32864400  1
  C  209  1  0.36492300  0.04593200  0.30184400  1
  C  210  1  0.38597400  0.04328100  0.27611700  1
  C  211  1  0.42314400  0.04643600  0.27766000  1
  C  212  1  0.43859400  0.05409800  0.30504000  1
  C  213  1  0.41847100  0.05525200  0.33069600  1
  C  214  1  0.36599000  0.04739600  0.38119900  1
  C  215  1  0.33868200  0.04316400  0.40110200  1
  C  216  1  0.30342800  0.04133400  0.39175900  1
  C  217  1  0.29636600  0.04121800  0.36084600  1
  C  218  1  0.30721900  0.07299900  0.29046700  1
  C  219  1  0.28675800  0.05826900  0.26806900  1
  C  220  1  0.28912100  0.02233500  0.26873200  1
  C  221  1  0.31003100  0.01223100  0.29247200  1
  C  222  1  0.27501600  0.99818700  0.24866700  1
  C  223  1  0.28053900  0.96245800  0.25340300  1
  C  224  1  0.29734600  0.95068200  0.27915800  1
  C  225  1  0.31352300  0.97582600  0.29795100  1
  C  226  1  0.30853100  0.11028100  0.29233000  1
  C  227  1  0.28902400  0.13131800  0.27218300  1
  C  228  1  0.26897000  0.11465900  0.25018700  1
  C  229  1  0.26733100  0.07833800  0.24813700  1
  C  242  1  0.32591600  0.04405600  0.30676400  1
  C  247  1  0.04701500  0.76666300  0.83987100  1
  C  248  1  0.04585500  0.73305900  0.85212900  1
  C  249  1  0.04556800  0.70807000  0.83052300  1
  C  250  1  0.04672600  0.72376000  0.80278400  1
  C  251  1  0.04889400  0.70092700  0.77790100  1
  C  252  1  0.04923100  0.66371800  0.78162700  1
  C  253  1  0.04855300  0.65015800  0.81052200  1
  C  254  1  0.04621800  0.67181500  0.83490300  1
  C  255  1  0.04718400  0.72639700  0.88237700  1
  C  256  1  0.04979000  0.75451600  0.90148000  1
  C  257  1  0.04981600  0.78941100  0.89120600  1
  C  258  1  0.04911900  0.79532400  0.86006400  1
  C  259  1  0.07479800  0.78137400  0.78981900  1
  C  260  1  0.05994600  0.80183600  0.76745300  1
  C  261  1  0.02402300  0.79975600  0.76833900  1
  C  262  1  0.01402700  0.77904600  0.79222200  1
  C  263  1  0.99981300  0.81429700  0.74853000  1
  C  264  1  0.96406700  0.80932500  0.75355900  1
  C  265  1  0.95233200  0.79251300  0.77931100  1
  C  266  1  0.97756200  0.77608600  0.79794200  1
  C  267  1  0.11204600  0.78041300  0.79177700  1
  C  268  1  0.13291400  0.80009900  0.77164700  1
  C  269  1  0.11619000  0.82004500  0.74961800  1
  C  270  1  0.07987500  0.82144300  0.74754800  1
  C  283  1  0.04596300  0.76318100  0.80659500  1
  C  288  1  0.04529800  0.32395700  0.84022500  1
  C  289  1  0.04164100  0.35803000  0.85128800  1
  C  290  1  0.03995300  0.38197500  0.82872900  1
  C  291  1  0.04435300  0.36471500  0.80194500  1
  C  292  1  0.04697800  0.38574000  0.77619200  1
  C  293  1  0.04384700  0.42292600  0.77768400  1
  C  294  1  0.03622600  0.43840900  0.80505900  1
  C  295  1  0.03512500  0.41832900  0.83073600  1
  C  296  1  0.04296000  0.36601600  0.88131000  1
  C  297  1  0.04717100  0.33880300  0.90130600  1
  C  298  1  0.04900800  0.30349400  0.89210800  1
  C  299  1  0.04900900  0.29631000  0.86118900  1
  C  300  1  0.01720500  0.30700100  0.79066200  1
  C  301  1  0.03192500  0.28647900  0.76829200  1
  C  302  1  0.06786400  0.28881000  0.76893000  1
  C  303  1  0.07802600  0.30979600  0.79261000  1
  C  304  1  0.09195100  0.27483100  0.74874400  1
  C  305  1  0.12769400  0.28038500  0.75337000  1
  C  306  1  0.13956800  0.29721500  0.77907900  1
  C  307  1  0.11446600  0.31336700  0.79794600  1
  C  308  1  0.97990100  0.30843900  0.79239700  1
  C  309  1  0.95883700  0.28890700  0.77226200  1
  C  310  1  0.97553900  0.26876900  0.75034100  1
  C  311  1  0.01185800  0.26704100  0.74836600  1
  C  324  1  0.04620600  0.32569900  0.80693900  1
  C  329  1  0.84003300  0.87665000  0.72019900  1
  C  330  1  0.87249300  0.88468600  0.73379700  1
  C  331  1  0.88911900  0.86100900  0.75363800  1
  C  332  1  0.87458100  0.82748100  0.75918000  1
  C  333  1  0.84218000  0.81979200  0.74526400  1
  C  334  1  0.82513100  0.84375000  0.72644000  1
  C  336  1  0.93518100  0.90280800  0.76086300  1
  C  337  1  0.91888500  0.92592000  0.74082200  1
  C  341  1  0.96758000  0.91190800  0.77339300  1
  C  342  1  0.98350600  0.94390500  0.76590700  1
  C  343  1  0.96694400  0.96703100  0.74624800  1
  C  344  1  0.93449400  0.95815300  0.73374600  1
  C  349  1  0.82348100  0.90193500  0.70284900  1
  C  351  1  0.88745600  0.80363200  0.78020600  1
  C  353  1  0.25086800  0.21281200  0.71981700  1
  C  354  1  0.21841900  0.20502500  0.73353100  1
  C  355  1  0.20211000  0.22882600  0.75344000  1
  C  356  1  0.21694600  0.26226100  0.75884400  1
  C  357  1  0.24927300  0.26974400  0.74473900  1
  C  358  1  0.26604500  0.24561900  0.72590600  1
  C  360  1  0.15574900  0.18738000  0.76084800  1
  C  361  1  0.17173100  0.16416500  0.74071400  1
  C  365  1  0.12332300  0.17854500  0.77347200  1
  C  366  1  0.10707500  0.14670700  0.76599200  1
  C  367  1  0.12334200  0.12346400  0.74625700  1
  C  368  1  0.15581000  0.13207900  0.73365800  1
  C  373  1  0.26722900  0.18733100  0.70258100  1
  C  375  1  0.20436000  0.28634600  0.77976800  1
  C  377  1  0.87763500  0.25067600  0.22060300  1
  C  378  1  0.88534600  0.21805200  0.23406100  1
  C  379  1  0.86139100  0.20132300  0.25361800  1
  C  380  1  0.82786200  0.21592000  0.25903800  1
  C  381  1  0.82046300  0.24846800  0.24523300  1
  C  382  1  0.84469700  0.26560400  0.22669300  1
  C  384  1  0.90293700  0.15504100  0.26084300  1
  C  385  1  0.92628600  0.17139900  0.24103500  1
  C  389  1  0.91180300  0.12251400  0.27325300  1
  C  390  1  0.94379300  0.10651100  0.26585900  1
  C  391  1  0.96713400  0.12311400  0.24640400  1
  C  392  1  0.95849700  0.15569900  0.23403400  1
  C  397  1  0.90325600  0.26725800  0.20351000  1
  C  399  1  0.80377700  0.20298100  0.27988700  1
  C  401  1  0.21330500  0.83958200  0.21977100  1
  C  402  1  0.20531700  0.87193200  0.23357500  1
  C  403  1  0.22897500  0.88822000  0.25360700  1
  C  404  1  0.26241200  0.87342400  0.25907900  1
  C  405  1  0.27006800  0.84117700  0.24492600  1
  C  406  1  0.24610200  0.82444100  0.22595000  1
  C  408  1  0.18740000  0.93448200  0.26096600  1
  C  409  1  0.16429300  0.91848600  0.24075200  1
  C  413  1  0.17845700  0.96687400  0.27359800  1
  C  414  1  0.14661700  0.98307700  0.26605400  1
  C  415  1  0.12347400  0.96678700  0.24625000  1
  C  416  1  0.13219700  0.93435300  0.23364100  1
  C  421  1  0.18797900  0.82306700  0.20241400  1
  C  423  1  0.28634700  0.88596900  0.28011100  1
  C  425  1  0.25079000  0.21267300  0.26666300  1
  C  426  1  0.21835200  0.20490200  0.25291100  1
  C  427  1  0.20203900  0.22871900  0.23302100  1
  C  428  1  0.21689400  0.26212800  0.22760600  1
  C  429  1  0.24927200  0.26957000  0.24163900  1
  C  430  1  0.26600100  0.24545900  0.26052300  1
  C  432  1  0.15560800  0.18736900  0.22562900  1
  C  433  1  0.17160200  0.16410600  0.24571700  1
  C  437  1  0.12317500  0.17857300  0.21300700  1
  C  438  1  0.10692600  0.14672000  0.22044300  1
  C  439  1  0.12320000  0.12343300  0.24013900  1
  C  440  1  0.15567500  0.13201200  0.25273700  1
  C  445  1  0.26686000  0.18735000  0.28428700  1
  C  447  1  0.20420900  0.28613600  0.20668000  1
  C  449  1  0.83986900  0.87673700  0.26646500  1
  C  450  1  0.87226300  0.88476400  0.25274200  1
  C  451  1  0.88875100  0.86107200  0.23285200  1
  C  452  1  0.87412400  0.82757200  0.22740400  1
  C  453  1  0.84174700  0.81992000  0.24135800  1
  C  454  1  0.82482200  0.84390600  0.26022400  1
  C  456  1  0.93492600  0.90272100  0.22551100  1
  C  457  1  0.91877100  0.92586700  0.24560200  1
  C  461  1  0.96733800  0.91169600  0.21293900  1
  C  462  1  0.98341800  0.94361300  0.22043400  1
  C  463  1  0.96699000  0.96678600  0.24013500  1
  C  464  1  0.93452700  0.95803000  0.25267600  1
  C  469  1  0.82349100  0.90204800  0.28388300  1
  C  471  1  0.88707400  0.80361400  0.20655700  1
  C  473  1  0.21344900  0.83965600  0.76665800  1
  C  474  1  0.20544000  0.87200600  0.75285600  1
  C  475  1  0.22909400  0.88831600  0.73283700  1
  C  476  1  0.26253100  0.87354000  0.72736200  1
  C  477  1  0.27018700  0.84125700  0.74144800  1
  C  478  1  0.24623500  0.82450700  0.76043500  1
  C  480  1  0.18755100  0.93459700  0.72548200  1
  C  481  1  0.16443000  0.91858500  0.74567500  1
  C  485  1  0.17862000  0.96699100  0.71285100  1
  C  486  1  0.14676900  0.98318600  0.72037500  1
  C  487  1  0.12361200  0.96688800  0.74016300  1
  C  488  1  0.13232600  0.93445200  0.75277200  1
  C  493  1  0.18821300  0.82334400  0.78416100  1
  C  495  1  0.28644900  0.88622400  0.70639400  1
  C  497  1  0.87738800  0.25046900  0.76625800  1
  C  498  1  0.88514900  0.21795400  0.75262700  1
  C  499  1  0.86123100  0.20135300  0.73297700  1
  C  500  1  0.82772100  0.21600600  0.72762600  1
  C  501  1  0.82032200  0.24852100  0.74146800  1
  C  502  1  0.84450800  0.26550700  0.76014500  1
  C  504  1  0.90273200  0.15506000  0.72562700  1
  C  505  1  0.92607400  0.17131400  0.74549900  1
  C  509  1  0.91159800  0.12258200  0.71312100  1
  C  510  1  0.94358500  0.10654600  0.72047100  1
  C  511  1  0.96692700  0.12306600  0.73997600  1
  C  512  1  0.95828700  0.15559100  0.75244900  1
  C  517  1  0.90278800  0.26667400  0.78381600  1
  C  519  1  0.80361100  0.20301500  0.70687100  1
  C  521  1  0.50635800  0.03971300  0.74491500  1
  C  522  1  0.52960500  0.04388900  0.76916700  1
  C  523  1  0.56649800  0.04793500  0.76513100  1
  C  524  1  0.58111100  0.04814600  0.73661700  1
  C  525  1  0.55818500  0.04206200  0.71275200  1
  C  526  1  0.52211000  0.03691800  0.71694300  1
  C  528  1  0.57474400  0.04954400  0.81714700  1
  C  529  1  0.53821400  0.04601800  0.82131800  1
  C  533  1  0.59711800  0.05106600  0.84167600  1
  C  534  1  0.58306200  0.04903100  0.87022100  1
  C  535  1  0.54671000  0.04580000  0.87431100  1
  C  536  1  0.52420800  0.04436700  0.84987800  1
  C  541  1  0.46986700  0.03662700  0.74882300  1
  C  543  1  0.61517600  0.05870100  0.73017900  1
  C  545  1  0.05029500  0.58387600  0.24503300  1
  C  546  1  0.04630800  0.56063300  0.26930800  1
  C  547  1  0.04248400  0.52370900  0.26531800  1
  C  548  1  0.04238800  0.50902800  0.23683100  1
  C  549  1  0.04830400  0.53193300  0.21293400  1
  C  550  1  0.05321000  0.56804200  0.21709900  1
  C  552  1  0.04090900  0.51553700  0.31733500  1
  C  553  1  0.04428100  0.55208700  0.32146700  1
  C  557  1  0.03946800  0.49319400  0.34188400  1
  C  558  1  0.04144300  0.50730400  0.37041300  1
  C  559  1  0.04454800  0.54367500  0.37446400  1
  C  560  1  0.04589300  0.56614600  0.35000800  1
  C  565  1  0.05284900  0.62043700  0.24891500  1
  C  567  1  0.03177300  0.47496400  0.23050200  1
  C  569  1  0.50580500  0.03970100  0.24062400  1
  C  570  1  0.52919300  0.04390700  0.21644500  1
  C  571  1  0.56609800  0.04786400  0.22051500  1
  C  572  1  0.58073000  0.04797200  0.24900500  1
  C  573  1  0.55769300  0.04172300  0.27279800  1
  C  574  1  0.52157400  0.03657900  0.26856900  1
  C  576  1  0.57448000  0.04950200  0.16853100  1
  C  577  1  0.53795600  0.04607500  0.16430200  1
  C  581  1  0.59692100  0.05094600  0.14404600  1
  C  582  1  0.58292200  0.04893000  0.11548200  1
  C  583  1  0.54656800  0.04580100  0.11133400  1
  C  584  1  0.52400400  0.04445000  0.13572900  1
  C  589  1  0.46929400  0.03651200  0.23640700  1
  C  591  1  0.61462700  0.05924400  0.25541500  1
  C  593  1  0.05051100  0.50562700  0.74059600  1
  C  594  1  0.04634500  0.52902800  0.71641600  1
  C  595  1  0.04240800  0.56593700  0.72049500  1
  C  596  1  0.04228700  0.58056500  0.74898300  1
  C  597  1  0.04852300  0.55752400  0.77277400  1
  C  598  1  0.05364600  0.52140200  0.76854100  1
  C  600  1  0.04079700  0.57436800  0.66852200  1
  C  601  1  0.04420300  0.53784400  0.66427400  1
  C  605  1  0.03936500  0.59683700  0.64405500  1
  C  606  1  0.04137100  0.58286700  0.61547900  1
  C  607  1  0.04447600  0.54651800  0.61130800  1
  C  608  1  0.04581900  0.52392600  0.63568500  1
  C  613  1  0.05364200  0.46909400  0.73639800  1
  C  615  1  0.03102100  0.61446300  0.75538400  1
  C  617  1  0.83540500  0.04030300  0.52628700  1
  C  618  1  0.86385300  0.04393600  0.50622100  1
  C  619  1  0.85860000  0.04772800  0.47523400  1
  C  620  1  0.82456900  0.04833100  0.46326200  1
  C  621  1  0.79643700  0.04286900  0.48297700  1
  C  622  1  0.80186700  0.03799200  0.51335400  1
  C  624  1  0.92031300  0.04893500  0.46751700  1
  C  625  1  0.92576500  0.04569500  0.49817000  1
  C  629  1  0.94917200  0.05028600  0.44836300  1
  C  630  1  0.98331600  0.04842300  0.45981900  1
  C  631  1  0.98862800  0.04548500  0.49033700  1
  C  632  1  0.95989300  0.04416900  0.50958900  1
  C  637  1  0.84118000  0.03735000  0.55698400  1
  C  639  1  0.81684700  0.05930400  0.43467300  1
  C  641  1  0.25611000  0.04028700  0.52605200  1
  C  642  1  0.22760000  0.04382300  0.50606100  1
  C  643  1  0.23288600  0.04761500  0.47508000  1
  C  644  1  0.26697500  0.04814600  0.46315600  1
  C  645  1  0.29514700  0.04300500  0.48285400  1
  C  646  1  0.28971700  0.03831400  0.51322200  1
  C  648  1  0.17113300  0.04894600  0.46739400  1
  C  649  1  0.16568200  0.04566600  0.49805200  1
  C  653  1  0.14226300  0.05037800  0.44824500  1
  C  654  1  0.10810900  0.04853800  0.45969200  1
  C  655  1  0.10279100  0.04555900  0.49020700  1
  C  656  1  0.13153300  0.04417900  0.50945500  1
  C  661  1  0.25069000  0.03731900  0.55671800  1
  C  663  1  0.27483800  0.05894600  0.43461600  1
  C  665  1  0.05013400  0.25556900  0.02682900  1
  C  666  1  0.04625600  0.22739500  0.00652900  1
  C  667  1  0.04258100  0.23306200  0.97558700  1
  C  668  1  0.04244800  0.26729600  0.96394900  1
  C  669  1  0.04813800  0.29512700  0.98391200  1
  C  670  1  0.05288900  0.28926200  0.01425100  1
  C  672  1  0.04109900  0.17137500  0.96739700  1
  C  673  1  0.04425600  0.16557000  0.99801200  1
  C  677  1  0.03980300  0.14269000  0.94804400  1
  C  678  1  0.04169800  0.10842100  0.95924500  1
  C  679  1  0.04457000  0.10278100  0.98972500  1
  C  680  1  0.04578000  0.13132100  0.00918700  1
  C  685  1  0.05340100  0.24934000  0.05740600  1
  C  687  1  0.03162700  0.27564900  0.93548100  1
  C  689  1  0.04969000  0.83484600  0.02560400  1
  C  690  1  0.04649100  0.86358700  0.00579800  1
  C  691  1  0.04263300  0.85867000  0.97477400  1
  C  692  1  0.04157500  0.82477300  0.96255500  1
  C  693  1  0.04631900  0.79633900  0.98206600  1
  C  694  1  0.05107500  0.80137700  0.01246700  1
  C  696  1  0.04163800  0.92044100  0.96751000  1
  C  697  1  0.04494400  0.92557600  0.99820300  1
  C  701  1  0.04018500  0.94946800  0.94854400  1
  C  702  1  0.04197000  0.98350300  0.96022600  1
  C  703  1  0.04495400  0.98852700  0.99077600  1
  C  704  1  0.04641200  0.95961000  0.00983300  1
  C  709  1  0.05238600  0.83990000  0.05637400  1
  C  711  1  0.03075200  0.81743100  0.93389400  1
  N  38  1  0.80378900  0.92278300  0.71768400  1
  N  39  1  0.82037700  0.04063100  0.57915400  1
  N  40  1  0.63812400  0.03528500  0.72327200  1
  N  41  1  0.79173200  0.17204500  0.70128000  1
  N  79  1  0.28638900  0.16621900  0.71762900  1
  N  80  1  0.27244000  0.04104700  0.57815200  1
  N  81  1  0.44490700  0.04053100  0.73005600  1
  N  82  1  0.29826700  0.91714300  0.70066700  1
  N  120  1  0.92400600  0.28727800  0.21810800  1
  N  121  1  0.04932000  0.26949400  0.07989600  1
  N  122  1  0.05517100  0.45234000  0.22282400  1
  N  123  1  0.17332300  0.29809700  0.20097100  1
  N  161  1  0.16725300  0.80352800  0.21743100  1
  N  162  1  0.04969300  0.81766100  0.07757000  1
  N  163  1  0.04951100  0.64531500  0.22999700  1
  N  164  1  0.91811300  0.79205600  0.20086100  1
  N  202  1  0.79201700  0.17205300  0.28586900  1
  N  203  1  0.81230200  0.03668000  0.41380200  1
  N  204  1  0.63851900  0.03638200  0.26157700  1
  N  205  1  0.80304400  0.92266300  0.26956200  1
  N  243  1  0.29819000  0.91681900  0.28607100  1
  N  244  1  0.28104200  0.03618600  0.41419300  1
  N  245  1  0.44343400  0.04057200  0.25431900  1
  N  246  1  0.28641500  0.16603600  0.26978000  1
  N  284  1  0.91837900  0.79186900  0.78614100  1
  N  285  1  0.05372900  0.81243200  0.91338200  1
  N  286  1  0.05389000  0.63836500  0.76148700  1
  N  287  1  0.16757200  0.80320700  0.76954900  1
  N  325  1  0.17350000  0.29814300  0.78579700  1
  N  326  1  0.05408900  0.28115600  0.91465600  1
  N  327  1  0.04963500  0.44322500  0.75431700  1
  N  328  1  0.92409700  0.28652600  0.76962800  1
  N  335  1  0.91938800  0.87174700  0.76658300  1
  N  338  1  0.88833500  0.91593000  0.72849600  1
  N  359  1  0.17184500  0.21830000  0.76652400  1
  N  362  1  0.20229400  0.17391400  0.72827600  1
  N  383  1  0.87188800  0.17091100  0.26645400  1
  N  386  1  0.91655700  0.20210900  0.22885600  1
  N  407  1  0.21833300  0.91843500  0.26671100  1
  N  410  1  0.17418200  0.88798600  0.22827000  1
  N  431  1  0.17171800  0.21828700  0.21997500  1
  N  434  1  0.20217900  0.17381700  0.25815500  1
  N  455  1  0.91900500  0.87172000  0.21982300  1
  N  458  1  0.88823300  0.91595600  0.25800300  1
  N  479  1  0.21848400  0.91855400  0.71975100  1
  N  482  1  0.17430500  0.88807700  0.75815000  1
  N  503  1  0.87169200  0.17097100  0.72005600  1
  N  506  1  0.91633200  0.20195200  0.75780300  1
  N  527  1  0.58729100  0.05067200  0.78928000  1
  N  530  1  0.51748100  0.04347100  0.79728200  1
  N  551  1  0.03984300  0.50293900  0.28948500  1
  N  554  1  0.04669700  0.57279400  0.29740800  1
  N  575  1  0.58696100  0.05058700  0.19641200  1
  N  578  1  0.51716900  0.04356300  0.18830200  1
  N  599  1  0.03970900  0.58682200  0.69640600  1
  N  602  1  0.04669300  0.51703000  0.68826200  1
  N  623  1  0.88700900  0.05013700  0.45737900  1
  N  626  1  0.89748300  0.04344500  0.51594400  1
  N  647  1  0.20445000  0.05009000  0.45724500  1
  N  650  1  0.19397700  0.04335800  0.51582800  1
  N  671  1  0.04007200  0.20482500  0.95751700  1
  N  674  1  0.04656600  0.19365500  0.01599500  1
  N  695  1  0.04031800  0.88725800  0.95712900  1
  N  698  1  0.04714100  0.89710700  0.01579500  1
