# generated using pymatgen
data_Zn5H20C37O21
_symmetry_space_group_name_H-M   'P 1'
_cell_length_a   22.16944000
_cell_length_b   22.47757000
_cell_length_c   40.30733000
_cell_angle_alpha   90.00000000
_cell_angle_beta   90.00000000
_cell_angle_gamma   90.00000000
_symmetry_Int_Tables_number   1
_chemical_formula_structural   Zn5H20C37O21
_chemical_formula_sum   'Zn40 H160 C296 O168'
_cell_volume   20085.75277024
_cell_formula_units_Z   8
loop_
 _symmetry_equiv_pos_site_id
 _symmetry_equiv_pos_as_xyz
  1  'x, y, z'
loop_
 _atom_site_type_symbol
 _atom_site_label
 _atom_site_symmetry_multiplicity
 _atom_site_fract_x
 _atom_site_fract_y
 _atom_site_fract_z
 _atom_site_occupancy
  Zn  Zn1  1  0.82858000  0.00131000  0.71456000  1.0
  Zn  Zn2  1  0.27367000  0.42386000  0.96369000  1.0
  Zn  Zn3  1  0.76952000  0.35289000  0.71457000  1.0
  Zn  Zn4  1  0.20192000  0.50208000  0.01156000  1.0
  Zn  Zn5  1  0.75318000  0.92678000  0.76165000  1.0
  Zn  Zn6  1  0.18335000  0.94542000  0.99006000  1.0
  Zn  Zn7  1  0.62842000  0.46796000  0.97046000  1.0
  Zn  Zn8  1  0.19819000  0.95377000  0.73125000  1.0
  Zn  Zn9  1  0.66523000  0.39087000  0.73968000  1.0
  Zn  Zn10  1  0.72852000  0.42413000  0.01104000  1.0
  Zn  Zn11  1  0.67142000  0.99869000  0.21456000  1.0
  Zn  Zn12  1  0.22633000  0.57614000  0.46370000  1.0
  Zn  Zn13  1  0.73048000  0.64711000  0.21458000  1.0
  Zn  Zn14  1  0.29808000  0.49792000  0.51156000  1.0
  Zn  Zn15  1  0.74682000  0.07322000  0.26165000  1.0
  Zn  Zn16  1  0.31665000  0.05458000  0.49006000  1.0
  Zn  Zn17  1  0.87158000  0.53204000  0.47046000  1.0
  Zn  Zn18  1  0.30182000  0.04620000  0.23124000  1.0
  Zn  Zn19  1  0.83478000  0.60912000  0.23968000  1.0
  Zn  Zn20  1  0.77149000  0.57586000  0.51104000  1.0
  Zn  Zn21  1  0.17142000  0.50131000  0.78543000  1.0
  Zn  Zn22  1  0.72633000  0.92386000  0.53630000  1.0
  Zn  Zn23  1  0.23048000  0.85289000  0.78542000  1.0
  Zn  Zn24  1  0.79808000  0.00208000  0.48844000  1.0
  Zn  Zn25  1  0.24682000  0.42678000  0.73834000  1.0
  Zn  Zn26  1  0.81665000  0.44542000  0.50994000  1.0
  Zn  Zn27  1  0.37157000  0.96796000  0.52953000  1.0
  Zn  Zn28  1  0.80182000  0.45379000  0.76875000  1.0
  Zn  Zn29  1  0.33477000  0.89087000  0.76032000  1.0
  Zn  Zn30  1  0.27149000  0.92413000  0.48896000  1.0
  Zn  Zn31  1  0.32858000  0.49869000  0.28543000  1.0
  Zn  Zn32  1  0.77367000  0.07614000  0.03630000  1.0
  Zn  Zn33  1  0.26952000  0.14711000  0.28542000  1.0
  Zn  Zn34  1  0.70192000  0.99792000  0.98844000  1.0
  Zn  Zn35  1  0.25318000  0.57322000  0.23834000  1.0
  Zn  Zn36  1  0.68335000  0.55458000  0.00994000  1.0
  Zn  Zn37  1  0.12842000  0.03204000  0.02954000  1.0
  Zn  Zn38  1  0.69818000  0.54621000  0.26876000  1.0
  Zn  Zn39  1  0.16523000  0.10912000  0.26032000  1.0
  Zn  Zn40  1  0.22852000  0.07586000  0.98896000  1.0
  H  H1  1  0.25839000  0.41268000  0.85155000  1.0
  H  H2  1  0.37349000  0.28530000  0.89950000  1.0
  H  H3  1  0.35379000  0.28245000  0.79262000  1.0
  H  H4  1  0.46816000  0.25443000  0.87764000  1.0
  H  H5  1  0.41655000  0.19750000  0.89001000  1.0
  H  H6  1  0.56798000  0.12343000  0.87934000  1.0
  H  H7  1  0.50982000  0.13750000  0.90921000  1.0
  H  H8  1  0.55123000  0.22549000  0.83425000  1.0
  H  H9  1  0.49295000  0.19833000  0.80745000  1.0
  H  H10  1  0.61363000  0.12001000  0.92949000  1.0
  H  H11  1  0.71688000  0.23519000  0.99298000  1.0
  H  H12  1  0.59683000  0.31052000  0.91986000  1.0
  H  H13  1  0.63186000  0.05524000  0.79880000  1.0
  H  H14  1  0.74157000  0.16226000  0.73363000  1.0
  H  H15  1  0.59272000  0.24199000  0.78590000  1.0
  H  H16  1  0.39741000  0.01172000  0.82992000  1.0
  H  H17  1  0.48638000  0.07301000  0.84265000  1.0
  H  H18  1  0.42164000  0.11591000  0.83099000  1.0
  H  H19  1  0.36408000  0.06368000  0.93110000  1.0
  H  H20  1  0.26663000  0.91608000  0.88853000  1.0
  H  H21  1  0.71122000  0.49773000  0.88095000  1.0
  H  H22  1  0.79731000  0.64163000  0.93335000  1.0
  H  H23  1  0.84498000  0.60414000  0.83146000  1.0
  H  H24  1  0.84982000  0.73443000  0.91696000  1.0
  H  H25  1  0.89885000  0.67375000  0.92714000  1.0
  H  H26  1  0.88833000  0.81505000  0.87692000  1.0
  H  H27  1  0.90719000  0.75958000  0.84663000  1.0
  H  H28  1  0.88295000  0.86084000  0.82406000  1.0
  H  H29  1  0.99928000  0.94483000  0.75219000  1.0
  H  H30  1  0.07566000  0.84424000  0.83308000  1.0
  H  H31  1  0.02861000  0.72468000  0.87382000  1.0
  H  H32  1  0.97113000  0.67170000  0.86374000  1.0
  H  H33  1  0.05410000  0.62209000  0.85116000  1.0
  H  H34  1  0.17804000  0.50038000  0.89734000  1.0
  H  H35  1  0.06556000  0.61308000  0.95820000  1.0
  H  H36  1  0.83307000  0.88386000  0.95599000  1.0
  H  H37  1  0.00323000  0.80461000  0.91799000  1.0
  H  H38  1  0.97852000  0.74871000  0.94659000  1.0
  H  H39  1  0.02425000  0.85006000  0.96365000  1.0
  H  H40  1  0.94558000  0.99701000  0.01637000  1.0
  H  H41  1  0.24161000  0.58732000  0.35155000  1.0
  H  H42  1  0.12651000  0.71469000  0.39951000  1.0
  H  H43  1  0.14622000  0.71755000  0.29262000  1.0
  H  H44  1  0.03184000  0.74556000  0.37764000  1.0
  H  H45  1  0.08345000  0.80250000  0.39002000  1.0
  H  H46  1  0.93202000  0.87656000  0.37934000  1.0
  H  H47  1  0.99018000  0.86249000  0.40921000  1.0
  H  H48  1  0.94877000  0.77451000  0.33425000  1.0
  H  H49  1  0.00705000  0.80167000  0.30745000  1.0
  H  H50  1  0.88637000  0.87999000  0.42949000  1.0
  H  H51  1  0.78312000  0.76481000  0.49298000  1.0
  H  H52  1  0.90317000  0.68947000  0.41987000  1.0
  H  H53  1  0.86815000  0.94476000  0.29880000  1.0
  H  H54  1  0.75843000  0.83774000  0.23363000  1.0
  H  H55  1  0.90728000  0.75801000  0.28590000  1.0
  H  H56  1  0.10259000  0.98827000  0.32992000  1.0
  H  H57  1  0.01362000  0.92699000  0.34265000  1.0
  H  H58  1  0.07836000  0.88408000  0.33099000  1.0
  H  H59  1  0.13591000  0.93632000  0.43110000  1.0
  H  H60  1  0.23337000  0.08392000  0.38853000  1.0
  H  H61  1  0.78878000  0.50227000  0.38096000  1.0
  H  H62  1  0.70269000  0.35837000  0.43336000  1.0
  H  H63  1  0.65502000  0.39586000  0.33146000  1.0
  H  H64  1  0.65018000  0.26557000  0.41696000  1.0
  H  H65  1  0.60116000  0.32625000  0.42714000  1.0
  H  H66  1  0.61167000  0.18495000  0.37692000  1.0
  H  H67  1  0.59282000  0.24042000  0.34663000  1.0
  H  H68  1  0.61705000  0.13916000  0.32406000  1.0
  H  H69  1  0.50072000  0.05517000  0.25219000  1.0
  H  H70  1  0.42434000  0.15576000  0.33308000  1.0
  H  H71  1  0.47139000  0.27531000  0.37383000  1.0
  H  H72  1  0.52888000  0.32830000  0.36374000  1.0
  H  H73  1  0.44590000  0.37791000  0.35116000  1.0
  H  H74  1  0.32196000  0.49961000  0.39734000  1.0
  H  H75  1  0.43444000  0.38692000  0.45820000  1.0
  H  H76  1  0.66693000  0.11613000  0.45599000  1.0
  H  H77  1  0.49677000  0.19539000  0.41799000  1.0
  H  H78  1  0.52148000  0.25129000  0.44659000  1.0
  H  H79  1  0.47575000  0.14994000  0.46365000  1.0
  H  H80  1  0.55442000  0.00299000  0.51637000  1.0
  H  H81  1  0.74161000  0.91268000  0.64845000  1.0
  H  H82  1  0.62651000  0.78530000  0.60049000  1.0
  H  H83  1  0.64622000  0.78245000  0.70738000  1.0
  H  H84  1  0.53184000  0.75443000  0.62235000  1.0
  H  H85  1  0.58345000  0.69750000  0.60998000  1.0
  H  H86  1  0.43202000  0.62343000  0.62066000  1.0
  H  H87  1  0.49018000  0.63751000  0.59078000  1.0
  H  H88  1  0.44877000  0.72549000  0.66574000  1.0
  H  H89  1  0.50705000  0.69833000  0.69255000  1.0
  H  H90  1  0.38637000  0.62001000  0.57051000  1.0
  H  H91  1  0.28311000  0.73519000  0.50702000  1.0
  H  H92  1  0.40317000  0.81053000  0.58013000  1.0
  H  H93  1  0.36814000  0.55524000  0.70120000  1.0
  H  H94  1  0.25843000  0.66226000  0.76637000  1.0
  H  H95  1  0.40728000  0.74199000  0.71409000  1.0
  H  H96  1  0.60259000  0.51172000  0.67008000  1.0
  H  H97  1  0.51362000  0.57301000  0.65735000  1.0
  H  H98  1  0.57836000  0.61592000  0.66901000  1.0
  H  H99  1  0.63592000  0.56368000  0.56890000  1.0
  H  H100  1  0.73337000  0.41608000  0.61147000  1.0
  H  H101  1  0.28877000  0.99771000  0.61903000  1.0
  H  H102  1  0.20269000  0.14164000  0.56665000  1.0
  H  H103  1  0.15500000  0.10412000  0.66854000  1.0
  H  H104  1  0.15017000  0.23444000  0.58303000  1.0
  H  H105  1  0.10116000  0.17375000  0.57286000  1.0
  H  H106  1  0.11166000  0.31505000  0.62308000  1.0
  H  H107  1  0.09281000  0.25958000  0.65336000  1.0
  H  H108  1  0.11704000  0.36084000  0.67594000  1.0
  H  H109  1  0.00072000  0.44483000  0.74781000  1.0
  H  H110  1  0.92434000  0.34424000  0.66691000  1.0
  H  H111  1  0.97139000  0.22468000  0.62617000  1.0
  H  H112  1  0.02888000  0.17170000  0.63626000  1.0
  H  H113  1  0.94590000  0.12209000  0.64884000  1.0
  H  H114  1  0.82196000  0.00038000  0.60265000  1.0
  H  H115  1  0.93444000  0.11308000  0.54179000  1.0
  H  H116  1  0.16693000  0.38387000  0.54400000  1.0
  H  H117  1  0.99677000  0.30461000  0.58201000  1.0
  H  H118  1  0.02148000  0.24871000  0.55340000  1.0
  H  H119  1  0.97575000  0.35006000  0.53635000  1.0
  H  H120  1  0.05442000  0.49701000  0.48362000  1.0
  H  H121  1  0.75840000  0.08732000  0.14845000  1.0
  H  H122  1  0.87350000  0.21469000  0.10049000  1.0
  H  H123  1  0.85379000  0.21755000  0.20738000  1.0
  H  H124  1  0.96816000  0.24556000  0.12236000  1.0
  H  H125  1  0.91655000  0.30250000  0.10998000  1.0
  H  H126  1  0.06798000  0.37656000  0.12066000  1.0
  H  H127  1  0.00982000  0.36249000  0.09078000  1.0
  H  H128  1  0.05123000  0.27451000  0.16575000  1.0
  H  H129  1  0.99295000  0.30167000  0.19255000  1.0
  H  H130  1  0.11363000  0.37999000  0.07051000  1.0
  H  H131  1  0.21689000  0.26481000  0.00702000  1.0
  H  H132  1  0.09683000  0.18947000  0.08013000  1.0
  H  H133  1  0.13186000  0.44476000  0.20120000  1.0
  H  H134  1  0.24157000  0.33774000  0.26637000  1.0
  H  H135  1  0.09272000  0.25801000  0.21410000  1.0
  H  H136  1  0.89741000  0.48827000  0.17008000  1.0
  H  H137  1  0.98638000  0.42699000  0.15735000  1.0
  H  H138  1  0.92164000  0.38408000  0.16901000  1.0
  H  H139  1  0.86409000  0.43632000  0.06890000  1.0
  H  H140  1  0.76663000  0.58392000  0.11147000  1.0
  H  H141  1  0.21122000  0.00227000  0.11904000  1.0
  H  H142  1  0.29731000  0.85837000  0.06664000  1.0
  H  H143  1  0.34498000  0.89585000  0.16854000  1.0
  H  H144  1  0.34982000  0.76557000  0.08304000  1.0
  H  H145  1  0.39885000  0.82625000  0.07286000  1.0
  H  H146  1  0.38833000  0.68495000  0.12308000  1.0
  H  H147  1  0.40719000  0.74042000  0.15336000  1.0
  H  H148  1  0.38295000  0.63916000  0.17594000  1.0
  H  H149  1  0.49929000  0.55517000  0.24781000  1.0
  H  H150  1  0.57566000  0.65576000  0.16692000  1.0
  H  H151  1  0.52861000  0.77531000  0.12617000  1.0
  H  H152  1  0.47113000  0.82830000  0.13626000  1.0
  H  H153  1  0.55410000  0.87791000  0.14884000  1.0
  H  H154  1  0.67804000  0.99962000  0.10266000  1.0
  H  H155  1  0.56556000  0.88692000  0.04179000  1.0
  H  H156  1  0.33307000  0.61613000  0.04401000  1.0
  H  H157  1  0.50323000  0.69539000  0.08201000  1.0
  H  H158  1  0.47852000  0.75129000  0.05341000  1.0
  H  H159  1  0.52425000  0.64994000  0.03635000  1.0
  H  H160  1  0.44558000  0.50299000  0.98362000  1.0
  C  C1  1  0.88026000  0.92729000  0.76983000  1.0
  C  C2  1  0.72617000  0.04867000  0.75723000  1.0
  C  C3  1  0.27868000  0.37732000  0.78846000  1.0
  C  C4  1  0.30334000  0.34983000  0.81900000  1.0
  C  C5  1  0.28890000  0.37487000  0.84993000  1.0
  C  C6  1  0.31494000  0.35092000  0.87852000  1.0
  C  C7  1  0.35446000  0.30220000  0.87653000  1.0
  C  C8  1  0.36795000  0.27720000  0.84565000  1.0
  C  C9  1  0.34257000  0.30111000  0.81673000  1.0
  C  C10  1  0.44388000  0.21456000  0.86934000  1.0
  C  C11  1  0.48870000  0.16606000  0.85863000  1.0
  C  C12  1  0.53334000  0.15532000  0.88738000  1.0
  C  C13  1  0.52372000  0.18650000  0.82776000  1.0
  C  C14  1  0.60088000  0.21462000  0.92105000  1.0
  C  C15  1  0.62564000  0.16497000  0.93668000  1.0
  C  C16  1  0.66746000  0.17289000  0.96253000  1.0
  C  C17  1  0.68471000  0.22981000  0.97287000  1.0
  C  C18  1  0.65884000  0.27945000  0.95727000  1.0
  C  C19  1  0.61714000  0.27182000  0.93152000  1.0
  C  C20  1  0.67209000  0.34159000  0.96853000  1.0
  C  C21  1  0.60688000  0.14774000  0.79538000  1.0
  C  C22  1  0.64206000  0.09796000  0.78750000  1.0
  C  C23  1  0.69005000  0.10304000  0.76522000  1.0
  C  C24  1  0.70387000  0.15830000  0.75071000  1.0
  C  C25  1  0.66830000  0.20788000  0.75851000  1.0
  C  C26  1  0.61938000  0.20262000  0.78064000  1.0
  C  C27  1  0.68192000  0.26795000  0.74416000  1.0
  C  C28  1  0.31880000  0.92302000  0.82633000  1.0
  C  C29  1  0.33121000  0.96022000  0.85650000  1.0
  C  C30  1  0.37431000  0.00609000  0.85344000  1.0
  C  C31  1  0.38560000  0.04319000  0.88044000  1.0
  C  C32  1  0.45487000  0.10780000  0.85076000  1.0
  C  C33  1  0.35510000  0.03420000  0.91035000  1.0
  C  C34  1  0.31257000  0.98872000  0.91369000  1.0
  C  C35  1  0.30020000  0.95116000  0.88652000  1.0
  C  C36  1  0.27988000  0.98563000  0.94645000  1.0
  C  C37  1  0.10767000  0.90080000  0.77856000  1.0
  C  C38  1  0.77232000  0.50694000  0.82329000  1.0
  C  C39  1  0.77722000  0.54689000  0.85290000  1.0
  C  C40  1  0.74285000  0.53456000  0.88124000  1.0
  C  C41  1  0.75046000  0.56860000  0.91003000  1.0
  C  C42  1  0.71505000  0.55171000  0.94023000  1.0
  C  C43  1  0.05235000  0.94234000  0.00252000  1.0
  C  C44  1  0.79178000  0.61617000  0.91063000  1.0
  C  C45  1  0.82463000  0.62879000  0.88186000  1.0
  C  C46  1  0.81778000  0.59424000  0.85319000  1.0
  C  C47  1  0.88566000  0.70521000  0.90753000  1.0
  C  C48  1  0.94090000  0.74140000  0.89659000  1.0
  C  C49  1  0.92347000  0.78409000  0.86844000  1.0
  C  C50  1  0.97906000  0.84958000  0.83225000  1.0
  C  C51  1  0.92833000  0.87059000  0.81555000  1.0
  C  C52  1  0.93595000  0.90557000  0.78686000  1.0
  C  C53  1  0.99379000  0.91849000  0.77460000  1.0
  C  C54  1  0.04431000  0.89539000  0.79130000  1.0
  C  C55  1  0.03665000  0.86208000  0.82022000  1.0
  C  C56  1  0.99011000  0.69945000  0.88360000  1.0
  C  C57  1  0.05342000  0.62207000  0.90531000  1.0
  C  C58  1  0.07265000  0.60371000  0.87390000  1.0
  C  C59  1  0.11717000  0.55942000  0.87127000  1.0
  C  C60  1  0.13641000  0.53924000  0.83776000  1.0
  C  C61  1  0.14330000  0.53434000  0.89954000  1.0
  C  C62  1  0.12454000  0.55458000  0.93080000  1.0
  C  C63  1  0.07961000  0.59782000  0.93381000  1.0
  C  C64  1  0.15356000  0.53196000  0.96118000  1.0
  C  C65  1  0.69262000  0.11883000  0.97881000  1.0
  C  C66  1  0.30158000  0.37676000  0.91177000  1.0
  C  C67  1  0.82836000  0.97919000  0.99536000  1.0
  C  C68  1  0.88338000  0.94396000  0.98727000  1.0
  C  C69  1  0.87701000  0.89528000  0.96602000  1.0
  C  C70  1  0.92728000  0.86111000  0.95745000  1.0
  C  C71  1  0.96458000  0.77765000  0.92602000  1.0
  C  C72  1  0.98419000  0.87542000  0.96994000  1.0
  C  C73  1  0.99049000  0.92475000  0.99107000  1.0
  C  C74  1  0.94028000  0.95894000  0.00005000  1.0
  C  C75  1  0.61974000  0.07271000  0.26983000  1.0
  C  C76  1  0.77383000  0.95133000  0.25723000  1.0
  C  C77  1  0.22132000  0.62268000  0.28846000  1.0
  C  C78  1  0.19666000  0.65017000  0.31900000  1.0
  C  C79  1  0.21110000  0.62513000  0.34993000  1.0
  C  C80  1  0.18506000  0.64907000  0.37853000  1.0
  C  C81  1  0.14554000  0.69779000  0.37654000  1.0
  C  C82  1  0.13205000  0.72280000  0.34565000  1.0
  C  C83  1  0.15743000  0.69888000  0.31673000  1.0
  C  C84  1  0.05612000  0.78543000  0.36934000  1.0
  C  C85  1  0.01130000  0.83394000  0.35863000  1.0
  C  C86  1  0.96667000  0.84468000  0.38738000  1.0
  C  C87  1  0.97628000  0.81350000  0.32776000  1.0
  C  C88  1  0.89912000  0.78538000  0.42105000  1.0
  C  C89  1  0.87436000  0.83503000  0.43668000  1.0
  C  C90  1  0.83254000  0.82711000  0.46253000  1.0
  C  C91  1  0.81529000  0.77018000  0.47287000  1.0
  C  C92  1  0.84116000  0.72054000  0.45728000  1.0
  C  C93  1  0.88286000  0.72817000  0.43152000  1.0
  C  C94  1  0.82791000  0.65841000  0.46854000  1.0
  C  C95  1  0.89312000  0.85225000  0.29538000  1.0
  C  C96  1  0.85795000  0.90204000  0.28751000  1.0
  C  C97  1  0.80995000  0.89696000  0.26522000  1.0
  C  C98  1  0.79613000  0.84170000  0.25071000  1.0
  C  C99  1  0.83170000  0.79212000  0.25852000  1.0
  C  C100  1  0.88062000  0.79737000  0.28064000  1.0
  C  C101  1  0.81808000  0.73205000  0.24416000  1.0
  C  C102  1  0.18120000  0.07698000  0.32633000  1.0
  C  C103  1  0.16880000  0.03977000  0.35650000  1.0
  C  C104  1  0.12569000  0.99391000  0.35344000  1.0
  C  C105  1  0.11441000  0.95681000  0.38044000  1.0
  C  C106  1  0.04513000  0.89220000  0.35076000  1.0
  C  C107  1  0.14490000  0.96580000  0.41035000  1.0
  C  C108  1  0.18743000  0.01128000  0.41369000  1.0
  C  C109  1  0.19980000  0.04884000  0.38652000  1.0
  C  C110  1  0.22012000  0.01436000  0.44645000  1.0
  C  C111  1  0.39233000  0.09919000  0.27856000  1.0
  C  C112  1  0.72769000  0.49305000  0.32329000  1.0
  C  C113  1  0.72279000  0.45310000  0.35290000  1.0
  C  C114  1  0.75715000  0.46544000  0.38124000  1.0
  C  C115  1  0.74954000  0.43140000  0.41003000  1.0
  C  C116  1  0.78495000  0.44829000  0.44023000  1.0
  C  C117  1  0.44765000  0.05766000  0.50252000  1.0
  C  C118  1  0.70822000  0.38382000  0.41064000  1.0
  C  C119  1  0.67537000  0.37121000  0.38186000  1.0
  C  C120  1  0.68222000  0.40576000  0.35319000  1.0
  C  C121  1  0.61434000  0.29479000  0.40753000  1.0
  C  C122  1  0.55911000  0.25860000  0.39659000  1.0
  C  C123  1  0.57653000  0.21590000  0.36844000  1.0
  C  C124  1  0.52094000  0.15042000  0.33225000  1.0
  C  C125  1  0.57167000  0.12941000  0.31555000  1.0
  C  C126  1  0.56405000  0.09443000  0.28686000  1.0
  C  C127  1  0.50621000  0.08151000  0.27460000  1.0
  C  C128  1  0.45569000  0.10461000  0.29130000  1.0
  C  C129  1  0.46335000  0.13792000  0.32022000  1.0
  C  C130  1  0.50989000  0.30054000  0.38361000  1.0
  C  C131  1  0.44658000  0.37793000  0.40531000  1.0
  C  C132  1  0.42735000  0.39629000  0.37390000  1.0
  C  C133  1  0.38283000  0.44058000  0.37127000  1.0
  C  C134  1  0.36359000  0.46076000  0.33777000  1.0
  C  C135  1  0.35670000  0.46566000  0.39954000  1.0
  C  C136  1  0.37546000  0.44542000  0.43080000  1.0
  C  C137  1  0.42039000  0.40218000  0.43381000  1.0
  C  C138  1  0.34644000  0.46803000  0.46118000  1.0
  C  C139  1  0.80738000  0.88117000  0.47881000  1.0
  C  C140  1  0.19842000  0.62324000  0.41177000  1.0
  C  C141  1  0.67164000  0.02081000  0.49536000  1.0
  C  C142  1  0.61662000  0.05604000  0.48727000  1.0
  C  C143  1  0.62299000  0.10471000  0.46602000  1.0
  C  C144  1  0.57272000  0.13889000  0.45746000  1.0
  C  C145  1  0.53542000  0.22235000  0.42602000  1.0
  C  C146  1  0.51581000  0.12458000  0.46995000  1.0
  C  C147  1  0.50951000  0.07525000  0.49107000  1.0
  C  C148  1  0.55972000  0.04106000  0.50005000  1.0
  C  C149  1  0.11974000  0.42729000  0.73016000  1.0
  C  C150  1  0.27383000  0.54867000  0.74277000  1.0
  C  C151  1  0.72132000  0.87732000  0.71154000  1.0
  C  C152  1  0.69666000  0.84983000  0.68100000  1.0
  C  C153  1  0.71110000  0.87487000  0.65006000  1.0
  C  C154  1  0.68506000  0.85092000  0.62147000  1.0
  C  C155  1  0.64555000  0.80220000  0.62346000  1.0
  C  C156  1  0.63205000  0.77720000  0.65435000  1.0
  C  C157  1  0.65743000  0.80111000  0.68327000  1.0
  C  C158  1  0.55612000  0.71456000  0.63066000  1.0
  C  C159  1  0.51130000  0.66606000  0.64136000  1.0
  C  C160  1  0.46666000  0.65532000  0.61261000  1.0
  C  C161  1  0.47628000  0.68650000  0.67223000  1.0
  C  C162  1  0.39912000  0.71462000  0.57895000  1.0
  C  C163  1  0.37436000  0.66497000  0.56332000  1.0
  C  C164  1  0.33254000  0.67289000  0.53747000  1.0
  C  C165  1  0.31529000  0.72982000  0.52712000  1.0
  C  C166  1  0.34116000  0.77945000  0.54272000  1.0
  C  C167  1  0.38285000  0.77183000  0.56848000  1.0
  C  C168  1  0.32791000  0.84159000  0.53146000  1.0
  C  C169  1  0.39312000  0.64774000  0.70462000  1.0
  C  C170  1  0.35795000  0.59796000  0.71249000  1.0
  C  C171  1  0.30995000  0.60304000  0.73477000  1.0
  C  C172  1  0.29613000  0.65830000  0.74929000  1.0
  C  C173  1  0.33170000  0.70788000  0.74148000  1.0
  C  C174  1  0.38062000  0.70262000  0.71935000  1.0
  C  C175  1  0.31808000  0.76794000  0.75584000  1.0
  C  C176  1  0.68120000  0.42302000  0.67367000  1.0
  C  C177  1  0.66879000  0.46022000  0.64349000  1.0
  C  C178  1  0.62569000  0.50609000  0.64656000  1.0
  C  C179  1  0.61441000  0.54319000  0.61956000  1.0
  C  C180  1  0.54514000  0.60780000  0.64924000  1.0
  C  C181  1  0.64490000  0.53420000  0.58965000  1.0
  C  C182  1  0.68743000  0.48872000  0.58630000  1.0
  C  C183  1  0.69980000  0.45116000  0.61348000  1.0
  C  C184  1  0.72012000  0.48563000  0.55354000  1.0
  C  C185  1  0.89232000  0.40081000  0.72144000  1.0
  C  C186  1  0.22771000  0.00692000  0.67670000  1.0
  C  C187  1  0.22278000  0.04687000  0.64709000  1.0
  C  C188  1  0.25714000  0.03455000  0.61875000  1.0
  C  C189  1  0.24953000  0.06859000  0.58996000  1.0
  C  C190  1  0.28495000  0.05171000  0.55976000  1.0
  C  C191  1  0.94765000  0.44234000  0.49748000  1.0
  C  C192  1  0.20822000  0.11617000  0.58936000  1.0
  C  C193  1  0.17536000  0.12878000  0.61813000  1.0
  C  C194  1  0.18221000  0.09422000  0.64680000  1.0
  C  C195  1  0.11434000  0.20521000  0.59247000  1.0
  C  C196  1  0.05910000  0.24140000  0.60341000  1.0
  C  C197  1  0.07653000  0.28410000  0.63155000  1.0
  C  C198  1  0.02093000  0.34958000  0.66775000  1.0
  C  C199  1  0.07166000  0.37059000  0.68444000  1.0
  C  C200  1  0.06404000  0.40557000  0.71313000  1.0
  C  C201  1  0.00621000  0.41849000  0.72540000  1.0
  C  C202  1  0.95569000  0.39539000  0.70870000  1.0
  C  C203  1  0.96335000  0.36208000  0.67978000  1.0
  C  C204  1  0.00989000  0.19945000  0.61639000  1.0
  C  C205  1  0.94658000  0.12207000  0.59468000  1.0
  C  C206  1  0.92735000  0.10371000  0.62609000  1.0
  C  C207  1  0.88283000  0.05942000  0.62873000  1.0
  C  C208  1  0.86359000  0.03924000  0.66223000  1.0
  C  C209  1  0.85670000  0.03434000  0.60046000  1.0
  C  C210  1  0.87546000  0.05458000  0.56920000  1.0
  C  C211  1  0.92039000  0.09782000  0.56618000  1.0
  C  C212  1  0.84644000  0.03196000  0.53881000  1.0
  C  C213  1  0.30738000  0.61883000  0.52118000  1.0
  C  C214  1  0.69842000  0.87676000  0.58823000  1.0
  C  C215  1  0.17164000  0.47919000  0.50463000  1.0
  C  C216  1  0.11662000  0.44396000  0.51272000  1.0
  C  C217  1  0.12299000  0.39528000  0.53397000  1.0
  C  C218  1  0.07272000  0.36111000  0.54254000  1.0
  C  C219  1  0.03542000  0.27765000  0.57397000  1.0
  C  C220  1  0.01581000  0.37542000  0.53005000  1.0
  C  C221  1  0.00951000  0.42475000  0.50893000  1.0
  C  C222  1  0.05972000  0.45894000  0.49994000  1.0
  C  C223  1  0.38026000  0.57271000  0.23017000  1.0
  C  C224  1  0.22617000  0.45133000  0.24277000  1.0
  C  C225  1  0.77868000  0.12268000  0.21154000  1.0
  C  C226  1  0.80334000  0.15017000  0.18100000  1.0
  C  C227  1  0.78891000  0.12513000  0.15006000  1.0
  C  C228  1  0.81494000  0.14907000  0.12147000  1.0
  C  C229  1  0.85446000  0.19779000  0.12346000  1.0
  C  C230  1  0.86795000  0.22280000  0.15435000  1.0
  C  C231  1  0.84258000  0.19889000  0.18327000  1.0
  C  C232  1  0.94388000  0.28544000  0.13066000  1.0
  C  C233  1  0.98870000  0.33394000  0.14137000  1.0
  C  C234  1  0.03334000  0.34468000  0.11261000  1.0
  C  C235  1  0.02372000  0.31350000  0.17223000  1.0
  C  C236  1  0.10088000  0.28538000  0.07895000  1.0
  C  C237  1  0.12564000  0.33503000  0.06332000  1.0
  C  C238  1  0.16746000  0.32711000  0.03747000  1.0
  C  C239  1  0.18471000  0.27018000  0.02713000  1.0
  C  C240  1  0.15884000  0.22055000  0.04272000  1.0
  C  C241  1  0.11715000  0.22817000  0.06848000  1.0
  C  C242  1  0.17209000  0.15841000  0.03146000  1.0
  C  C243  1  0.10688000  0.35225000  0.20462000  1.0
  C  C244  1  0.14205000  0.40204000  0.21249000  1.0
  C  C245  1  0.19005000  0.39696000  0.23477000  1.0
  C  C246  1  0.20387000  0.34170000  0.24929000  1.0
  C  C247  1  0.16830000  0.29212000  0.24148000  1.0
  C  C248  1  0.11938000  0.29737000  0.21935000  1.0
  C  C249  1  0.18192000  0.23205000  0.25584000  1.0
  C  C250  1  0.81880000  0.57698000  0.17367000  1.0
  C  C251  1  0.83121000  0.53977000  0.14349000  1.0
  C  C252  1  0.87431000  0.49391000  0.14656000  1.0
  C  C253  1  0.88560000  0.45681000  0.11956000  1.0
  C  C254  1  0.95487000  0.39220000  0.14924000  1.0
  C  C255  1  0.85510000  0.46580000  0.08965000  1.0
  C  C256  1  0.81257000  0.51128000  0.08631000  1.0
  C  C257  1  0.80020000  0.54884000  0.11348000  1.0
  C  C258  1  0.77988000  0.51436000  0.05355000  1.0
  C  C259  1  0.60768000  0.59919000  0.22144000  1.0
  C  C260  1  0.27232000  0.99305000  0.17670000  1.0
  C  C261  1  0.27722000  0.95310000  0.14709000  1.0
  C  C262  1  0.24285000  0.96544000  0.11876000  1.0
  C  C263  1  0.25046000  0.93140000  0.08997000  1.0
  C  C264  1  0.21505000  0.94829000  0.05977000  1.0
  C  C265  1  0.55236000  0.55766000  0.99748000  1.0
  C  C266  1  0.29178000  0.88382000  0.08936000  1.0
  C  C267  1  0.32463000  0.87121000  0.11813000  1.0
  C  C268  1  0.31778000  0.90575000  0.14680000  1.0
  C  C269  1  0.38566000  0.79479000  0.09247000  1.0
  C  C270  1  0.44090000  0.75860000  0.10341000  1.0
  C  C271  1  0.42347000  0.71591000  0.13155000  1.0
  C  C272  1  0.47906000  0.65042000  0.16775000  1.0
  C  C273  1  0.42834000  0.62941000  0.18445000  1.0
  C  C274  1  0.43595000  0.59443000  0.21313000  1.0
  C  C275  1  0.49379000  0.58151000  0.22540000  1.0
  C  C276  1  0.54431000  0.60461000  0.20870000  1.0
  C  C277  1  0.53665000  0.63792000  0.17978000  1.0
  C  C278  1  0.49011000  0.80055000  0.11639000  1.0
  C  C279  1  0.55342000  0.87793000  0.09468000  1.0
  C  C280  1  0.57265000  0.89629000  0.12610000  1.0
  C  C281  1  0.61717000  0.94058000  0.12873000  1.0
  C  C282  1  0.63641000  0.96076000  0.16223000  1.0
  C  C283  1  0.64330000  0.96566000  0.10046000  1.0
  C  C284  1  0.62454000  0.94542000  0.06920000  1.0
  C  C285  1  0.57961000  0.90218000  0.06618000  1.0
  C  C286  1  0.65356000  0.96804000  0.03881000  1.0
  C  C287  1  0.19262000  0.38117000  0.02119000  1.0
  C  C288  1  0.80158000  0.12324000  0.08823000  1.0
  C  C289  1  0.32836000  0.52081000  0.00463000  1.0
  C  C290  1  0.38338000  0.55604000  0.01272000  1.0
  C  C291  1  0.37701000  0.60471000  0.03397000  1.0
  C  C292  1  0.42728000  0.63889000  0.04254000  1.0
  C  C293  1  0.46458000  0.72235000  0.07398000  1.0
  C  C294  1  0.48419000  0.62458000  0.03005000  1.0
  C  C295  1  0.49049000  0.57525000  0.00893000  1.0
  C  C296  1  0.44028000  0.54106000  0.99994000  1.0
  O  O1  1  0.88586000  0.95992000  0.74417000  1.0
  O  O2  1  0.82973000  0.91089000  0.78280000  1.0
  O  O3  1  0.71203000  0.00041000  0.77267000  1.0
  O  O4  1  0.76801000  0.05380000  0.73585000  1.0
  O  O5  1  0.23976000  0.41954000  0.79094000  1.0
  O  O6  1  0.29676000  0.36073000  0.75945000  1.0
  O  O7  1  0.40601000  0.22927000  0.84147000  1.0
  O  O8  1  0.56170000  0.13741000  0.81795000  1.0
  O  O9  1  0.56039000  0.21195000  0.89536000  1.0
  O  O10  1  0.64281000  0.30929000  0.75051000  1.0
  O  O11  1  0.73006000  0.27419000  0.72715000  1.0
  O  O12  1  0.63677000  0.38179000  0.95790000  1.0
  O  O13  1  0.71802000  0.34871000  0.98816000  1.0
  O  O14  1  0.74528000  0.40167000  0.75207000  1.0
  O  O15  1  0.35502000  0.93139000  0.80142000  1.0
  O  O16  1  0.27467000  0.88685000  0.82654000  1.0
  O  O17  1  0.14546000  0.86558000  0.79285000  1.0
  O  O18  1  0.11879000  0.93759000  0.75538000  1.0
  O  O19  1  0.81338000  0.51596000  0.79993000  1.0
  O  O20  1  0.73337000  0.46727000  0.82157000  1.0
  O  O21  1  0.05439000  0.98499000  0.02359000  1.0
  O  O22  1  0.09720000  0.91398000  0.99010000  1.0
  O  O23  1  0.67832000  0.50839000  0.93628000  1.0
  O  O24  1  0.72417000  0.58002000  0.96750000  1.0
  O  O25  1  0.16054000  0.02855000  0.98503000  1.0
  O  O26  1  0.29080000  0.02987000  0.96630000  1.0
  O  O27  1  0.24544000  0.94174000  0.95253000  1.0
  O  O28  1  0.86595000  0.67385000  0.87857000  1.0
  O  O29  1  0.42492000  0.09015000  0.88082000  1.0
  O  O30  1  0.97805000  0.81571000  0.86038000  1.0
  O  O31  1  0.11774000  0.56548000  0.81162000  1.0
  O  O32  1  0.17247000  0.49439000  0.83526000  1.0
  O  O33  1  0.13939000  0.55367000  0.98976000  1.0
  O  O34  1  0.19393000  0.49099000  0.95939000  1.0
  O  O35  1  0.67611000  0.06863000  0.96620000  1.0
  O  O36  1  0.72770000  0.12535000  0.00349000  1.0
  O  O37  1  0.77926000  0.96169000  0.98131000  1.0
  O  O38  1  0.83338000  0.02330000  0.01507000  1.0
  O  O39  1  0.26651000  0.42238000  0.91385000  1.0
  O  O40  1  0.32424000  0.35420000  0.93797000  1.0
  O  O41  1  0.91534000  0.81516000  0.93618000  1.0
  O  O42  1  0.00920000  0.66347000  0.91108000  1.0
  O  O43  1  0.61415000  0.04008000  0.24417000  1.0
  O  O44  1  0.67027000  0.08910000  0.28280000  1.0
  O  O45  1  0.78798000  0.99959000  0.27268000  1.0
  O  O46  1  0.73199000  0.94620000  0.23585000  1.0
  O  O47  1  0.26024000  0.58046000  0.29094000  1.0
  O  O48  1  0.20324000  0.63926000  0.25945000  1.0
  O  O49  1  0.09399000  0.77072000  0.34147000  1.0
  O  O50  1  0.93830000  0.86258000  0.31796000  1.0
  O  O51  1  0.93962000  0.78805000  0.39536000  1.0
  O  O52  1  0.85719000  0.69070000  0.25052000  1.0
  O  O53  1  0.76994000  0.72581000  0.22715000  1.0
  O  O54  1  0.86323000  0.61820000  0.45790000  1.0
  O  O55  1  0.78199000  0.65128000  0.48816000  1.0
  O  O56  1  0.75472000  0.59833000  0.25207000  1.0
  O  O57  1  0.14498000  0.06861000  0.30142000  1.0
  O  O58  1  0.22533000  0.11315000  0.32654000  1.0
  O  O59  1  0.35454000  0.13442000  0.29285000  1.0
  O  O60  1  0.38121000  0.06240000  0.25538000  1.0
  O  O61  1  0.68663000  0.48404000  0.29993000  1.0
  O  O62  1  0.76663000  0.53273000  0.32157000  1.0
  O  O63  1  0.44561000  0.01501000  0.52359000  1.0
  O  O64  1  0.40280000  0.08602000  0.49010000  1.0
  O  O65  1  0.82168000  0.49161000  0.43628000  1.0
  O  O66  1  0.77584000  0.41998000  0.46750000  1.0
  O  O67  1  0.33946000  0.97144000  0.48503000  1.0
  O  O68  1  0.20920000  0.97013000  0.46630000  1.0
  O  O69  1  0.25456000  0.05825000  0.45253000  1.0
  O  O70  1  0.63406000  0.32615000  0.37857000  1.0
  O  O71  1  0.07509000  0.90984000  0.38082000  1.0
  O  O72  1  0.52195000  0.18428000  0.36038000  1.0
  O  O73  1  0.38226000  0.43452000  0.31162000  1.0
  O  O74  1  0.32753000  0.50561000  0.33526000  1.0
  O  O75  1  0.36061000  0.44633000  0.48977000  1.0
  O  O76  1  0.30607000  0.50901000  0.45939000  1.0
  O  O77  1  0.82389000  0.93137000  0.46620000  1.0
  O  O78  1  0.77230000  0.87465000  0.50349000  1.0
  O  O79  1  0.72075000  0.03831000  0.48131000  1.0
  O  O80  1  0.66666667  0.97670000  0.51507000  1.0
  O  O81  1  0.23349000  0.57761000  0.41386000  1.0
  O  O82  1  0.17576000  0.64580000  0.43797000  1.0
  O  O83  1  0.58466000  0.18484000  0.43618000  1.0
  O  O84  1  0.49080000  0.33653000  0.41108000  1.0
  O  O85  1  0.11415000  0.45992000  0.75582000  1.0
  O  O86  1  0.17027000  0.41089000  0.71720000  1.0
  O  O87  1  0.28798000  0.50041000  0.72732000  1.0
  O  O88  1  0.23199000  0.55380000  0.76415000  1.0
  O  O89  1  0.76024000  0.91954000  0.70905000  1.0
  O  O90  1  0.70324000  0.86073000  0.74054000  1.0
  O  O91  1  0.59399000  0.72927000  0.65853000  1.0
  O  O92  1  0.43830000  0.63741000  0.68204000  1.0
  O  O93  1  0.43962000  0.71195000  0.60464000  1.0
  O  O94  1  0.35719000  0.80929000  0.74948000  1.0
  O  O95  1  0.26994000  0.77418000  0.77285000  1.0
  O  O96  1  0.36323000  0.88180000  0.54210000  1.0
  O  O97  1  0.28199000  0.84872000  0.51184000  1.0
  O  O98  1  0.25472000  0.90166000  0.74793000  1.0
  O  O99  1  0.64498000  0.43139000  0.69857000  1.0
  O  O100  1  0.72533000  0.38685000  0.67345000  1.0
  O  O101  1  0.85454000  0.36558000  0.70715000  1.0
  O  O102  1  0.88121000  0.43760000  0.74461000  1.0
  O  O103  1  0.18667000  0.01594000  0.70007000  1.0
  O  O104  1  0.26667000  0.96725000  0.67841000  1.0
  O  O105  1  0.94561000  0.48499000  0.47641000  1.0
  O  O106  1  0.90280000  0.41398000  0.50989000  1.0
  O  O107  1  0.32168000  0.00839000  0.56371000  1.0
  O  O108  1  0.27584000  0.08002000  0.53249000  1.0
  O  O109  1  0.83946000  0.52855000  0.51496000  1.0
  O  O110  1  0.70921000  0.52987000  0.53370000  1.0
  O  O111  1  0.75456000  0.44174000  0.54746000  1.0
  O  O112  1  0.13407000  0.17386000  0.62143000  1.0
  O  O113  1  0.57509000  0.59015000  0.61917000  1.0
  O  O114  1  0.02195000  0.31572000  0.63961000  1.0
  O  O115  1  0.88227000  0.06548000  0.68838000  1.0
  O  O116  1  0.82753000  0.99439000  0.66474000  1.0
  O  O117  1  0.86062000  0.05367000  0.51023000  1.0
  O  O118  1  0.80607000  0.99099000  0.54060000  1.0
  O  O119  1  0.32389000  0.56863000  0.53379000  1.0
  O  O120  1  0.27230000  0.62535000  0.49651000  1.0
  O  O121  1  0.22074000  0.46169000  0.51868000  1.0
  O  O122  1  0.16663000  0.52330000  0.48493000  1.0
  O  O123  1  0.73349000  0.92238000  0.58614000  1.0
  O  O124  1  0.67576000  0.85420000  0.56203000  1.0
  O  O125  1  0.08466000  0.31516000  0.56382000  1.0
  O  O126  1  0.99080000  0.16347000  0.58892000  1.0
  O  O127  1  0.38585000  0.54008000  0.25582000  1.0
  O  O128  1  0.32973000  0.58910000  0.21720000  1.0
  O  O129  1  0.21202000  0.49959000  0.22732000  1.0
  O  O130  1  0.26801000  0.44620000  0.26415000  1.0
  O  O131  1  0.73976000  0.08046000  0.20906000  1.0
  O  O132  1  0.79676000  0.13926000  0.24054000  1.0
  O  O133  1  0.90602000  0.27072000  0.15853000  1.0
  O  O134  1  0.06170000  0.36258000  0.18204000  1.0
  O  O135  1  0.06038000  0.28805000  0.10464000  1.0
  O  O136  1  0.14281000  0.19070000  0.24948000  1.0
  O  O137  1  0.23006000  0.22581000  0.27285000  1.0
  O  O138  1  0.13677000  0.11821000  0.04210000  1.0
  O  O139  1  0.21801000  0.15128000  0.01184000  1.0
  O  O140  1  0.24528000  0.09833000  0.24793000  1.0
  O  O141  1  0.85502000  0.56861000  0.19858000  1.0
  O  O142  1  0.77467000  0.61315000  0.17345000  1.0
  O  O143  1  0.64546000  0.63442000  0.20715000  1.0
  O  O144  1  0.61879000  0.56240000  0.24461000  1.0
  O  O145  1  0.31337000  0.98404000  0.20007000  1.0
  O  O146  1  0.23337000  0.03273000  0.17843000  1.0
  O  O147  1  0.55439000  0.51501000  0.97641000  1.0
  O  O148  1  0.59721000  0.58602000  0.00990000  1.0
  O  O149  1  0.17832000  0.99161000  0.06372000  1.0
  O  O150  1  0.22416000  0.91998000  0.03250000  1.0
  O  O151  1  0.66055000  0.47144000  0.01497000  1.0
  O  O152  1  0.79080000  0.47013000  0.03370000  1.0
  O  O153  1  0.74544000  0.55825000  0.04747000  1.0
  O  O154  1  0.36595000  0.82615000  0.12143000  1.0
  O  O155  1  0.92492000  0.40984000  0.11917000  1.0
  O  O156  1  0.47805000  0.68428000  0.13962000  1.0
  O  O157  1  0.61774000  0.93452000  0.18838000  1.0
  O  O158  1  0.67247000  0.00561000  0.16474000  1.0
  O  O159  1  0.63939000  0.94633000  0.01023000  1.0
  O  O160  1  0.69393000  0.00901000  0.04060000  1.0
  O  O161  1  0.17611000  0.43137000  0.03379000  1.0
  O  O162  1  0.22770000  0.37465000  0.99651000  1.0
  O  O163  1  0.27926000  0.53831000  0.01869000  1.0
  O  O164  1  0.33337000  0.47670000  0.98492000  1.0
  O  O165  1  0.76652000  0.07761000  0.08614000  1.0
  O  O166  1  0.82424000  0.14580000  0.06203000  1.0
  O  O167  1  0.41534000  0.68484000  0.06382000  1.0
  O  O168  1  0.50920000  0.83653000  0.08892000  1.0
