data_image0
_chemical_formula_structural       OSmOCO2C2O3SmOCO2C2O3SmOCO2C2O3SmOCO2C2O3SmOCO2C2O3SmOCO2C2O3SmOCO2C2O3SmOCO2C2O2C3FCFC7NC2FCFH9C3FCFC7NC2FCFH9C3FCFC7NC2FCFH9C3FCFC7NC2FCFH9C3FCFC7NC2FCFH9C3FCFC7NC2FCFH9C3FCFC7NC2FCFH9C3FCFC7NC2FCFH9C3FCFC7NC2FCFH9C3FCFC7NC2FCFH9C3FCFC7NC2FCFH9C3FCFC7NC2FCFH9
_chemical_formula_sum              "O48 Sm8 C192 F48 N12 H108"
_cell_length_a       27.5868
_cell_length_b       28.205
_cell_length_c       32.88150000000001
_cell_angle_alpha    95.1397
_cell_angle_beta     90.10140000000001
_cell_angle_gamma    89.3987

_space_group_name_H-M_alt    "P 1"
_space_group_IT_number       1

loop_
  _space_group_symop_operation_xyz
  'x, y, z'

loop_
  _atom_site_type_symbol
  _atom_site_label
  _atom_site_symmetry_multiplicity
  _atom_site_fract_x
  _atom_site_fract_y
  _atom_site_fract_z
  _atom_site_occupancy
  O   O1        1.0  0.19913  0.0006399999999999546  0.9938699999999999  1.0000
  Sm  Sm1       1.0  0.23516000000000004  0.9497099999999999  0.94583  1.0000
  O   O2        1.0  0.22207  0.9336800000000001  0.011050000000000226  1.0000
  C   C1        1.0  0.17525  0.9685899999999998  0.88618  1.0000
  O   O3        1.0  0.16130000000000003  0.9494599999999997  0.91782  1.0000
  O   O4        1.0  0.22034000000000004  0.9782099999999998  0.88563  1.0000
  C   C2        1.0  0.30157  0.0169  0.96722  1.0000
  C   C3        1.0  0.20233  0.9734099999999998  0.02228  1.0000
  O   O5        1.0  0.25737  0.026229999999999993  0.96104  1.0000
  O   O6        1.0  0.31135  0.9728099999999997  0.96256  1.0000
  O   O7        1.0  0.07298  0.69743  0.24078  1.0000
  Sm  Sm2       1.0  0.04627  0.71042  0.30504  1.0000
  O   O8        1.0  0.08691  0.76502  0.27376  1.0000
  C   C4        1.0  0.98614  0.77393  0.3458000000000001  1.0000
  O   O9        1.0  0.9870300000000002  0.7666599999999998  0.30731  1.0000
  O   O10       1.0  0.01635  0.7484  0.36322  1.0000
  C   C5        1.0  0.96476  0.65962  0.2901  1.0000
  C   C6        1.0  0.0925  0.73822  0.24067  1.0000
  O   O11       1.0  0.97356  0.69754  0.27381  1.0000
  O   O12       1.0  0.99785  0.64846  0.31427  1.0000
  O   O13       1.0  0.75824  0.09225999999999998  0.48901  1.0000
  Sm  Sm3       1.0  0.77013  0.022909999999999982  0.51728  1.0000
  O   O14       1.0  0.81957  0.08608999999999976  0.52696  1.0000
  C   C7        1.0  0.67705  0.012629999999999916  0.53382  1.0000
  O   O15       1.0  0.70215  0.046969999999999734  0.55019  1.0000
  O   O16       1.0  0.70058  0.98323  0.50926  1.0000
  C   C8        1.0  0.79452  0.00835999999999992  0.43776  1.0000
  C   C9        1.0  0.79554  0.11228999999999999  0.50471  1.0000
  O   O17       1.0  0.75775  0.03256999999999998  0.45053  1.0000
  O   O18       1.0  0.81829  0.9914  0.4661  1.0000
  O   O19       1.0  0.008720000000000002  0.77134  0.66065  1.0000
  Sm  Sm4       1.0  0.021780000000000004  0.7767299999999998  0.72784  1.0000
  O   O20       1.0  0.07357000000000001  0.8060399999999998  0.68514  1.0000
  C   C10       1.0  0.019260000000000055  0.84955  0.7838  1.0000
  O   O21       1.0  0.99734  0.8500599999999998  0.7495  1.0000
  O   O22       1.0  0.041330000000000006  0.8104499999999998  0.78962  1.0000
  C   C11       1.0  0.0010100000000000022  0.6892199999999998  0.7437600000000002  1.0000
  C   C12       1.0  0.047950000000000007  0.7931399999999997  0.65366  1.0000
  O   O23       1.0  0.97272  0.7247999999999998  0.75369  1.0000
  O   O24       1.0  0.040220000000000006  0.6995199999999998  0.72583  1.0000
  O   O25       1.0  0.0863  0.25334999999999996  0.26465  1.0000
  Sm  Sm5       1.0  0.14998  0.27716  0.22847  1.0000
  O   O26       1.0  0.15648  0.24361999999999995  0.28827000000000014  1.0000
  C   C13       1.0  0.11190999999999995  0.24893  0.15625  1.0000
  O   O27       1.0  0.12367  0.21999  0.18228  1.0000
  O   O28       1.0  0.11984000000000002  0.29262  0.16768  1.0000
  C   C14       1.0  0.1150199999999999  0.3580499999999999  0.26814  1.0000
  C   C15       1.0  0.11131  0.23946999999999993  0.29363  1.0000
  O   O29       1.0  0.15969999999999973  0.34826999999999997  0.26465  1.0000
  O   O30       1.0  0.08838  0.32651999999999987  0.25013  1.0000
  O   O31       1.0  0.26272  0.99431  0.51083  1.0000
  Sm  Sm6       1.0  0.33403  0.03349  0.51405  1.0000
  O   O32       1.0  0.26096  0.06876  0.50772  1.0000
  C   C16       1.0  0.31787  0.014040000000000052  0.59167  1.0000
  O   O33       1.0  0.30942  0.98486  0.56101  1.0000
  O   O34       1.0  0.33373  0.0534  0.5821  1.0000
  C   C17       1.0  0.3818  0.9678799999999999  0.46653  1.0000
  C   C18       1.0  0.23672  0.030780000000000016  0.5067200000000002  1.0000
  O   O35       1.0  0.39291  0.97869  0.5039600000000002  1.0000
  O   O36       1.0  0.34524  0.9906499999999999  0.45417  1.0000
  O   O37       1.0  0.95496  0.21929999999999994  0.8228700000000001  1.0000
  Sm  Sm7       1.0  0.034310000000000014  0.22048  0.80579  1.0000
  O   O38       1.0  0.006190000000000004  0.19619999999999999  0.865  1.0000
  C   C19       1.0  0.01977999999999991  0.1844  0.72946  1.0000
  O   O39       1.0  0.012410000000000032  0.16091  0.7603  1.0000
  O   O40       1.0  0.03467  0.22675999999999996  0.73842  1.0000
  C   C20       1.0  0.00353  0.311  0.82417  1.0000
  C   C21       1.0  0.96185  0.20346999999999996  0.8573  1.0000
  O   O41       1.0  0.97839  0.27947999999999995  0.80433  1.0000
  O   O42       1.0  0.044670000000000015  0.2958199999999999  0.83453  1.0000
  O   O43       1.0  0.77828  0.9858099999999999  0.04464  1.0000
  Sm  Sm8       1.0  0.77108  0.06391  0.03548  1.0000
  O   O44       1.0  0.8195  0.01167  0.99744  1.0000
  C   C22       1.0  0.6768100000000001  0.0661  0.05299  1.0000
  O   O45       1.0  0.69473  0.04009999999999998  0.022729999999999917  1.0000
  O   O46       1.0  0.70772  0.09202  0.07305  1.0000
  C   C23       1.0  0.82813  0.05826  0.10161000000000003  1.0000
  C   C24       1.0  0.80846  0.97595  0.01608999999999994  1.0000
  O   O47       1.0  0.79101  0.03288  0.09433  1.0000
  O   O48       1.0  0.8356  0.08682999999999998  0.07492  1.0000
  C   C25       1.0  0.3381  0.054739999999999976  0.9789299999999999  1.0000
  C   C26       1.0  0.38424  0.034529999999999984  0.9956099999999999  1.0000
  C   C27       1.0  0.42867  0.03760999999999999  0.97514  1.0000
  F   F1        1.0  0.43093  0.057679999999999974  0.93918  1.0000
  C   C28       1.0  0.47134  0.02033  0.99182  1.0000
  F   F2        1.0  0.51396  0.024629999999999996  0.97197  1.0000
  C   C29       1.0  0.47026  0.99932  0.02899  1.0000
  C   C30       1.0  0.51672  0.9819599999999998  0.04726  1.0000
  C   C31       1.0  0.5479  0.0232  0.06311  1.0000
  C   C32       1.0  0.5953400000000001  0.02766  0.04852  1.0000
  C   C33       1.0  0.62527  0.06455999999999999  0.06498000000000001  1.0000
  C   C34       1.0  0.60667  0.09809999999999999  0.09534  1.0000
  C   C35       1.0  0.5592  0.09427999999999997  0.10969  1.0000
  N   N1        1.0  0.54068  0.12824  0.14089  1.0000
  C   C36       1.0  0.53023  0.05655999999999999  0.09391  1.0000
  C   C37       1.0  0.42572  0.99568  0.0492  1.0000
  F   F3        1.0  0.42344  0.9759999999999998  0.08536  1.0000
  C   C38       1.0  0.38323  0.013540000000000108  0.03279  1.0000
  F   F4        1.0  0.34099  0.011179999999999968  0.05354  1.0000
  H   H1        1.0  0.34522  0.07431000000000011  0.9517600000000002  1.0000
  H   H2        1.0  0.32218  0.08072  0.00273  1.0000
  H   H3        1.0  0.53616  0.9580899999999998  0.02383  1.0000
  H   H4        1.0  0.50919  0.96012  0.07296  1.0000
  H   H5        1.0  0.60939  0.0014700000000000824  0.02529  1.0000
  H   H6        1.0  0.6291900000000001  0.12685  0.10829  1.0000
  H   H7        1.0  0.50549  0.12548  0.15203  1.0000
  H   H8        1.0  0.56196  0.15641999999999995  0.15312  1.0000
  H   H9        1.0  0.4939  0.05312999999999998  0.10568  1.0000
  C   C39       1.0  0.91984  0.63083  0.28149  1.0000
  C   C40       1.0  0.92674  0.58128  0.29463  1.0000
  C   C41       1.0  0.94017  0.54331  0.26609  1.0000
  F   F5        1.0  0.94271  0.54952  0.22569  1.0000
  C   C42       1.0  0.95347  0.4992399999999999  0.27924  1.0000
  F   F6        1.0  0.96781  0.46355  0.25124  1.0000
  C   C43       1.0  0.95408  0.4926199999999999  0.32113  1.0000
  C   C44       1.0  0.97467  0.44726  0.33549  1.0000
  C   C45       1.0  0.02824  0.44331  0.32648  1.0000
  C   C46       1.0  0.04642999999999997  0.40439999999999987  0.3013900000000001  1.0000
  C   C47       1.0  0.09606  0.40056  0.29239  1.0000
  C   C48       1.0  0.12762  0.43623  0.30841  1.0000
  C   C49       1.0  0.10986  0.4754  0.33338  1.0000
  N   N2        1.0  0.14222000000000007  0.51191  0.3490700000000001  1.0000
  C   C50       1.0  0.06027000000000002  0.4786299999999999  0.34273  1.0000
  C   C51       1.0  0.93811  0.52978  0.34944  1.0000
  F   F7        1.0  0.93775  0.52431  0.39004  1.0000
  C   C52       1.0  0.9245600000000002  0.57374  0.33627  1.0000
  F   F8        1.0  0.9116200000000001  0.60984  0.36438  1.0000
  H   H10       1.0  0.9117700000000001  0.62944  0.24831  1.0000
  H   H11       1.0  0.88853  0.64887  0.29772  1.0000
  H   H12       1.0  0.95468  0.4165999999999999  0.32019  1.0000
  H   H13       1.0  0.96947  0.44574  0.36881  1.0000
  H   H14       1.0  0.02194000000000007  0.3768399999999999  0.2892  1.0000
  H   H15       1.0  0.16607  0.4336199999999999  0.30163  1.0000
  H   H16       1.0  0.12979  0.54083  0.36844  1.0000
  H   H17       1.0  0.17887  0.51056  0.34104  1.0000
  H   H18       1.0  0.0466  0.5088199999999999  0.36227  1.0000
  C   C53       1.0  0.62413  0.008170000000000012  0.54283  1.0000
  C   C54       1.0  0.60115  0.9668299999999999  0.51772  1.0000
  C   C55       1.0  0.5976500000000001  0.96708  0.47505  1.0000
  F   F9        1.0  0.61574  0.0038599999999999785  0.4560200000000001  1.0000
  C   C56       1.0  0.5748200000000002  0.92989  0.45173  1.0000
  F   F10       1.0  0.57154  0.93124  0.41065  1.0000
  C   C57       1.0  0.55398  0.8923499999999998  0.47081  1.0000
  C   C58       1.0  0.52378  0.85573  0.44608  1.0000
  C   C59       1.0  0.47925  0.87886  0.42931  1.0000
  C   C60       1.0  0.44922  0.90851  0.45531  1.0000
  C   C61       1.0  0.40997  0.9331199999999997  0.43964  1.0000
  C   C62       1.0  0.39946  0.92623  0.39774  1.0000
  C   C63       1.0  0.42829  0.89566  0.37168  1.0000
  N   N3        1.0  0.41738  0.88893  0.32906  1.0000
  C   C64       1.0  0.4683  0.8723399999999998  0.38751  1.0000
  C   C65       1.0  0.55834  0.8915599999999998  0.51337  1.0000
  F   F11       1.0  0.53862  0.85581  0.53269  1.0000
  C   C66       1.0  0.58171  0.9284699999999998  0.53667  1.0000
  F   F12       1.0  0.58431  0.92719  0.57779  1.0000
  H   H19       1.0  0.6051500000000001  0.04156000000000004  0.53619  1.0000
  H   H20       1.0  0.62013  0.004890000000000063  0.57603  1.0000
  H   H21       1.0  0.51174  0.82728  0.46492  1.0000
  H   H22       1.0  0.54651  0.8382099999999998  0.42105  1.0000
  H   H23       1.0  0.45767  0.91376  0.48758  1.0000
  H   H24       1.0  0.36935  0.9450899999999998  0.38515  1.0000
  H   H25       1.0  0.43805  0.8656  0.30945  1.0000
  H   H26       1.0  0.38844  0.90714  0.3167700000000001  1.0000
  H   H27       1.0  0.49102000000000007  0.8494399999999999  0.36716  1.0000
  C   C67       1.0  0.98485  0.3603999999999999  0.83605  1.0000
  C   C68       1.0  0.009010000000000004  0.39758  0.81283  1.0000
  C   C69       1.0  0.0021600000000000013  0.3971499999999999  0.77045  1.0000
  F   F13       1.0  0.9772  0.36144  0.74977  1.0000
  C   C70       1.0  0.018329999999999957  0.43487  0.74934  1.0000
  F   F14       1.0  0.008690000000000087  0.4345199999999999  0.7088500000000002  1.0000
  C   C71       1.0  0.04097  0.47421  0.7704  1.0000
  C   C72       1.0  0.05199000000000001  0.51801  0.74867  1.0000
  C   C73       1.0  0.013060000000000073  0.5565  0.75462  1.0000
  C   C74       1.0  0.02435  0.6034199999999998  0.74701  1.0000
  C   C75       1.0  0.98915  0.6399899999999997  0.75196  1.0000
  C   C76       1.0  0.94217  0.6292  0.76426  1.0000
  C   C77       1.0  0.93005  0.5824699999999998  0.77087  1.0000
  N   N4        1.0  0.88176  0.5715199999999999  0.78239  1.0000
  C   C78       1.0  0.96524  0.54636  0.7658600000000002  1.0000
  C   C79       1.0  0.04895  0.4742399999999998  0.81261  1.0000
  F   F15       1.0  0.06978  0.5122699999999999  0.83381  1.0000
  C   C80       1.0  0.03349  0.43608  0.83368  1.0000
  F   F16       1.0  0.04032  0.43803  0.87466  1.0000
  H   H28       1.0  0.98902  0.36813999999999997  0.86956  1.0000
  H   H29       1.0  0.9453  0.3616299999999999  0.82958  1.0000
  H   H30       1.0  0.05652000000000001  0.50839  0.71538  1.0000
  H   H31       1.0  0.0874299999999999  0.53245  0.75983  1.0000
  H   H32       1.0  0.06071000000000001  0.6114099999999998  0.7374  1.0000
  H   H33       1.0  0.9146500000000001  0.6569099999999999  0.7681  1.0000
  H   H34       1.0  0.8724  0.53677  0.78753  1.0000
  H   H35       1.0  0.85499  0.59803  0.78573  1.0000
  H   H36       1.0  0.9547600000000002  0.51043  0.77061  1.0000
  C   C81       1.0  0.18539  0.9881099999999998  0.06499  1.0000
  C   C82       1.0  0.19175  0.94964  0.09392000000000003  1.0000
  C   C83       1.0  0.15176  0.93332  0.11503  1.0000
  F   F17       1.0  0.10639  0.9502  0.10853  1.0000
  C   C84       1.0  0.15834  0.9004599999999999  0.14405  1.0000
  F   F18       1.0  0.11933000000000002  0.8870799999999998  0.1652  1.0000
  C   C85       1.0  0.20478  0.88203  0.15163  1.0000
  C   C86       1.0  0.21225000000000005  0.8476999999999998  0.18398  1.0000
  C   C87       1.0  0.17957  0.80504  0.1781  1.0000
  C   C88       1.0  0.14981000000000003  0.7931599999999998  0.21021000000000004  1.0000
  C   C89       1.0  0.12072000000000001  0.75249  0.20568  1.0000
  C   C90       1.0  0.12066  0.72428  0.16824  1.0000
  C   C91       1.0  0.14976  0.7361799999999997  0.13587  1.0000
  N   N5        1.0  0.14934  0.7074299999999998  0.09773  1.0000
  C   C92       1.0  0.17964  0.77612  0.14106  1.0000
  C   C93       1.0  0.24467  0.8980299999999998  0.13024  1.0000
  F   F19       1.0  0.29021  0.8819999999999998  0.1374  1.0000
  C   C94       1.0  0.23829  0.93205  0.10227  1.0000
  F   F20       1.0  0.27784  0.9485599999999997  0.08381  1.0000
  H   H37       1.0  0.14687000000000003  0.99956  0.06333  1.0000
  H   H38       1.0  0.20629000000000003  0.019770000000000062  0.07705  1.0000
  H   H39       1.0  0.20586  0.86755  0.21427000000000004  1.0000
  H   H40       1.0  0.25026  0.83435  0.18411  1.0000
  H   H41       1.0  0.15036  0.81492  0.23909  1.0000
  H   H42       1.0  0.09823  0.69292  0.16426000000000004  1.0000
  H   H43       1.0  0.17108  0.7159299999999998  0.07351  1.0000
  H   H44       1.0  0.12696  0.67775  0.09343  1.0000
  H   H45       1.0  0.20268000000000005  0.7848899999999998  0.11625000000000003  1.0000
  C   C95       1.0  0.80959  0.16180999999999998  0.49688999999999994  1.0000
  C   C96       1.0  0.85662  0.17570999999999998  0.5179  1.0000
  C   C97       1.0  0.85648  0.19857999999999995  0.55769  1.0000
  F   F21       1.0  0.81399  0.20972999999999997  0.5772200000000002  1.0000
  C   C98       1.0  0.90015  0.20911999999999994  0.57798  1.0000
  F   F22       1.0  0.89911  0.23056999999999994  0.61663  1.0000
  C   C99       1.0  0.9446400000000003  0.19697  0.55881  1.0000
  C   C100      1.0  0.99162  0.20703999999999997  0.58143  1.0000
  C   C101      1.0  0.9982200000000002  0.17474  0.6152300000000003  1.0000
  C   C102      1.0  0.006650000000000046  0.19395  0.65545  1.0000
  C   C103      1.0  0.01173000000000002  0.16402999999999995  0.68716  1.0000
  C   C104      1.0  0.00877  0.11453  0.6782  1.0000
  C   C105      1.0  0.0011400000000000002  0.09498  0.63807  1.0000
  N   N6        1.0  0.99777  0.044529999999999986  0.62922  1.0000
  C   C106      1.0  0.99633  0.12509  0.60666  1.0000
  C   C107      1.0  0.9447500000000001  0.17406  0.51896  1.0000
  F   F23       1.0  0.98707  0.16069  0.50005  1.0000
  C   C108      1.0  0.90107  0.16333  0.49877  1.0000
  F   F24       1.0  0.90209  0.13984999999999997  0.4608600000000001  1.0000
  H   H46       1.0  0.7799600000000001  0.18682999999999994  0.50757  1.0000
  H   H47       1.0  0.81307  0.16383  0.46343  1.0000
  H   H48       1.0  0.99188  0.24512999999999996  0.5935  1.0000
  H   H49       1.0  0.02302000000000004  0.20178  0.56059  1.0000
  H   H50       1.0  0.00873999999999997  0.23216999999999993  0.66216  1.0000
  H   H51       1.0  0.01279  0.09103999999999997  0.70235  1.0000
  H   H52       1.0  0.99073  0.029659999999999992  0.59959  1.0000
  H   H53       1.0  0.00148  0.02167  0.65235  1.0000
  H   H54       1.0  0.9904  0.10985  0.57566  1.0000
  C   C109      1.0  0.02133000000000007  0.8927099999999998  0.81363  1.0000
  C   C110      1.0  0.00214000000000003  0.88332  0.8550300000000002  1.0000
  C   C111      1.0  0.95197  0.8818899999999998  0.8619500000000002  1.0000
  F   F25       1.0  0.92038  0.8855799999999998  0.83067  1.0000
  C   C112      1.0  0.93388  0.87676  0.90107  1.0000
  F   F26       1.0  0.88514  0.8745399999999999  0.90573  1.0000
  C   C113      1.0  0.9660200000000001  0.87344  0.93428  1.0000
  C   C114      1.0  0.95002  0.86753  0.9777  1.0000
  C   C115      1.0  0.8967200000000001  0.87471  0.9868500000000001  1.0000
  C   C116      1.0  0.87667  0.92089  0.99275  1.0000
  C   C117      1.0  0.82869  0.9277199999999997  0.00649999999999995  1.0000
  C   C118      1.0  0.80058  0.88807  0.013400000000000079  1.0000
  C   C119      1.0  0.81965  0.8419199999999998  0.006099999999999994  1.0000
  N   N7        1.0  0.79048  0.80172  0.01275  1.0000
  C   C120      1.0  0.86772  0.8353799999999999  0.99303  1.0000
  C   C121      1.0  0.0162199999999999  0.87351  0.92673  1.0000
  F   F27       1.0  0.048240000000000005  0.86871  0.95753  1.0000
  C   C122      1.0  0.0341  0.8782099999999998  0.88763  1.0000
  F   F28       1.0  0.08277  0.87719  0.8816300000000002  1.0000
  H   H55       1.0  0.00038999999999999945  0.92248  0.8018300000000003  1.0000
  H   H56       1.0  0.05958000000000001  0.90433  0.81567  1.0000
  H   H57       1.0  0.97018  0.8931399999999998  0.99901  1.0000
  H   H58       1.0  0.96176  0.83143  0.98505  1.0000
  H   H59       1.0  0.89907  0.95136  0.98842  1.0000
  H   H60       1.0  0.76367  0.89304  0.024310000000000054  1.0000
  H   H61       1.0  0.8043100000000001  0.76712  0.00735  1.0000
  H   H62       1.0  0.75482  0.8063  0.0231  1.0000
  H   H63       1.0  0.88273  0.79966  0.9883099999999999  1.0000
  C   C123      1.0  0.1828  0.028680000000000018  0.5005100000000002  1.0000
  C   C124      1.0  0.16379  0.07353  0.48388  1.0000
  C   C125      1.0  0.13396  0.10579  0.50767  1.0000
  F   F29       1.0  0.119  0.09589999999999997  0.54526  1.0000
  C   C126      1.0  0.12070000000000003  0.14938  0.49346  1.0000
  F   F30       1.0  0.09376  0.18063  0.51789  1.0000
  C   C127      1.0  0.13669  0.16132999999999997  0.45513  1.0000
  C   C128      1.0  0.12666  0.21017999999999995  0.4414  1.0000
  C   C129      1.0  0.09735  0.20782  0.40259  1.0000
  C   C130      1.0  0.11771  0.22221999999999995  0.36656  1.0000
  C   C131      1.0  0.08999  0.22228000000000003  0.3307700000000001  1.0000
  C   C132      1.0  0.04131  0.20806999999999995  0.33119  1.0000
  C   C133      1.0  0.02092  0.19287999999999997  0.36689  1.0000
  N   N8        1.0  0.97162  0.1777  0.36698  1.0000
  C   C134      1.0  0.04899  0.19286999999999996  0.40243  1.0000
  C   C135      1.0  0.16495000000000004  0.12822  0.43072  1.0000
  F   F31       1.0  0.18134  0.13884  0.39376  1.0000
  C   C136      1.0  0.17800000000000002  0.08459  0.4448  1.0000
  F   F32       1.0  0.20607  0.05365999999999999  0.42089  1.0000
  H   H64       1.0  0.16554  0.022420000000000006  0.53002  1.0000
  H   H65       1.0  0.17411  0.99779  0.4784  1.0000
  H   H66       1.0  0.16204  0.22757999999999995  0.43721  1.0000
  H   H67       1.0  0.10697  0.23333  0.46515  1.0000
  H   H68       1.0  0.15495  0.23421999999999998  0.36671  1.0000
  H   H69       1.0  0.0192699999999999  0.20859999999999995  0.30391  1.0000
  H   H70       1.0  0.95638  0.16571  0.39323  1.0000
  H   H71       1.0  0.9501400000000002  0.17801  0.34084  1.0000
  H   H72       1.0  0.0331  0.18169  0.43016  1.0000
  C   C137      1.0  0.14119  0.9785499999999998  0.8524  1.0000
  C   C138      1.0  0.16268  0.96391  0.8107800000000002  1.0000
  C   C139      1.0  0.16486  0.99667  0.78102  1.0000
  F   F33       1.0  0.14696  0.04160000000000001  0.78881  1.0000
  C   C140      1.0  0.18536  0.9834199999999997  0.74275  1.0000
  F   F34       1.0  0.1863  0.01565  0.71449  1.0000
  C   C141      1.0  0.20571  0.93765  0.73403  1.0000
  C   C142      1.0  0.23058  0.9241399999999997  0.6935  1.0000
  C   C143      1.0  0.26984  0.95853  0.6839900000000002  1.0000
  C   C144      1.0  0.27622  0.96969  0.6435600000000002  1.0000
  C   C145      1.0  0.31081  0.003100000000000103  0.6342  1.0000
  C   C146      1.0  0.33918  0.025590000000000005  0.66555  1.0000
  C   C147      1.0  0.33442  0.013460000000000022  0.7057600000000003  1.0000
  N   N9        1.0  0.36404000000000003  0.03587999999999998  0.73747  1.0000
  C   C148      1.0  0.30036999999999997  0.97944  0.7147200000000001  1.0000
  C   C149      1.0  0.20245  0.90453  0.7634  1.0000
  F   F35       1.0  0.22062  0.85971  0.75568  1.0000
  C   C150      1.0  0.18027000000000007  0.9172199999999998  0.8011000000000001  1.0000
  F   F36       1.0  0.17668  0.8840799999999998  0.8284000000000001  1.0000
  H   H73       1.0  0.10696  0.9590599999999996  0.85584  1.0000
  H   H74       1.0  0.13207  0.017109999999999726  0.8559  1.0000
  H   H75       1.0  0.20232  0.9226599999999998  0.66928  1.0000
  H   H76       1.0  0.24734000000000003  0.8881099999999997  0.6926400000000003  1.0000
  H   H77       1.0  0.25385  0.9527199999999998  0.61947  1.0000
  H   H78       1.0  0.3658  0.05167999999999998  0.65866  1.0000
  H   H79       1.0  0.36037  0.027540000000000002  0.76764  1.0000
  H   H80       1.0  0.38958  0.06127  0.73115  1.0000
  H   H81       1.0  0.29701  0.97012  0.7458500000000002  1.0000
  C   C151      1.0  0.95157  0.80823  0.36821  1.0000
  C   C152      1.0  0.9704200000000001  0.8256199999999998  0.41001  1.0000
  C   C153      1.0  0.95064  0.8089699999999997  0.44541  1.0000
  F   F37       1.0  0.91468  0.77635  0.44265  1.0000
  C   C154      1.0  0.96777  0.82588  0.48402  1.0000
  F   F38       1.0  0.94787  0.8094799999999999  0.51773  1.0000
  C   C155      1.0  0.004560000000000002  0.8600899999999998  0.48795  1.0000
  C   C156      1.0  0.02034  0.88064  0.52979  1.0000
  C   C157      1.0  0.04915  0.8452199999999997  0.55194  1.0000
  C   C158      1.0  0.032910000000000016  0.8313399999999997  0.58953  1.0000
  C   C159      1.0  0.06263  0.8033  0.61257  1.0000
  C   C160      1.0  0.10807000000000001  0.78782  0.59751  1.0000
  C   C161      1.0  0.12378  0.7998199999999999  0.55933  1.0000
  N   N10       1.0  0.17  0.78345  0.54389  1.0000
  C   C162      1.0  0.09445  0.8287899999999998  0.5367800000000001  1.0000
  C   C163      1.0  0.02474  0.87633  0.45252  1.0000
  F   F39       1.0  0.06079  0.9088899999999995  0.45524  1.0000
  C   C164      1.0  0.00781  0.8592  0.41391  1.0000
  F   F40       1.0  0.027449999999999974  0.8758899999999998  0.38021  1.0000
  H   H82       1.0  0.9161  0.7903799999999997  0.37026  1.0000
  H   H83       1.0  0.94537  0.83914  0.35012  1.0000
  H   H84       1.0  0.9876  0.89309  0.5475000000000002  1.0000
  H   H85       1.0  0.04301000000000001  0.91267  0.52782  1.0000
  H   H86       1.0  0.99826  0.8441699999999998  0.6017500000000002  1.0000
  H   H87       1.0  0.13116  0.76636  0.61542  1.0000
  H   H88       1.0  0.18225000000000002  0.79229  0.51554  1.0000
  H   H89       1.0  0.19229000000000002  0.7622299999999995  0.56068  1.0000
  H   H90       1.0  0.10731  0.8393299999999998  0.50787  1.0000
  C   C165      1.0  0.86119  0.05321999999999999  0.13731  1.0000
  C   C166      1.0  0.83337  0.05035999999999999  0.17653  1.0000
  C   C167      1.0  0.80781  0.008759999999999997  0.18308  1.0000
  F   F41       1.0  0.8074400000000002  0.9712899999999998  0.15411  1.0000
  C   C168      1.0  0.78356  0.00489  0.21985  1.0000
  F   F42       1.0  0.75971  0.9641  0.22538  1.0000
  C   C169      1.0  0.7854000000000001  0.04194999999999999  0.25138  1.0000
  C   C170      1.0  0.7610500000000001  0.036619999999999986  0.2919  1.0000
  C   C171      1.0  0.79358  0.01545  0.323  1.0000
  C   C172      1.0  0.78061  0.021869999999999994  0.36447  1.0000
  C   C173      1.0  0.80847  0.001449999999999724  0.39427  1.0000
  C   C174      1.0  0.8499200000000001  0.9744399999999998  0.38245  1.0000
  C   C175      1.0  0.86301  0.96727  0.34122  1.0000
  N   N11       1.0  0.90487  0.9390699999999997  0.32933  1.0000
  C   C176      1.0  0.8348200000000001  0.98745  0.31169  1.0000
  C   C177      1.0  0.8110900000000001  0.08347  0.24502  1.0000
  F   F43       1.0  0.8139  0.1196  0.27511  1.0000
  C   C178      1.0  0.83454  0.0878  0.20785  1.0000
  F   F44       1.0  0.8588100000000001  0.12843  0.2026  1.0000
  H   H91       1.0  0.8870100000000001  0.08332  0.13983  1.0000
  H   H92       1.0  0.88329  0.020239999999999994  0.13108  1.0000
  H   H93       1.0  0.72839  0.014030000000000004  0.28724  1.0000
  H   H94       1.0  0.74747  0.07213  0.3047  1.0000
  H   H95       1.0  0.74858  0.04281000000000001  0.3734400000000001  1.0000
  H   H96       1.0  0.8719100000000001  0.9586800000000001  0.4051  1.0000
  H   H97       1.0  0.91401  0.9319799999999999  0.29855  1.0000
  H   H98       1.0  0.92704  0.92514  0.3512  1.0000
  H   H99       1.0  0.84527  0.9807999999999999  0.28001  1.0000
  C   C179      1.0  0.92142  0.19629  0.88651  1.0000
  C   C180      1.0  0.93404  0.2164  0.9294  1.0000
  C   C181      1.0  0.93055  0.18816  0.96239  1.0000
  F   F45       1.0  0.91265  0.14337  0.9569600000000003  1.0000
  C   C182      1.0  0.9456700000000001  0.20580999999999994  0.0014400000000001079  1.0000
  F   F46       1.0  0.94233  0.17771  0.03271  1.0000
  C   C183      1.0  0.96623  0.25137  0.0078100000000000955  1.0000
  C   C184      1.0  0.98606  0.26892999999999995  0.04941  1.0000
  C   C185      1.0  0.03121  0.24299999999999994  0.06266  1.0000
  C   C186      1.0  0.05149000000000004  0.25778999999999996  0.10087  1.0000
  C   C187      1.0  0.09118  0.23334  0.11609  1.0000
  C   C188      1.0  0.11098  0.19374  0.09287  1.0000
  C   C189      1.0  0.09228  0.17944999999999994  0.05418  1.0000
  N   N12       1.0  0.11283  0.13926  0.030380000000000008  1.0000
  C   C190      1.0  0.05305  0.20441  0.03888  1.0000
  C   C191      1.0  0.9676  0.28036  0.9752500000000002  1.0000
  F   F47       1.0  0.98621  0.3248799999999999  0.98044  1.0000
  C   C192      1.0  0.95052  0.26348  0.93666  1.0000
  F   F48       1.0  0.9514800000000001  0.29261  0.90605  1.0000
  H   H100      1.0  0.914  0.15757  0.88528  1.0000
  H   H101      1.0  0.888  0.21422  0.8764500000000002  1.0000
  H   H102      1.0  0.95706  0.26566  0.07237  1.0000
  H   H103      1.0  0.99455  0.30742999999999987  0.05046  1.0000
  H   H104      1.0  0.0355700000000001  0.28778  0.11933  1.0000
  H   H105      1.0  0.14149000000000006  0.17455999999999994  0.10457  1.0000
  H   H106      1.0  0.09797000000000002  0.12717  0.00215  1.0000
  H   H107      1.0  0.14257  0.12085  0.041150000000000006  1.0000
  H   H108      1.0  0.03989  0.19305  0.00866  1.0000
