data_image0
_chemical_formula_structural       Cs12U12P12H48C84O72
_chemical_formula_sum              "Cs12 U12 P12 H48 C84 O72"
_cell_length_a       11.9563
_cell_length_b       20.5225
_cell_length_c       22.0556
_cell_angle_alpha    90.0
_cell_angle_beta     90.0
_cell_angle_gamma    90.0

_space_group_name_H-M_alt    "P 1"
_space_group_IT_number       1

loop_
  _space_group_symop_operation_xyz
  'x, y, z'

loop_
  _atom_site_type_symbol
  _atom_site_label
  _atom_site_symmetry_multiplicity
  _atom_site_fract_x
  _atom_site_fract_y
  _atom_site_fract_z
  _atom_site_occupancy
  Cs  Cs1       1.0  0.76235  0.91968  0.5401  1.0000
  Cs  Cs2       1.0  0.26235  0.08032  0.9598999999999998  1.0000
  Cs  Cs3       1.0  0.23765  0.41967999999999994  0.4598999999999999  1.0000
  Cs  Cs4       1.0  0.73765  0.58032  0.04009999999999999  1.0000
  Cs  Cs5       1.0  0.23765  0.08032  0.4598999999999999  1.0000
  Cs  Cs6       1.0  0.73765  0.91968  0.04009999999999999  1.0000
  Cs  Cs7       1.0  0.76235  0.58032  0.5401  1.0000
  Cs  Cs8       1.0  0.26235  0.41967999999999994  0.9598999999999998  1.0000
  Cs  Cs9       1.0  0.99753  0.75  0.65513  1.0000
  Cs  Cs10      1.0  0.49753  0.25  0.84487  1.0000
  Cs  Cs11      1.0  0.00247  0.25  0.34486999999999995  1.0000
  Cs  Cs12      1.0  0.50247  0.75  0.15512999999999996  1.0000
  U   U1        1.0  0.14023  0.91681  0.57242  1.0000
  U   U2        1.0  0.64023  0.08319  0.9275799999999997  1.0000
  U   U3        1.0  0.8597700000000001  0.41681000000000007  0.42758  1.0000
  U   U4        1.0  0.35977000000000003  0.58319  0.07241999999999998  1.0000
  U   U5        1.0  0.8597700000000001  0.08319  0.42758  1.0000
  U   U6        1.0  0.35977000000000003  0.91681  0.07241999999999998  1.0000
  U   U7        1.0  0.14023  0.58319  0.57242  1.0000
  U   U8        1.0  0.64023  0.41681000000000007  0.9275799999999997  1.0000
  U   U9        1.0  0.91039  0.75  0.44007999999999997  1.0000
  U   U10       1.0  0.41039  0.25  0.05992  1.0000
  U   U11       1.0  0.08961  0.25  0.55992  1.0000
  U   U12       1.0  0.58961  0.75  0.94008  1.0000
  P   P1        1.0  0.0003  0.9223  0.4270999999999999  1.0000
  P   P2        1.0  0.5003  0.0777  0.0729  1.0000
  P   P3        1.0  0.9997  0.42229999999999995  0.5729  1.0000
  P   P4        1.0  0.4997  0.5777  0.9270999999999999  1.0000
  P   P5        1.0  0.9997  0.0777  0.5729  1.0000
  P   P6        1.0  0.4997  0.9223  0.9270999999999999  1.0000
  P   P7        1.0  0.0003  0.5777  0.4270999999999999  1.0000
  P   P8        1.0  0.5003  0.42229999999999995  0.0729  1.0000
  P   P9        1.0  0.1802  0.75  0.50499  1.0000
  P   P10       1.0  0.6802  0.25  0.9950099999999998  1.0000
  P   P11       1.0  0.8198000000000001  0.25  0.49500999999999995  1.0000
  P   P12       1.0  0.3198  0.75  0.00499  1.0000
  H   H1        1.0  0.3418  0.8486  0.47089999999999993  1.0000
  H   H2        1.0  0.5299  0.8496000000000001  0.44569999999999993  1.0000
  H   H3        1.0  0.0272  0.0062  0.32469999999999993  1.0000
  H   H4        1.0  0.1353  0.0049  0.23629999999999998  1.0000
  H   H5        1.0  0.2345  0.8201  0.2779  1.0000
  H   H6        1.0  0.1337  0.8255000000000001  0.3678  1.0000
  H   H7        1.0  0.8418  0.1514  0.0291  1.0000
  H   H8        1.0  0.029900000000000003  0.1504  0.0543  1.0000
  H   H9        1.0  0.5272  0.9938000000000001  0.1753  1.0000
  H   H10       1.0  0.6353  0.9951  0.2637  1.0000
  H   H11       1.0  0.7345  0.1799  0.2221  1.0000
  H   H12       1.0  0.6337  0.1745  0.13219999999999998  1.0000
  H   H13       1.0  0.6582  0.3486  0.5291  1.0000
  H   H14       1.0  0.4701000000000001  0.3496  0.5543  1.0000
  H   H15       1.0  0.9727999999999999  0.5062  0.6752999999999999  1.0000
  H   H16       1.0  0.8647  0.5049  0.7636999999999998  1.0000
  H   H17       1.0  0.7655000000000001  0.3201  0.7221  1.0000
  H   H18       1.0  0.8663  0.3255  0.6321999999999999  1.0000
  H   H19       1.0  0.1582  0.6514  0.9708999999999998  1.0000
  H   H20       1.0  0.9701  0.6504  0.9457  1.0000
  H   H21       1.0  0.4728  0.4938  0.8247  1.0000
  H   H22       1.0  0.3647  0.49509999999999993  0.7363  1.0000
  H   H23       1.0  0.2655  0.6799  0.7779  1.0000
  H   H24       1.0  0.36629999999999996  0.6745  0.8677999999999999  1.0000
  H   H25       1.0  0.6582  0.1514  0.5291  1.0000
  H   H26       1.0  0.4701000000000001  0.1504  0.5543  1.0000
  H   H27       1.0  0.9727999999999999  0.9938000000000001  0.6752999999999999  1.0000
  H   H28       1.0  0.8647  0.9951  0.7636999999999998  1.0000
  H   H29       1.0  0.7655000000000001  0.1799  0.7221  1.0000
  H   H30       1.0  0.8663  0.1745  0.6321999999999999  1.0000
  H   H31       1.0  0.1582  0.8486  0.9708999999999998  1.0000
  H   H32       1.0  0.9701  0.8496000000000001  0.9457  1.0000
  H   H33       1.0  0.4728  0.0062  0.8247  1.0000
  H   H34       1.0  0.3647  0.0049  0.7363  1.0000
  H   H35       1.0  0.2655  0.8201  0.7779  1.0000
  H   H36       1.0  0.36629999999999996  0.8255000000000001  0.8677999999999999  1.0000
  H   H37       1.0  0.3418  0.6514  0.47089999999999993  1.0000
  H   H38       1.0  0.5299  0.6504  0.44569999999999993  1.0000
  H   H39       1.0  0.0272  0.4938  0.32469999999999993  1.0000
  H   H40       1.0  0.1353  0.49509999999999993  0.23629999999999998  1.0000
  H   H41       1.0  0.2345  0.6799  0.2779  1.0000
  H   H42       1.0  0.1337  0.6745  0.3678  1.0000
  H   H43       1.0  0.8418  0.3486  0.0291  1.0000
  H   H44       1.0  0.029900000000000003  0.3496  0.0543  1.0000
  H   H45       1.0  0.5272  0.5062  0.1753  1.0000
  H   H46       1.0  0.6353  0.5049  0.2637  1.0000
  H   H47       1.0  0.7345  0.3201  0.2221  1.0000
  H   H48       1.0  0.6337  0.3255  0.13219999999999998  1.0000
  C   C1        1.0  0.3803  0.8084  0.46669999999999995  1.0000
  C   C2        1.0  0.4917  0.8095000000000001  0.4515999999999999  1.0000
  C   C3        1.0  0.0714  0.9167  0.3554  1.0000
  C   C4        1.0  0.0713  0.969  0.3156  1.0000
  C   C5        1.0  0.1342  0.9682000000000001  0.2626  1.0000
  C   C6        1.0  0.1963  0.9118  0.24869999999999998  1.0000
  C   C7        1.0  0.1941  0.8586000000000001  0.2878  1.0000
  C   C8        1.0  0.1333  0.8616  0.34079999999999994  1.0000
  C   C9        1.0  0.2665  0.9111000000000001  0.19159999999999996  1.0000
  C   C10       1.0  0.8803  0.1916  0.0333  1.0000
  C   C11       1.0  0.9917  0.1905  0.0484  1.0000
  C   C12       1.0  0.5714  0.0833  0.1446  1.0000
  C   C13       1.0  0.5713  0.030999999999999996  0.1844  1.0000
  C   C14       1.0  0.6342  0.0318  0.23739999999999994  1.0000
  C   C15       1.0  0.6963  0.0882  0.2513  1.0000
  C   C16       1.0  0.6941  0.1414  0.2122  1.0000
  C   C17       1.0  0.6333  0.1384  0.1592  1.0000
  C   C18       1.0  0.7665  0.0889  0.3084  1.0000
  C   C19       1.0  0.6197  0.3084  0.5333  1.0000
  C   C20       1.0  0.5083  0.3095  0.5484  1.0000
  C   C21       1.0  0.9286  0.4167  0.6446  1.0000
  C   C22       1.0  0.9287  0.46900000000000003  0.6844  1.0000
  C   C23       1.0  0.8658000000000001  0.4682  0.7373999999999998  1.0000
  C   C24       1.0  0.8037  0.4118  0.7512999999999999  1.0000
  C   C25       1.0  0.8059  0.3586  0.7121999999999999  1.0000
  C   C26       1.0  0.8667  0.3616  0.6592  1.0000
  C   C27       1.0  0.7335  0.4111  0.8083999999999999  1.0000
  C   C28       1.0  0.1197  0.6916  0.9666999999999999  1.0000
  C   C29       1.0  0.0083  0.6905  0.9515999999999998  1.0000
  C   C30       1.0  0.42860000000000004  0.5833  0.8553999999999999  1.0000
  C   C31       1.0  0.4287000000000001  0.531  0.8155999999999998  1.0000
  C   C32       1.0  0.3658  0.5318  0.7626  1.0000
  C   C33       1.0  0.3037  0.5882  0.7487  1.0000
  C   C34       1.0  0.3059  0.6414  0.7877999999999998  1.0000
  C   C35       1.0  0.3667000000000001  0.6384  0.8408  1.0000
  C   C36       1.0  0.2335  0.5889  0.6915999999999999  1.0000
  C   C37       1.0  0.6197  0.1916  0.5333  1.0000
  C   C38       1.0  0.5083  0.1905  0.5484  1.0000
  C   C39       1.0  0.9286  0.0833  0.6446  1.0000
  C   C40       1.0  0.9287  0.030999999999999996  0.6844  1.0000
  C   C41       1.0  0.8658000000000001  0.0318  0.7373999999999998  1.0000
  C   C42       1.0  0.8037  0.0882  0.7512999999999999  1.0000
  C   C43       1.0  0.8059  0.1414  0.7121999999999999  1.0000
  C   C44       1.0  0.8667  0.1384  0.6592  1.0000
  C   C45       1.0  0.7335  0.0889  0.8083999999999999  1.0000
  C   C46       1.0  0.1197  0.8084  0.9666999999999999  1.0000
  C   C47       1.0  0.0083  0.8095000000000001  0.9515999999999998  1.0000
  C   C48       1.0  0.42860000000000004  0.9167  0.8553999999999999  1.0000
  C   C49       1.0  0.4287000000000001  0.969  0.8155999999999998  1.0000
  C   C50       1.0  0.3658  0.9682000000000001  0.7626  1.0000
  C   C51       1.0  0.3037  0.9118  0.7487  1.0000
  C   C52       1.0  0.3059  0.8586000000000001  0.7877999999999998  1.0000
  C   C53       1.0  0.3667000000000001  0.8616  0.8408  1.0000
  C   C54       1.0  0.2335  0.9111000000000001  0.6915999999999999  1.0000
  C   C55       1.0  0.3803  0.6916  0.46669999999999995  1.0000
  C   C56       1.0  0.4917  0.6905  0.4515999999999999  1.0000
  C   C57       1.0  0.0714  0.5833  0.3554  1.0000
  C   C58       1.0  0.0713  0.531  0.3156  1.0000
  C   C59       1.0  0.1342  0.5318  0.2626  1.0000
  C   C60       1.0  0.1963  0.5882  0.24869999999999998  1.0000
  C   C61       1.0  0.1941  0.6414  0.2878  1.0000
  C   C62       1.0  0.1333  0.6384  0.34079999999999994  1.0000
  C   C63       1.0  0.2665  0.5889  0.19159999999999996  1.0000
  C   C64       1.0  0.8803  0.3084  0.0333  1.0000
  C   C65       1.0  0.9917  0.3095  0.0484  1.0000
  C   C66       1.0  0.5714  0.4167  0.1446  1.0000
  C   C67       1.0  0.5713  0.46900000000000003  0.1844  1.0000
  C   C68       1.0  0.6342  0.4682  0.23739999999999994  1.0000
  C   C69       1.0  0.6963  0.4118  0.2513  1.0000
  C   C70       1.0  0.6941  0.3586  0.2122  1.0000
  C   C71       1.0  0.6333  0.3616  0.1592  1.0000
  C   C72       1.0  0.7665  0.4111  0.3084  1.0000
  C   C73       1.0  0.3207  0.75  0.4760999999999999  1.0000
  C   C74       1.0  0.5473  0.75  0.4450999999999999  1.0000
  C   C75       1.0  0.6698000000000001  0.75  0.43529999999999996  1.0000
  C   C76       1.0  0.8207  0.25  0.023899999999999998  1.0000
  C   C77       1.0  0.0473  0.25  0.05489999999999999  1.0000
  C   C78       1.0  0.16980000000000003  0.25  0.06469999999999998  1.0000
  C   C79       1.0  0.6793  0.25  0.5239  1.0000
  C   C80       1.0  0.4527  0.25  0.5548999999999998  1.0000
  C   C81       1.0  0.3302  0.25  0.5647  1.0000
  C   C82       1.0  0.1793  0.75  0.9761  1.0000
  C   C83       1.0  0.9527000000000001  0.75  0.9450999999999999  1.0000
  C   C84       1.0  0.8302  0.75  0.9353  1.0000
  O   O1        1.0  0.0014  0.8952  0.5957  1.0000
  O   O2        1.0  0.1652  0.8111  0.5426  1.0000
  O   O3        1.0  0.7241000000000001  0.8039999999999999  0.43369999999999986  1.0000
  O   O4        1.0  0.09149999999999998  0.9367  0.4733999999999999  1.0000
  O   O5        1.0  0.9125  0.9762  0.42419999999999997  1.0000
  O   O6        1.0  0.9424  0.8589  0.441  1.0000
  O   O7        1.0  0.2848  0.8581999999999999  0.16319999999999998  1.0000
  O   O8        1.0  0.3026  0.9645000000000001  0.16999999999999998  1.0000
  O   O9        1.0  0.5014  0.1048  0.9043  1.0000
  O   O10       1.0  0.6652  0.1889  0.9574  1.0000
  O   O11       1.0  0.2241  0.19600000000000004  0.0663  1.0000
  O   O12       1.0  0.5915  0.0633  0.0266  1.0000
  O   O13       1.0  0.4125  0.0238  0.0758  1.0000
  O   O14       1.0  0.4424  0.1411  0.05899999999999999  1.0000
  O   O15       1.0  0.7848  0.1418  0.33679999999999993  1.0000
  O   O16       1.0  0.8025999999999999  0.0355  0.32999999999999996  1.0000
  O   O17       1.0  0.9986000000000002  0.3952  0.4042999999999999  1.0000
  O   O18       1.0  0.8348  0.3111  0.4574  1.0000
  O   O19       1.0  0.2759  0.304  0.5663  1.0000
  O   O20       1.0  0.9085  0.4367  0.5266  1.0000
  O   O21       1.0  0.0875  0.4762  0.5758  1.0000
  O   O22       1.0  0.0576  0.3589  0.559  1.0000
  O   O23       1.0  0.7151999999999998  0.3582  0.8367999999999999  1.0000
  O   O24       1.0  0.6974  0.4645  0.8299999999999998  1.0000
  O   O25       1.0  0.4986  0.6048  0.0957  1.0000
  O   O26       1.0  0.33479999999999993  0.6889  0.04259999999999999  1.0000
  O   O27       1.0  0.7759  0.696  0.9336999999999998  1.0000
  O   O28       1.0  0.4085  0.5633  0.9733999999999999  1.0000
  O   O29       1.0  0.5875  0.5238  0.9242  1.0000
  O   O30       1.0  0.5576  0.6411  0.941  1.0000
  O   O31       1.0  0.21519999999999997  0.6418  0.6631999999999999  1.0000
  O   O32       1.0  0.1974  0.5355  0.6699999999999999  1.0000
  O   O33       1.0  0.9986000000000002  0.1048  0.4042999999999999  1.0000
  O   O34       1.0  0.8348  0.1889  0.4574  1.0000
  O   O35       1.0  0.2759  0.19600000000000004  0.5663  1.0000
  O   O36       1.0  0.9085  0.0633  0.5266  1.0000
  O   O37       1.0  0.0875  0.0238  0.5758  1.0000
  O   O38       1.0  0.0576  0.1411  0.559  1.0000
  O   O39       1.0  0.7151999999999998  0.1418  0.8367999999999999  1.0000
  O   O40       1.0  0.6974  0.0355  0.8299999999999998  1.0000
  O   O41       1.0  0.4986  0.8952  0.0957  1.0000
  O   O42       1.0  0.33479999999999993  0.8111  0.04259999999999999  1.0000
  O   O43       1.0  0.7759  0.8039999999999999  0.9336999999999998  1.0000
  O   O44       1.0  0.4085  0.9367  0.9733999999999999  1.0000
  O   O45       1.0  0.5875  0.9762  0.9242  1.0000
  O   O46       1.0  0.5576  0.8589  0.941  1.0000
  O   O47       1.0  0.21519999999999997  0.8581999999999999  0.6631999999999999  1.0000
  O   O48       1.0  0.1974  0.9645000000000001  0.6699999999999999  1.0000
  O   O49       1.0  0.0014  0.6048  0.5957  1.0000
  O   O50       1.0  0.1652  0.6889  0.5426  1.0000
  O   O51       1.0  0.7241000000000001  0.696  0.43369999999999986  1.0000
  O   O52       1.0  0.09149999999999998  0.5633  0.4733999999999999  1.0000
  O   O53       1.0  0.9125  0.5238  0.42419999999999997  1.0000
  O   O54       1.0  0.9424  0.6411  0.441  1.0000
  O   O55       1.0  0.2848  0.6418  0.16319999999999998  1.0000
  O   O56       1.0  0.3026  0.5355  0.16999999999999998  1.0000
  O   O57       1.0  0.5014  0.3952  0.9043  1.0000
  O   O58       1.0  0.6652  0.3111  0.9574  1.0000
  O   O59       1.0  0.2241  0.304  0.0663  1.0000
  O   O60       1.0  0.5915  0.4367  0.0266  1.0000
  O   O61       1.0  0.4125  0.4762  0.0758  1.0000
  O   O62       1.0  0.4424  0.3589  0.05899999999999999  1.0000
  O   O63       1.0  0.7848  0.3582  0.33679999999999993  1.0000
  O   O64       1.0  0.8025999999999999  0.4645  0.32999999999999996  1.0000
  O   O65       1.0  0.8925  0.75  0.5208  1.0000
  O   O66       1.0  0.1021  0.75  0.45019999999999993  1.0000
  O   O67       1.0  0.3925  0.25  0.9791999999999998  1.0000
  O   O68       1.0  0.6021  0.25  0.04979999999999999  1.0000
  O   O69       1.0  0.1075  0.25  0.4791999999999999  1.0000
  O   O70       1.0  0.8979  0.25  0.5498  1.0000
  O   O71       1.0  0.6075  0.75  0.0208  1.0000
  O   O72       1.0  0.3979  0.75  0.9501999999999998  1.0000
