data_image0
_chemical_formula_structural       Al16H80C128O80
_chemical_formula_sum              "Al16 H80 C128 O80"
_cell_length_a       21.63717
_cell_length_b       21.63649
_cell_length_c       10.288049999999998
_cell_angle_alpha    90.00093999999999
_cell_angle_beta     89.99906
_cell_angle_gamma    90.00852000000002

_space_group_name_H-M_alt    "P 1"
_space_group_IT_number       1

loop_
  _space_group_symop_operation_xyz
  'x, y, z'

loop_
  _atom_site_type_symbol
  _atom_site_label
  _atom_site_symmetry_multiplicity
  _atom_site_fract_x
  _atom_site_fract_y
  _atom_site_fract_z
  _atom_site_occupancy
  Al  Al1       1.0  0.68004  0.99958  0.0014199999999999998  1.0000
  Al  Al2       1.0  0.32008000000000003  0.99959  0.0015799999999999998  1.0000
  Al  Al3       1.0  0.75038  0.9299599999999999  0.75129  1.0000
  Al  Al4       1.0  0.24963000000000002  0.92999  0.75144  1.0000
  Al  Al5       1.0  0.7497000000000001  0.07002  0.25132  1.0000
  Al  Al6       1.0  0.25033  0.07003  0.2515  1.0000
  Al  Al7       1.0  0.17992000000000002  0.0004299999999999997  0.50156  1.0000
  Al  Al8       1.0  0.82005  0.00036999999999999994  0.50129  1.0000
  Al  Al9       1.0  0.24969000000000005  0.5700199999999999  0.75075  1.0000
  Al  Al10      1.0  0.18003  0.4997699999999999  0.50071  1.0000
  Al  Al11      1.0  0.2503  0.43012  0.2506399999999999  1.0000
  Al  Al12      1.0  0.7504400000000002  0.57007  0.75147  1.0000
  Al  Al13      1.0  0.6799200000000001  0.5004  0.00147  1.0000
  Al  Al14      1.0  0.7495200000000002  0.4299499999999999  0.25154999999999994  1.0000
  Al  Al15      1.0  0.32003  0.50031  0.0006499999999999999  1.0000
  Al  Al16      1.0  0.8200100000000001  0.4995599999999999  0.5015099999999999  1.0000
  H   H1        1.0  0.72037  0.49736  0.58576  1.0000
  H   H2        1.0  0.74744  0.5297  0.33588  1.0000
  H   H3        1.0  0.24714  0.02977  0.8365699999999999  1.0000
  H   H4        1.0  0.28  0.49841999999999986  0.58337  1.0000
  H   H5        1.0  0.2512400000000001  0.53032  0.33238  1.0000
  H   H6        1.0  0.75236  0.47025999999999996  0.8354299999999999  1.0000
  H   H7        1.0  0.7797400000000002  0.50213  0.08524  1.0000
  H   H8        1.0  0.24794000000000002  0.47009  0.83379  1.0000
  H   H9        1.0  0.7481700000000001  0.9701299999999998  0.33459  1.0000
  H   H10       1.0  0.7800300000000002  0.9986  0.08408  1.0000
  H   H11       1.0  0.7517300000000001  0.02986  0.83445  1.0000
  H   H12       1.0  0.72015  0.00178  0.5844499999999999  1.0000
  H   H13       1.0  0.22041000000000005  0.99631  0.08687  1.0000
  H   H14       1.0  0.27963  0.00327  0.58638  1.0000
  H   H15       1.0  0.25291  0.97024  0.33663  1.0000
  H   H16       1.0  0.22005  0.50173  0.08279  1.0000
  H   H17       1.0  0.59942  0.91623  0.52625  1.0000
  H   H18       1.0  0.4  0.9162099999999997  0.52664  1.0000
  H   H19       1.0  0.49975000000000014  0.98171  0.86094  1.0000
  H   H20       1.0  0.49969000000000013  0.8983899999999999  0.40936  1.0000
  H   H21       1.0  0.60003  0.08509999999999998  0.47141  1.0000
  H   H22       1.0  0.4004400000000001  0.0853  0.4715299999999999  1.0000
  H   H23       1.0  0.50014  0.01975  0.13718  1.0000
  H   H24       1.0  0.50026  0.10263  0.5890099999999999  1.0000
  H   H25       1.0  0.09965000000000002  0.91523  0.97192  1.0000
  H   H26       1.0  0.90006  0.91502  0.97168  1.0000
  H   H27       1.0  0.99984  0.98055  0.63755  1.0000
  H   H28       1.0  0.9998600000000001  0.8978199999999998  0.08944  1.0000
  H   H29       1.0  0.10005000000000001  0.08418999999999999  0.026819999999999993  1.0000
  H   H30       1.0  0.90063  0.0843  0.02605  1.0000
  H   H31       1.0  9e-05  0.01776  0.36002999999999996  1.0000
  H   H32       1.0  0.00043  0.1023  0.9095299999999997  1.0000
  H   H33       1.0  0.16604  0.8501099999999999  0.27686  1.0000
  H   H34       1.0  0.16587  0.65068  0.27603  1.0000
  H   H35       1.0  0.23198000000000002  0.7501499999999999  0.6104  1.0000
  H   H36       1.0  0.14802  0.7504899999999999  0.15939  1.0000
  H   H37       1.0  0.16499000000000003  0.15046  0.72161  1.0000
  H   H38       1.0  0.16498  0.35006  0.72134  1.0000
  H   H39       1.0  0.23048000000000002  0.25016  0.38721999999999995  1.0000
  H   H40       1.0  0.14764  0.2503  0.8391099999999999  1.0000
  H   H41       1.0  0.6651700000000002  0.84985  0.22163  1.0000
  H   H42       1.0  0.66507  0.6502799999999999  0.22178  1.0000
  H   H43       1.0  0.73028  0.75001  0.88718  1.0000
  H   H44       1.0  0.6477800000000001  0.75009  0.33931  1.0000
  H   H45       1.0  0.66583  0.15038  0.77622  1.0000
  H   H46       1.0  0.66571  0.34981  0.7767699999999998  1.0000
  H   H47       1.0  0.7321600000000001  0.25  0.11014  1.0000
  H   H48       1.0  0.6477100000000001  0.25014  0.65957  1.0000
  H   H49       1.0  0.33482  0.84968  0.22146999999999994  1.0000
  H   H50       1.0  0.3350600000000001  0.65009  0.22134  1.0000
  H   H51       1.0  0.26952000000000004  0.7498199999999999  0.8871  1.0000
  H   H52       1.0  0.35224  0.7499099999999999  0.33910999999999997  1.0000
  H   H53       1.0  0.33441000000000004  0.14993  0.77702  1.0000
  H   H54       1.0  0.33412000000000003  0.34939  0.7759  1.0000
  H   H55       1.0  0.26782000000000006  0.24992  0.1101  1.0000
  H   H56       1.0  0.3523200000000001  0.24954999999999997  0.65952  1.0000
  H   H57       1.0  0.8342  0.84948  0.27620999999999996  1.0000
  H   H58       1.0  0.83439  0.6499999999999999  0.27705  1.0000
  H   H59       1.0  0.7678900000000001  0.74992  0.61023  1.0000
  H   H60       1.0  0.8523700000000001  0.74967  0.15969999999999998  1.0000
  H   H61       1.0  0.8352100000000002  0.15014999999999998  0.72157  1.0000
  H   H62       1.0  0.8347900000000001  0.34973  0.72173  1.0000
  H   H63       1.0  0.76934  0.24979999999999997  0.38755  1.0000
  H   H64       1.0  0.8523  0.24998  0.83937  1.0000
  H   H65       1.0  0.09938000000000001  0.41605  0.02598  1.0000
  H   H66       1.0  0.89994  0.41619  0.02659999999999999  1.0000
  H   H67       1.0  0.9999000000000001  0.48194  0.36048  1.0000
  H   H68       1.0  0.9995700000000001  0.39827999999999997  0.9091799999999999  1.0000
  H   H69       1.0  0.10002  0.58485  0.9714399999999999  1.0000
  H   H70       1.0  0.9004500000000002  0.58544  0.9712099999999998  1.0000
  H   H71       1.0  0.00015  0.5195299999999999  0.6372  1.0000
  H   H72       1.0  0.00026  0.6025599999999999  0.08895  1.0000
  H   H73       1.0  0.5995400000000001  0.41486999999999996  0.47158  1.0000
  H   H74       1.0  0.39995000000000014  0.4149999999999999  0.47131999999999996  1.0000
  H   H75       1.0  0.4998500000000001  0.48067  0.13742  1.0000
  H   H76       1.0  0.4997000000000001  0.39754999999999996  0.58904  1.0000
  H   H77       1.0  0.59998  0.5839699999999999  0.52643  1.0000
  H   H78       1.0  0.40055  0.58425  0.52602  1.0000
  H   H79       1.0  0.5000900000000001  0.51769  0.8598499999999999  1.0000
  H   H80       1.0  0.50033  0.60208  0.4091999999999999  1.0000
  C   C1        1.0  0.55548  0.9263799999999999  0.57284  1.0000
  C   C2        1.0  0.55582  0.9501399999999998  0.69997  1.0000
  C   C3        1.0  0.61578  0.9583499999999999  0.7694399999999999  1.0000
  C   C4        1.0  0.49989  0.96333  0.76256  1.0000
  C   C5        1.0  0.49974  0.9156599999999998  0.50862  1.0000
  C   C6        1.0  0.44404  0.9263499999999998  0.5729099999999999  1.0000
  C   C7        1.0  0.44396000000000013  0.9501399999999998  0.69997  1.0000
  C   C8        1.0  0.38411000000000006  0.9583599999999999  0.7695599999999998  1.0000
  C   C9        1.0  0.5559500000000002  0.07506  0.42517  1.0000
  C   C10       1.0  0.55604  0.05146  0.29795  1.0000
  C   C11       1.0  0.6158000000000001  0.04333  0.22824  1.0000
  C   C12       1.0  0.50012  0.03821  0.23547999999999997  1.0000
  C   C13       1.0  0.50022  0.08562999999999998  0.48954  1.0000
  C   C14       1.0  0.44446  0.07517  0.42515999999999987  1.0000
  C   C15       1.0  0.44422000000000006  0.05154  0.29796  1.0000
  C   C16       1.0  0.3843900000000001  0.043379999999999995  0.22834  1.0000
  C   C17       1.0  0.05562000000000002  0.9252599999999999  0.92553  1.0000
  C   C18       1.0  0.05582  0.94877  0.7982399999999998  1.0000
  C   C19       1.0  0.11564000000000002  0.9567499999999998  0.72847  1.0000
  C   C20       1.0  0.9999100000000001  0.9620699999999999  0.73581  1.0000
  C   C21       1.0  0.9998700000000001  0.9148  0.9899499999999999  1.0000
  C   C22       1.0  0.9441200000000001  0.92521  0.9255  1.0000
  C   C23       1.0  0.944  0.94878  0.79827  1.0000
  C   C24       1.0  0.8842500000000002  0.9567499999999998  0.72835  1.0000
  C   C25       1.0  0.05600000000000001  0.07389  0.07287  1.0000
  C   C26       1.0  0.05606  0.049789999999999994  0.19969999999999996  1.0000
  C   C27       1.0  0.11588  0.04159999999999999  0.26944999999999997  1.0000
  C   C28       1.0  8e-05  0.03645  0.26192999999999994  1.0000
  C   C29       1.0  0.00032  0.08475  0.00859  1.0000
  C   C30       1.0  0.9445400000000002  0.07394  0.07259999999999998  1.0000
  C   C31       1.0  0.94417  0.049859999999999995  0.19947999999999996  1.0000
  C   C32       1.0  0.8842400000000002  0.04164  0.26909  1.0000
  C   C33       1.0  0.17623  0.80605  0.32291999999999993  1.0000
  C   C34       1.0  0.20018000000000002  0.8061299999999998  0.44984999999999997  1.0000
  C   C35       1.0  0.20838000000000007  0.86595  0.51957  1.0000
  C   C36       1.0  0.21344000000000002  0.75016  0.5121699999999999  1.0000
  C   C37       1.0  0.16544  0.75038  0.25855  1.0000
  C   C38       1.0  0.17617000000000002  0.6946  0.3226  1.0000
  C   C39       1.0  0.20010000000000003  0.69425  0.4495799999999999  1.0000
  C   C40       1.0  0.20831000000000005  0.63429  0.5189999999999999  1.0000
  C   C41       1.0  0.17510000000000003  0.19448  0.6752199999999999  1.0000
  C   C42       1.0  0.19868000000000002  0.19424  0.54798  1.0000
  C   C43       1.0  0.20669000000000004  0.1344  0.47829999999999995  1.0000
  C   C44       1.0  0.21198000000000003  0.25016  0.48548  1.0000
  C   C45       1.0  0.16462  0.25025  0.7396  1.0000
  C   C46       1.0  0.17511000000000002  0.30598999999999993  0.67515  1.0000
  C   C47       1.0  0.19871000000000005  0.30609  0.5479099999999999  1.0000
  C   C48       1.0  0.20675  0.36586  0.47801  1.0000
  C   C49       1.0  0.67519  0.8057899999999999  0.17534  1.0000
  C   C50       1.0  0.6987  0.80593  0.04805  1.0000
  C   C51       1.0  0.7067200000000001  0.8657099999999999  0.9782899999999999  1.0000
  C   C52       1.0  0.71191  0.7500199999999999  0.98554  1.0000
  C   C53       1.0  0.6647100000000001  0.75006  0.23978999999999998  1.0000
  C   C54       1.0  0.67514  0.69431  0.17539  1.0000
  C   C55       1.0  0.6986500000000001  0.69412  0.04810999999999999  1.0000
  C   C56       1.0  0.7066800000000001  0.63433  0.9784199999999997  1.0000
  C   C57       1.0  0.67611  0.19434  0.82269  1.0000
  C   C58       1.0  0.70017  0.19408  0.9495599999999998  1.0000
  C   C59       1.0  0.7084  0.13417  0.01919  1.0000
  C   C60       1.0  0.7135200000000003  0.25001  0.012009999999999998  1.0000
  C   C61       1.0  0.6652400000000002  0.25009  0.7586399999999998  1.0000
  C   C62       1.0  0.67604  0.3058  0.8229199999999999  1.0000
  C   C63       1.0  0.70013  0.3059799999999999  0.94975  1.0000
  C   C64       1.0  0.7083500000000001  0.36585  0.019429999999999996  1.0000
  C   C65       1.0  0.32479  0.80561  0.17519  1.0000
  C   C66       1.0  0.30129  0.8057899999999999  0.04790999999999999  1.0000
  C   C67       1.0  0.29331  0.86562  0.9782699999999999  1.0000
  C   C68       1.0  0.28799  0.74989  0.9853999999999998  1.0000
  C   C69       1.0  0.33530000000000004  0.74988  0.23959999999999995  1.0000
  C   C70       1.0  0.3249  0.69413  0.17511  1.0000
  C   C71       1.0  0.30130000000000007  0.69398  0.04787999999999999  1.0000
  C   C72       1.0  0.29329000000000005  0.63421  0.9780399999999998  1.0000
  C   C73       1.0  0.32400000000000007  0.19399  0.8229399999999999  1.0000
  C   C74       1.0  0.2998700000000001  0.19391999999999998  0.94973  1.0000
  C   C75       1.0  0.29162  0.13408  0.01945  1.0000
  C   C76       1.0  0.2865  0.24989999999999998  0.011969999999999998  1.0000
  C   C77       1.0  0.33479  0.24967  0.75859  1.0000
  C   C78       1.0  0.32391  0.30546  0.82253  1.0000
  C   C79       1.0  0.2998700000000001  0.30581  0.94943  1.0000
  C   C80       1.0  0.29164  0.36576  0.018899999999999997  1.0000
  C   C81       1.0  0.8239600000000002  0.80553  0.32275  1.0000
  C   C82       1.0  0.79992  0.80586  0.4496399999999999  1.0000
  C   C83       1.0  0.7916400000000001  0.86579  0.51917  1.0000
  C   C84       1.0  0.78656  0.7499399999999999  0.51211  1.0000
  C   C85       1.0  0.8348300000000001  0.74976  0.2587499999999999  1.0000
  C   C86       1.0  0.8240100000000001  0.6940599999999999  0.32302  1.0000
  C   C87       1.0  0.79989  0.69397  0.44982  1.0000
  C   C88       1.0  0.7916300000000002  0.63412  0.51949  1.0000
  C   C89       1.0  0.8249400000000001  0.19418  0.6753999999999999  1.0000
  C   C90       1.0  0.80129  0.19403  0.54822  1.0000
  C   C91       1.0  0.7933100000000002  0.13426  0.47837  1.0000
  C   C92       1.0  0.7879000000000002  0.24992  0.48576  1.0000
  C   C93       1.0  0.83532  0.24994  0.73987  1.0000
  C   C94       1.0  0.8247500000000002  0.30567  0.67545  1.0000
  C   C95       1.0  0.8012000000000001  0.30584  0.54819  1.0000
  C   C96       1.0  0.79324  0.36565  0.47842  1.0000
  C   C97       1.0  0.05544000000000001  0.42631  0.07251  1.0000
  C   C98       1.0  0.05579  0.45017  0.19955999999999996  1.0000
  C   C99       1.0  0.11575000000000003  0.45836999999999994  0.26903999999999995  1.0000
  C   C100      1.0  0.9998900000000001  0.46344999999999986  0.26219  1.0000
  C   C101      1.0  0.99967  0.41561  0.0084  1.0000
  C   C102      1.0  0.94399  0.42634999999999995  0.0728  1.0000
  C   C103      1.0  0.9439100000000001  0.45021  0.19981999999999997  1.0000
  C   C104      1.0  0.88406  0.4583899999999999  0.2695  1.0000
  C   C105      1.0  0.055950000000000014  0.57487  0.9251399999999999  1.0000
  C   C106      1.0  0.05605  0.5512899999999998  0.7979  1.0000
  C   C107      1.0  0.11582  0.54326  0.7280499999999998  1.0000
  C   C108      1.0  0.00012000000000000003  0.53807  0.73542  1.0000
  C   C109      1.0  0.00023000000000000003  0.58555  0.9894699999999997  1.0000
  C   C110      1.0  0.94447  0.57518  0.9249999999999999  1.0000
  C   C111      1.0  0.9442300000000001  0.55148  0.7978599999999999  1.0000
  C   C112      1.0  0.88437  0.54335  0.72832  1.0000
  C   C113      1.0  0.55551  0.42505  0.4252699999999999  1.0000
  C   C114      1.0  0.55575  0.44869  0.29808  1.0000
  C   C115      1.0  0.61558  0.4566899999999999  0.22840999999999997  1.0000
  C   C116      1.0  0.4998600000000001  0.46208999999999995  0.23561999999999997  1.0000
  C   C117      1.0  0.49974  0.41457999999999995  0.4895999999999999  1.0000
  C   C118      1.0  0.44402  0.42511999999999994  0.4251499999999999  1.0000
  C   C119      1.0  0.44393000000000005  0.44879  0.2979999999999999  1.0000
  C   C120      1.0  0.38419000000000003  0.45678  0.22806999999999997  1.0000
  C   C121      1.0  0.55594  0.57371  0.57257  1.0000
  C   C122      1.0  0.55604  0.5497  0.69947  1.0000
  C   C123      1.0  0.6158700000000001  0.54157  0.7693299999999997  1.0000
  C   C124      1.0  0.5000600000000001  0.53636  0.76174  1.0000
  C   C125      1.0  0.50026  0.58459  0.5083099999999999  1.0000
  C   C126      1.0  0.44449  0.57385  0.57243  1.0000
  C   C127      1.0  0.44415000000000004  0.54979  0.6993  1.0000
  C   C128      1.0  0.3842  0.54162  0.76884  1.0000
  O   O1        1.0  0.7441100000000002  0.9912999999999998  0.8801999999999998  1.0000
  O   O2        1.0  0.61582  0.9907099999999999  0.8733199999999999  1.0000
  O   O3        1.0  0.6625300000000001  0.9311999999999999  0.7186199999999999  1.0000
  O   O4        1.0  0.38411000000000006  0.99072  0.87343  1.0000
  O   O5        1.0  0.3373800000000001  0.93119  0.7187399999999998  1.0000
  O   O6        1.0  0.7414800000000003  0.00589  0.13013999999999998  1.0000
  O   O7        1.0  0.61599  0.0095  0.12611999999999998  1.0000
  O   O8        1.0  0.6812  0.08740999999999999  0.96851  1.0000
  O   O9        1.0  0.67825  0.91211  0.025919999999999995  1.0000
  O   O10       1.0  0.66222  0.07177  0.27579999999999993  1.0000
  O   O11       1.0  0.38422  0.009579999999999998  0.12614  1.0000
  O   O12       1.0  0.33793  0.07174  0.27598  1.0000
  O   O13       1.0  0.24100000000000002  0.99407  0.6304999999999998  1.0000
  O   O14       1.0  0.11583000000000003  0.9904699999999999  0.6261799999999997  1.0000
  O   O15       1.0  0.16205  0.92829  0.7760399999999998  1.0000
  O   O16       1.0  0.8840800000000002  0.99049  0.62608  1.0000
  O   O17       1.0  0.8378600000000002  0.9282099999999999  0.7758299999999998  1.0000
  O   O18       1.0  0.24411000000000005  0.00896  0.38074999999999987  1.0000
  O   O19       1.0  0.11587000000000001  0.00929  0.37340999999999996  1.0000
  O   O20       1.0  0.17824000000000004  0.08798  0.526  1.0000
  O   O21       1.0  0.18119  0.91268  0.46879999999999994  1.0000
  O   O22       1.0  0.16261  0.06879  0.21866  1.0000
  O   O23       1.0  0.88418  0.009249999999999998  0.37294  1.0000
  O   O24       1.0  0.83748  0.06884  0.21846999999999997  1.0000
  O   O25       1.0  0.24072000000000005  0.86589  0.6234599999999999  1.0000
  O   O26       1.0  0.24076000000000003  0.63418  0.62274  1.0000
  O   O27       1.0  0.18109  0.58755  0.46834  1.0000
  O   O28       1.0  0.25591  0.9910399999999999  0.8806699999999998  1.0000
  O   O29       1.0  0.25954000000000005  0.86585  0.87608  1.0000
  O   O30       1.0  0.24044  0.13415  0.37607  1.0000
  O   O31       1.0  0.24048000000000005  0.36604  0.37576999999999994  1.0000
  O   O32       1.0  0.17827  0.41227999999999987  0.5255699999999999  1.0000
  O   O33       1.0  0.25901  0.00591  0.13064999999999996  1.0000
  O   O34       1.0  0.25926  0.13411  0.1233  1.0000
  O   O35       1.0  0.7404700000000001  0.8659299999999999  0.87605  1.0000
  O   O36       1.0  0.7404700000000001  0.63413  0.87625  1.0000
  O   O37       1.0  0.67818  0.58793  0.02603  1.0000
  O   O38       1.0  0.75871  0.9941099999999999  0.6301499999999999  1.0000
  O   O39       1.0  0.7592400000000001  0.86583  0.6229899999999999  1.0000
  O   O40       1.0  0.7407600000000001  0.13415  0.12305999999999999  1.0000
  O   O41       1.0  0.7407200000000002  0.36586  0.1233  1.0000
  O   O42       1.0  0.68117  0.41259999999999997  0.96869  1.0000
  O   O43       1.0  0.75592  0.00869  0.38025999999999993  1.0000
  O   O44       1.0  0.7595600000000001  0.13407  0.37611999999999995  1.0000
  O   O45       1.0  0.32178  0.9120299999999999  0.02596  1.0000
  O   O46       1.0  0.25955  0.63404  0.8757999999999999  1.0000
  O   O47       1.0  0.32178  0.5878  0.025599999999999998  1.0000
  O   O48       1.0  0.31883  0.08733999999999999  0.96875  1.0000
  O   O49       1.0  0.25921  0.36585  0.12264999999999998  1.0000
  O   O50       1.0  0.31887  0.41251  0.96826  1.0000
  O   O51       1.0  0.81884  0.91256  0.46849999999999997  1.0000
  O   O52       1.0  0.75929  0.63414  0.6234  1.0000
  O   O53       1.0  0.8187800000000001  0.5873599999999999  0.46873  1.0000
  O   O54       1.0  0.8218100000000002  0.08786  0.5259  1.0000
  O   O55       1.0  0.7595300000000001  0.3658799999999999  0.37613  1.0000
  O   O56       1.0  0.82175  0.41203999999999996  0.52605  1.0000
  O   O57       1.0  0.24396000000000004  0.49183999999999994  0.37871  1.0000
  O   O58       1.0  0.11582  0.49077999999999994  0.37285  1.0000
  O   O59       1.0  0.16249000000000005  0.43115  0.21836999999999998  1.0000
  O   O60       1.0  0.8840900000000002  0.49071999999999993  0.37342  1.0000
  O   O61       1.0  0.83733  0.43121  0.21872999999999998  1.0000
  O   O62       1.0  0.24146000000000004  0.5059799999999999  0.62927  1.0000
  O   O63       1.0  0.11599000000000001  0.50952  0.6258  1.0000
  O   O64       1.0  0.16222  0.57175  0.7755999999999997  1.0000
  O   O65       1.0  0.8841200000000001  0.50956  0.6261399999999999  1.0000
  O   O66       1.0  0.83796  0.5717599999999999  0.77608  1.0000
  O   O67       1.0  0.74115  0.49408  0.13054  1.0000
  O   O68       1.0  0.61585  0.49046  0.1262  1.0000
  O   O69       1.0  0.66198  0.42821999999999993  0.27604  1.0000
  O   O70       1.0  0.38403000000000004  0.49049  0.12577  1.0000
  O   O71       1.0  0.33778  0.42827  0.2756  1.0000
  O   O72       1.0  0.74408  0.50887  0.88052  1.0000
  O   O73       1.0  0.6158100000000001  0.50928  0.8733199999999999  1.0000
  O   O74       1.0  0.66261  0.56881  0.7187  1.0000
  O   O75       1.0  0.38414  0.5092  0.87264  1.0000
  O   O76       1.0  0.33747  0.56887  0.7182999999999998  1.0000
  O   O77       1.0  0.75579  0.49108  0.38078  1.0000
  O   O78       1.0  0.7589500000000001  0.50585  0.63073  1.0000
  O   O79       1.0  0.25849000000000005  0.49404999999999993  0.12895  1.0000
  O   O80       1.0  0.25593  0.50863  0.8793299999999998  1.0000
