data_image0
_chemical_formula_structural       Nd4H8C20O24
_chemical_formula_sum              "Nd4 H8 C20 O24"
_cell_length_a       9.1304
_cell_length_b       9.1304
_cell_length_c       14.709899999999998
_cell_angle_alpha    100.16900000000001
_cell_angle_beta     100.16900000000001
_cell_angle_gamma    115.539

_space_group_name_H-M_alt    "P 1"
_space_group_IT_number       1

loop_
  _space_group_symop_operation_xyz
  'x, y, z'

loop_
  _atom_site_type_symbol
  _atom_site_label
  _atom_site_symmetry_multiplicity
  _atom_site_fract_x
  _atom_site_fract_y
  _atom_site_fract_z
  _atom_site_occupancy
  Nd  Nd1       1.0  0.7405999999999998  0.9906  0.9812  1.0000
  Nd  Nd2       1.0  0.5094000000000001  0.7594000000000001  0.5188  1.0000
  Nd  Nd3       1.0  0.2594  0.009399999999999997  0.0188  1.0000
  Nd  Nd4       1.0  0.4905999999999999  0.24059999999999998  0.4812  1.0000
  H   H1        1.0  0.302  0.364  0.926  1.0000
  H   H2        1.0  0.12399999999999996  0.562  0.926  1.0000
  H   H3        1.0  0.13599999999999998  0.19799999999999995  0.574  1.0000
  H   H4        1.0  0.938  0.376  0.574  1.0000
  H   H5        1.0  0.698  0.636  0.074  1.0000
  H   H6        1.0  0.8759999999999999  0.438  0.074  1.0000
  H   H7        1.0  0.8639999999999998  0.8019999999999998  0.426  1.0000
  H   H8        1.0  0.06199999999999991  0.6239999999999998  0.426  1.0000
  C   C1        1.0  0.06091999999999998  0.24791999999999997  0.94164  1.0000
  C   C2        1.0  0.21370999999999993  0.3941099999999999  0.9350199999999997  1.0000
  C   C3        1.0  0.3807199999999999  0.6937199999999998  0.94164  1.0000
  C   C4        1.0  0.2213099999999998  0.5409099999999997  0.9350199999999997  1.0000
  C   C5        1.0  0.25208  0.4390799999999999  0.55836  1.0000
  C   C6        1.0  0.10588999999999994  0.28629  0.56498  1.0000
  C   C7        1.0  0.8062799999999997  0.11927999999999996  0.55836  1.0000
  C   C8        1.0  0.95909  0.27869  0.56498  1.0000
  C   C9        1.0  0.93908  0.7520799999999997  0.05836  1.0000
  C   C10       1.0  0.78629  0.60589  0.06498  1.0000
  C   C11       1.0  0.61928  0.30628  0.05836  1.0000
  C   C12       1.0  0.7786899999999999  0.45909  0.06498  1.0000
  C   C13       1.0  0.7479199999999999  0.5609199999999998  0.44164  1.0000
  C   C14       1.0  0.8941099999999996  0.7137099999999997  0.4350199999999999  1.0000
  C   C15       1.0  0.19372000000000003  0.88072  0.44164  1.0000
  C   C16       1.0  0.040909999999999856  0.7213099999999998  0.4350199999999999  1.0000
  C   C17       1.0  0.6752999999999999  0.8246999999999998  0.75  1.0000
  C   C18       1.0  0.5747  0.9252999999999999  0.75  1.0000
  C   C19       1.0  0.32469999999999993  0.1753  0.25  1.0000
  C   C20       1.0  0.4253  0.0747  0.25  1.0000
  O   O1        1.0  0.7622899999999999  0.8390699999999999  0.8299599999999999  1.0000
  O   O2        1.0  0.91736  0.23942  0.92398  1.0000
  O   O3        1.0  0.08430999999999997  0.13426999999999997  0.96738  1.0000
  O   O4        1.0  0.5676699999999999  0.9908899999999999  0.8299599999999999  1.0000
  O   O5        1.0  0.50662  0.6845599999999997  0.92398  1.0000
  O   O6        1.0  0.38306999999999997  0.83311  0.96738  1.0000
  O   O7        1.0  0.66093  0.73771  0.67004  1.0000
  O   O8        1.0  0.26058  0.58264  0.57602  1.0000
  O   O9        1.0  0.36573  0.41569  0.53262  1.0000
  O   O10       1.0  0.5091099999999997  0.93233  0.67004  1.0000
  O   O11       1.0  0.81544  0.99338  0.57602  1.0000
  O   O12       1.0  0.66689  0.11693  0.53262  1.0000
  O   O13       1.0  0.23770999999999995  0.16093  0.17003999999999994  1.0000
  O   O14       1.0  0.08264000000000002  0.76058  0.07602  1.0000
  O   O15       1.0  0.91569  0.86573  0.03262  1.0000
  O   O16       1.0  0.43233  0.009109999999999967  0.17003999999999994  1.0000
  O   O17       1.0  0.49337999999999993  0.3154399999999999  0.07602  1.0000
  O   O18       1.0  0.61693  0.16689  0.03262  1.0000
  O   O19       1.0  0.33907  0.26229  0.32996  1.0000
  O   O20       1.0  0.7394199999999999  0.41736  0.42397999999999997  1.0000
  O   O21       1.0  0.6342699999999998  0.58431  0.4673799999999999  1.0000
  O   O22       1.0  0.49089  0.06767  0.32996  1.0000
  O   O23       1.0  0.18455999999999995  0.006619999999999974  0.42397999999999997  1.0000
  O   O24       1.0  0.3331099999999999  0.88307  0.4673799999999999  1.0000
