data_image0
_chemical_formula_structural       Sm4H20C56N8O32
_chemical_formula_sum              "Sm4 H20 C56 N8 O32"
_cell_length_a       12.0648
_cell_length_b       12.3787
_cell_length_c       12.5148
_cell_angle_alpha    90.0
_cell_angle_beta     90.0
_cell_angle_gamma    115.069

_space_group_name_H-M_alt    "P 1"
_space_group_IT_number       1

loop_
  _space_group_symop_operation_xyz
  'x, y, z'

loop_
  _atom_site_type_symbol
  _atom_site_label
  _atom_site_symmetry_multiplicity
  _atom_site_fract_x
  _atom_site_fract_y
  _atom_site_fract_z
  _atom_site_occupancy
  Sm  Sm1       1.0  0.04033  0.35483  0.5507500000000001  1.0000
  Sm  Sm2       1.0  0.95967  0.14517  0.05075000000000002  1.0000
  Sm  Sm3       1.0  0.95967  0.64517  0.44925000000000004  1.0000
  Sm  Sm4       1.0  0.04033000000000005  0.85483  0.9492500000000003  1.0000
  H   H1        1.0  0.1296  0.1722  0.7176  1.0000
  H   H2        1.0  0.5663  0.24880000000000002  0.6456  1.0000
  H   H3        1.0  0.6995  0.0749  0.8385000000000002  1.0000
  H   H4        1.0  0.4045  0.1723  0.7177  1.0000
  H   H5        1.0  0.5121  0.9478  0.8701000000000002  1.0000
  H   H6        1.0  0.8704000000000002  0.3278  0.21760000000000004  1.0000
  H   H7        1.0  0.4337  0.2512  0.14560000000000003  1.0000
  H   H8        1.0  0.30050000000000004  0.42510000000000003  0.3385  1.0000
  H   H9        1.0  0.5955000000000003  0.3277  0.2177  1.0000
  H   H10       1.0  0.4879000000000001  0.5522  0.3701  1.0000
  H   H11       1.0  0.8704000000000002  0.8278  0.2824  1.0000
  H   H12       1.0  0.43370000000000003  0.7512000000000001  0.3544  1.0000
  H   H13       1.0  0.3005  0.9251  0.16150000000000006  1.0000
  H   H14       1.0  0.5954999999999999  0.8277  0.28230000000000005  1.0000
  H   H15       1.0  0.4879000000000001  0.0522  0.1299  1.0000
  H   H16       1.0  0.1296  0.6722  0.7824  1.0000
  H   H17       1.0  0.5663  0.7488  0.8544000000000003  1.0000
  H   H18       1.0  0.6995  0.5749  0.6615  1.0000
  H   H19       1.0  0.4045  0.6723  0.7823  1.0000
  H   H20       1.0  0.5121  0.4478  0.6299000000000001  1.0000
  C   C1        1.0  0.7758  0.39370000000000005  0.5523  1.0000
  C   C2        1.0  0.9351  0.17990000000000003  0.7728000000000003  1.0000
  C   C3        1.0  0.1645  0.0592  0.7689  1.0000
  C   C4        1.0  0.2916  0.8007  0.9554  1.0000
  C   C5        1.0  0.7469000000000001  0.2948  0.6294  1.0000
  C   C6        1.0  0.6301  0.2322  0.6702000000000002  1.0000
  C   C7        1.0  0.6078  0.1454  0.7469000000000001  1.0000
  C   C8        1.0  0.7087  0.1292  0.7841  1.0000
  C   C9        1.0  0.8215  0.1939  0.7397000000000002  1.0000
  C   C10       1.0  0.27190000000000003  0.0335  0.7922  1.0000
  C   C11       1.0  0.3886  0.1045  0.7585000000000001  1.0000
  C   C12       1.0  0.4822  0.0733  0.7861  1.0000
  C   C13       1.0  0.4519  0.9717  0.8493  1.0000
  C   C14       1.0  0.33230000000000004  0.9071  0.8807000000000003  1.0000
  C   C15       1.0  0.2242  0.1063  0.05230000000000001  1.0000
  C   C16       1.0  0.0649  0.3201  0.2728  1.0000
  C   C17       1.0  0.8355  0.4408  0.2689  1.0000
  C   C18       1.0  0.7084  0.6993  0.45540000000000014  1.0000
  C   C19       1.0  0.2531  0.2052  0.1294  1.0000
  C   C20       1.0  0.3699  0.2678  0.1702  1.0000
  C   C21       1.0  0.3922000000000001  0.3546  0.24690000000000006  1.0000
  C   C22       1.0  0.2913000000000001  0.3708000000000001  0.2841  1.0000
  C   C23       1.0  0.17850000000000002  0.3061  0.23970000000000005  1.0000
  C   C24       1.0  0.7281  0.4665  0.2922  1.0000
  C   C25       1.0  0.6114  0.3955  0.2585  1.0000
  C   C26       1.0  0.5178  0.4267  0.2861  1.0000
  C   C27       1.0  0.5481  0.5283  0.34930000000000005  1.0000
  C   C28       1.0  0.6677000000000002  0.5929  0.3807  1.0000
  C   C29       1.0  0.2242  0.6063  0.4477000000000001  1.0000
  C   C30       1.0  0.06489999999999997  0.8201  0.22720000000000007  1.0000
  C   C31       1.0  0.8355  0.9408  0.2311  1.0000
  C   C32       1.0  0.7084  0.1993  0.0446  1.0000
  C   C33       1.0  0.2531000000000001  0.7052  0.3706  1.0000
  C   C34       1.0  0.36989999999999995  0.7677999999999999  0.3298  1.0000
  C   C35       1.0  0.3922000000000001  0.8546000000000001  0.2531  1.0000
  C   C36       1.0  0.2913  0.8708  0.21590000000000004  1.0000
  C   C37       1.0  0.17850000000000002  0.8061  0.2603  1.0000
  C   C38       1.0  0.7281000000000001  0.9665000000000001  0.20780000000000007  1.0000
  C   C39       1.0  0.6114  0.8955  0.24150000000000002  1.0000
  C   C40       1.0  0.5178  0.9267  0.2139  1.0000
  C   C41       1.0  0.5481  0.0283  0.1507  1.0000
  C   C42       1.0  0.6677000000000002  0.09290000000000001  0.1193  1.0000
  C   C43       1.0  0.7758  0.8937000000000002  0.9477000000000002  1.0000
  C   C44       1.0  0.9351  0.6799  0.7272000000000001  1.0000
  C   C45       1.0  0.1645  0.5592  0.7311  1.0000
  C   C46       1.0  0.2916  0.3007  0.5446  1.0000
  C   C47       1.0  0.7469000000000001  0.7948  0.8706000000000003  1.0000
  C   C48       1.0  0.6301000000000001  0.7322000000000001  0.8298000000000001  1.0000
  C   C49       1.0  0.6078  0.6454  0.7531000000000002  1.0000
  C   C50       1.0  0.7087  0.6292  0.7159  1.0000
  C   C51       1.0  0.8215  0.6939  0.7603000000000001  1.0000
  C   C52       1.0  0.27190000000000003  0.5335  0.7078  1.0000
  C   C53       1.0  0.3886  0.6045  0.7415000000000003  1.0000
  C   C54       1.0  0.4822  0.5733  0.7139  1.0000
  C   C55       1.0  0.4519000000000001  0.47170000000000006  0.6507  1.0000
  C   C56       1.0  0.33230000000000004  0.4071  0.6193  1.0000
  N   N1        1.0  0.8412  0.2728  0.6602000000000001  1.0000
  N   N2        1.0  0.2428  0.9369  0.8518  1.0000
  N   N3        1.0  0.15880000000000002  0.22720000000000004  0.1602  1.0000
  N   N4        1.0  0.7572  0.5631  0.3518000000000001  1.0000
  N   N5        1.0  0.15880000000000005  0.7272000000000001  0.3398000000000001  1.0000
  N   N6        1.0  0.7572  0.0631  0.14820000000000003  1.0000
  N   N7        1.0  0.8412  0.7727999999999999  0.8398000000000002  1.0000
  N   N8        1.0  0.2428  0.4369  0.6482  1.0000
  O   O1        1.0  0.8813  0.4292  0.5047000000000001  1.0000
  O   O2        1.0  0.7053  0.4389  0.5405000000000001  1.0000
  O   O3        1.0  0.021100000000000015  0.2195  0.704  1.0000
  O   O4        1.0  0.9387  0.1357  0.8598000000000002  1.0000
  O   O5        1.0  0.06090000000000002  0.9845  0.7852000000000002  1.0000
  O   O6        1.0  0.19250000000000006  0.1649  0.7318  1.0000
  O   O7        1.0  0.1814  0.7631  0.9877000000000001  1.0000
  O   O8        1.0  0.3663  0.7614  0.9778000000000002  1.0000
  O   O9        1.0  0.11870000000000003  0.0708  0.004700000000000001  1.0000
  O   O10       1.0  0.2947  0.06110000000000001  0.040500000000000015  1.0000
  O   O11       1.0  0.9789000000000002  0.2805  0.204  1.0000
  O   O12       1.0  0.06130000000000002  0.36430000000000007  0.35980000000000006  1.0000
  O   O13       1.0  0.9391  0.5155  0.28520000000000006  1.0000
  O   O14       1.0  0.8075000000000002  0.3351  0.23180000000000006  1.0000
  O   O15       1.0  0.8186  0.7369  0.4877  1.0000
  O   O16       1.0  0.6337  0.7386000000000001  0.47780000000000006  1.0000
  O   O17       1.0  0.11870000000000004  0.5708  0.49530000000000013  1.0000
  O   O18       1.0  0.2947  0.5611  0.4595  1.0000
  O   O19       1.0  0.9789000000000002  0.7805  0.296  1.0000
  O   O20       1.0  0.06129999999999991  0.8642999999999998  0.1402  1.0000
  O   O21       1.0  0.9391  0.0155  0.2148  1.0000
  O   O22       1.0  0.8075000000000002  0.8351000000000001  0.2682  1.0000
  O   O23       1.0  0.8186  0.2369  0.012300000000000004  1.0000
  O   O24       1.0  0.6337  0.2386  0.022200000000000008  1.0000
  O   O25       1.0  0.8813  0.9292  0.9953000000000001  1.0000
  O   O26       1.0  0.7053  0.9389  0.9595  1.0000
  O   O27       1.0  0.02110000000000006  0.7195000000000001  0.796  1.0000
  O   O28       1.0  0.9387  0.6357  0.6402000000000002  1.0000
  O   O29       1.0  0.06090000000000002  0.4845  0.7148000000000001  1.0000
  O   O30       1.0  0.19249999999999998  0.6649  0.7682  1.0000
  O   O31       1.0  0.1814  0.2631  0.5123000000000001  1.0000
  O   O32       1.0  0.3663  0.2614  0.5222  1.0000
