data_image0
_chemical_formula_structural       C4O8Cd4C4O8H2OC4O8Cd4C4O8H2OCHCHCHC3HCHCHCHCHCHC3HCHCHCHCHCHC3HCHCHCHCHCHC3HCHCHCHCHCHC3HCHCHCHCHCHC3HCHCHCHCHCHC3HCHCHCHCHCHC3HCHCHC4O8Cd4C4O8H2OC4O8Cd4C4O8H2OCHCHCHC3HCHCHCHCHCHC3HCHCHCHCHCHC3HCHCHCHCHCHC3HCHCHCHCHCHC3HCHCHCHCHCHC3HCHCHCHCHCHC3HCHCHCHCHCHC3HCHCH
_chemical_formula_sum              "C160 O68 Cd16 H104"
_cell_length_a       14.911
_cell_length_b       14.95811
_cell_length_c       25.19513
_cell_angle_alpha    90.0
_cell_angle_beta     90.0
_cell_angle_gamma    89.99966

_space_group_name_H-M_alt    "P 1"
_space_group_IT_number       1

loop_
  _space_group_symop_operation_xyz
  'x, y, z'

loop_
  _atom_site_type_symbol
  _atom_site_label
  _atom_site_symmetry_multiplicity
  _atom_site_fract_x
  _atom_site_fract_y
  _atom_site_fract_z
  _atom_site_occupancy
  C   C1        1.0  0.80048  0.91738  0.07467999999999998  1.0000
  C   C2        1.0  0.20902000000000007  0.09654999999999997  0.07332999999999999  1.0000
  C   C3        1.0  0.91423  0.20913  0.07316  1.0000
  C   C4        1.0  0.09021  0.80391  0.07807999999999998  1.0000
  O   O1        1.0  0.87892  0.9292699999999998  0.05411999999999999  1.0000
  O   O2        1.0  0.12764  0.08188999999999998  0.05751999999999999  1.0000
  O   O3        1.0  0.92638  0.13017  0.05359  1.0000
  O   O4        1.0  0.07987  0.8815799999999998  0.05634  1.0000
  O   O5        1.0  0.74086  0.9766499999999999  0.06151  1.0000
  O   O6        1.0  0.26811  0.03704  0.05989999999999999  1.0000
  O   O7        1.0  0.97451  0.2679999999999999  0.06030999999999999  1.0000
  O   O8        1.0  0.03075  0.74453  0.06468  1.0000
  Cd  Cd1       1.0  0.9522800000000002  0.83094  0.00022  1.0000
  Cd  Cd2       1.0  0.05677  0.17829999999999993  0.99912  1.0000
  Cd  Cd3       1.0  0.82972  0.055829999999999984  0.99828  1.0000
  Cd  Cd4       1.0  0.17909  0.95337  0.00081  1.0000
  C   C5        1.0  0.80139  0.91422  0.9241899999999997  1.0000
  C   C6        1.0  0.2071  0.09001999999999998  0.9229099999999999  1.0000
  C   C7        1.0  0.91877  0.20565999999999995  0.9216299999999997  1.0000
  C   C8        1.0  0.09447  0.79972  0.92628  1.0000
  O   O9        1.0  0.8822500000000001  0.92803  0.9412799999999998  1.0000
  O   O10       1.0  0.12929  0.0794  0.94462  1.0000
  O   O11       1.0  0.92932  0.12799  0.9432599999999999  1.0000
  O   O12       1.0  0.08246  0.8787399999999997  0.9457299999999997  1.0000
  O   O13       1.0  0.74185  0.97288  0.93826  1.0000
  O   O14       1.0  0.26692  0.03128  0.93662  1.0000
  O   O15       1.0  0.97801  0.26516  0.93513  1.0000
  O   O16       1.0  0.03448  0.7408099999999997  0.9394699999999998  1.0000
  H   H1        1.0  0.08224  0.06376999999999997  0.08541  1.0000
  H   H2        1.0  0.9287  0.9467599999999998  0.9141399999999997  1.0000
  O   O17       1.0  0.00446  0.00464  0.9998  1.0000
  C   C9        1.0  0.70704  0.59131  0.32634  1.0000
  C   C10       1.0  0.30166  0.4150199999999999  0.3265599999999999  1.0000
  C   C11       1.0  0.59329  0.30167  0.32613999999999993  1.0000
  C   C12       1.0  0.41726  0.7075299999999998  0.32602  1.0000
  O   O18       1.0  0.62917  0.5801999999999998  0.30481  1.0000
  O   O19       1.0  0.38238  0.42884  0.30924  1.0000
  O   O20       1.0  0.58207  0.3799  0.30527999999999994  1.0000
  O   O21       1.0  0.42874  0.62899  0.30581  1.0000
  O   O22       1.0  0.76702  0.5325799999999999  0.31295999999999996  1.0000
  O   O23       1.0  0.24198  0.47334  0.3121499999999999  1.0000
  O   O24       1.0  0.53364  0.24242  0.31295999999999996  1.0000
  O   O25       1.0  0.47680000000000006  0.76673  0.31255  1.0000
  Cd  Cd5       1.0  0.55658  0.67826  0.24978  1.0000
  Cd  Cd6       1.0  0.45233  0.33081999999999995  0.25102  1.0000
  Cd  Cd7       1.0  0.67931  0.45333  0.24962999999999994  1.0000
  Cd  Cd8       1.0  0.32983  0.55555  0.25139  1.0000
  C   C13       1.0  0.70897  0.5955  0.17593  1.0000
  C   C14       1.0  0.30042  0.41626999999999986  0.17590999999999996  1.0000
  C   C15       1.0  0.59186  0.30161  0.17451999999999995  1.0000
  C   C16       1.0  0.41563  0.70723  0.17423999999999998  1.0000
  O   O26       1.0  0.6277  0.5809  0.192  1.0000
  O   O27       1.0  0.37906  0.4280899999999999  0.19617999999999997  1.0000
  O   O28       1.0  0.58046  0.3800899999999999  0.19489  1.0000
  O   O29       1.0  0.42662  0.62896  0.19516999999999995  1.0000
  O   O30       1.0  0.7682000000000001  0.53631  0.18973  1.0000
  O   O31       1.0  0.24089  0.4756  0.18899999999999995  1.0000
  O   O32       1.0  0.53199  0.24254  0.18777999999999995  1.0000
  O   O33       1.0  0.47548  0.76635  0.18742  1.0000
  H   H3        1.0  0.42886  0.44825  0.33618  1.0000
  H   H4        1.0  0.58225  0.5620399999999998  0.16431  1.0000
  O   O34       1.0  0.50456  0.50451  0.25015  1.0000
  C   C17       1.0  0.17926  0.2988599999999999  0.13888  1.0000
  H   H5        1.0  0.11706  0.33462  0.15057  1.0000
  C   C18       1.0  0.20682  0.20425  0.15777999999999998  1.0000
  H   H6        1.0  0.1671  0.16067999999999996  0.18462  1.0000
  C   C19       1.0  0.2064  0.2744199999999999  0.08138999999999999  1.0000
  H   H7        1.0  0.16633  0.28924  0.045339999999999984  1.0000
  C   C20       1.0  0.23433  0.18094999999999994  0.10068  1.0000
  C   C21       1.0  0.27552  0.3312599999999999  0.14912  1.0000
  C   C22       1.0  0.30299  0.30792  0.09201  1.0000
  H   H8        1.0  0.34268000000000004  0.3514299999999999  0.06512  1.0000
  C   C23       1.0  0.33057  0.21332  0.11090999999999998  1.0000
  H   H9        1.0  0.39273  0.17753  0.09921  1.0000
  C   C24       1.0  0.30343  0.23777  0.16842  1.0000
  H   H10       1.0  0.34337  0.22279999999999994  0.20448999999999998  1.0000
  C   C25       1.0  0.26612  0.25877  0.92754  1.0000
  H   H11       1.0  0.27634  0.26276999999999995  0.9710699999999999  1.0000
  C   C26       1.0  0.20194000000000004  0.3178899999999999  0.89427  1.0000
  H   H12       1.0  0.1589  0.37229  0.91009  1.0000
  C   C27       1.0  0.3406  0.27114999999999995  0.88536  1.0000
  H   H13       1.0  0.41171  0.28739  0.89414  1.0000
  C   C28       1.0  0.27606  0.32907999999999993  0.8524  1.0000
  C   C29       1.0  0.23271  0.17605  0.8972799999999997  1.0000
  C   C30       1.0  0.30684000000000006  0.18723999999999993  0.8553999999999999  1.0000
  H   H14       1.0  0.34988  0.13285  0.83958  1.0000
  C   C31       1.0  0.24268  0.24635  0.8221499999999998  1.0000
  H   H15       1.0  0.23241  0.2423  0.77863  1.0000
  C   C32       1.0  0.16819  0.23395999999999995  0.8643099999999998  1.0000
  H   H16       1.0  0.09716  0.21757999999999994  0.8554299999999999  1.0000
  C   C33       1.0  0.18623  0.70708  0.14751999999999998  1.0000
  H   H17       1.0  0.1307  0.66721  0.1649  1.0000
  C   C34       1.0  0.24828000000000003  0.7716299999999998  0.17855999999999997  1.0000
  H   H18       1.0  0.24554  0.78527  0.22179999999999994  1.0000
  C   C35       1.0  0.26859  0.6684499999999998  0.11790999999999997  1.0000
  H   H19       1.0  0.28256  0.59655  0.11083  1.0000
  C   C36       1.0  0.32944  0.7333199999999997  0.14864999999999998  1.0000
  C   C37       1.0  0.17637  0.77798  0.10372999999999998  1.0000
  C   C38       1.0  0.25754  0.7397  0.07383  1.0000
  H   H20       1.0  0.26022  0.7259599999999998  0.030599999999999992  1.0000
  C   C39       1.0  0.31959  0.80423  0.10485999999999997  1.0000
  H   H21       1.0  0.37512  0.84409  0.08746999999999998  1.0000
  C   C40       1.0  0.23723  0.8429  0.13446  1.0000
  H   H22       1.0  0.22334  0.9148899999999999  0.14131  1.0000
  C   C41       1.0  0.79707  0.3305799999999999  0.11073999999999998  1.0000
  H   H23       1.0  0.8338  0.39247  0.09980999999999998  1.0000
  C   C42       1.0  0.77116  0.30245  0.16785999999999998  1.0000
  H   H24       1.0  0.78603  0.34127  0.20434  1.0000
  C   C43       1.0  0.70215  0.30468  0.09105  1.0000
  H   H25       1.0  0.6595  0.34541  0.06421  1.0000
  C   C44       1.0  0.67734  0.27622  0.1478  1.0000
  C   C45       1.0  0.8287  0.23451  0.09982999999999997  1.0000
  C   C46       1.0  0.73489  0.20825  0.07976999999999997  1.0000
  H   H26       1.0  0.72015  0.16931  0.04331  1.0000
  C   C47       1.0  0.70898  0.18014  0.13689  1.0000
  H   H27       1.0  0.67224  0.11826  0.14782999999999996  1.0000
  C   C48       1.0  0.80389  0.20603999999999995  0.15657999999999997  1.0000
  H   H28       1.0  0.84655  0.1653  0.1834  1.0000
  C   C49       1.0  0.7034  0.8190599999999998  0.8548999999999998  1.0000
  H   H29       1.0  0.66195  0.8742  0.83851  1.0000
  C   C50       1.0  0.66706  0.73561  0.88426  1.0000
  H   H30       1.0  0.5954500000000001  0.72018  0.89201  1.0000
  C   C51       1.0  0.76817  0.75911  0.8225999999999998  1.0000
  H   H31       1.0  0.7804  0.7629999999999998  0.77924  1.0000
  C   C52       1.0  0.73218  0.6769199999999997  0.85227  1.0000
  C   C53       1.0  0.7758  0.82896  0.89791  1.0000
  C   C54       1.0  0.84093  0.7702199999999998  0.8659199999999998  1.0000
  H   H32       1.0  0.91264  0.7854599999999998  0.8582999999999998  1.0000
  C   C55       1.0  0.80458  0.6868299999999998  0.8952799999999997  1.0000
  H   H33       1.0  0.8460400000000001  0.63172  0.9116999999999998  1.0000
  C   C56       1.0  0.73982  0.7467499999999998  0.9275799999999997  1.0000
  H   H34       1.0  0.7276  0.7428  0.9709299999999997  1.0000
  C   C57       1.0  0.7728  0.16686  0.8645299999999998  1.0000
  H   H35       1.0  0.7876300000000002  0.09529  0.8568399999999998  1.0000
  C   C58       1.0  0.76117  0.23952999999999994  0.8213099999999998  1.0000
  H   H36       1.0  0.76422  0.22748999999999994  0.77792  1.0000
  C   C59       1.0  0.68986  0.20349  0.89446  1.0000
  H   H37       1.0  0.6346800000000001  0.16240999999999994  0.9112199999999999  1.0000
  C   C60       1.0  0.67946  0.2757999999999999  0.8515499999999998  1.0000
  C   C61       1.0  0.83265  0.23141999999999993  0.8961599999999998  1.0000
  C   C62       1.0  0.75094  0.26766  0.9263999999999999  1.0000
  H   H38       1.0  0.74793  0.27978  0.96979  1.0000
  C   C63       1.0  0.73931  0.34032  0.8831999999999998  1.0000
  H   H39       1.0  0.72438  0.41177  0.8911199999999998  1.0000
  C   C64       1.0  0.82224  0.3037199999999999  0.8532599999999998  1.0000
  H   H40       1.0  0.87742  0.34481  0.83651  1.0000
  C   C65       1.0  0.21113  0.67827  0.8882999999999998  1.0000
  H   H41       1.0  0.17378  0.6163699999999998  0.89847  1.0000
  C   C66       1.0  0.30586  0.70305  0.9087799999999998  1.0000
  H   H42       1.0  0.34787  0.66135  0.9354399999999998  1.0000
  C   C67       1.0  0.23811000000000002  0.70774  0.8316  1.0000
  H   H43       1.0  0.22365  0.66998  0.7946699999999999  1.0000
  C   C68       1.0  0.33172  0.7328699999999998  0.8524499999999998  1.0000
  C   C69       1.0  0.18000000000000002  0.7742399999999998  0.8998999999999998  1.0000
  C   C70       1.0  0.20586  0.80406  0.84358  1.0000
  H   H44       1.0  0.16384  0.84577  0.8169299999999999  1.0000
  C   C71       1.0  0.30059  0.8288399999999998  0.8640499999999999  1.0000
  H   H45       1.0  0.33793  0.89073  0.8538699999999998  1.0000
  C   C72       1.0  0.2736  0.7993799999999998  0.92075  1.0000
  H   H46       1.0  0.28794  0.8373099999999998  0.95764  1.0000
  C   C73       1.0  0.8305800000000002  0.7123299999999998  0.13787  1.0000
  H   H47       1.0  0.89279  0.67575  0.1486  1.0000
  C   C74       1.0  0.80453  0.80679  0.15779  1.0000
  H   H48       1.0  0.84547  0.84925  0.18461  1.0000
  C   C75       1.0  0.8019  0.73839  0.08085  1.0000
  H   H49       1.0  0.84058  0.72376  0.04424999999999999  1.0000
  C   C76       1.0  0.77553  0.8317699999999998  0.10114999999999998  1.0000
  C   C77       1.0  0.73436  0.68054  0.14893999999999996  1.0000
  C   C78       1.0  0.70533  0.70549  0.09231  1.0000
  H   H50       1.0  0.66435  0.66297  0.06554  1.0000
  C   C79       1.0  0.6793  0.7999499999999999  0.11224  1.0000
  H   H51       1.0  0.61705  0.83648  0.10152999999999998  1.0000
  C   C80       1.0  0.7079700000000001  0.7739  0.16922  1.0000
  H   H52       1.0  0.66912  0.78836  0.20578999999999997  1.0000
  C   C81       1.0  0.80048  0.91738  0.57468  1.0000
  C   C82       1.0  0.20902000000000007  0.09654999999999997  0.5733299999999999  1.0000
  C   C83       1.0  0.91423  0.20913  0.57317  1.0000
  C   C84       1.0  0.09021  0.80391  0.5780799999999999  1.0000
  O   O35       1.0  0.87892  0.9292699999999998  0.55412  1.0000
  O   O36       1.0  0.12764  0.08188999999999998  0.5575199999999999  1.0000
  O   O37       1.0  0.92638  0.13017  0.55359  1.0000
  O   O38       1.0  0.07987  0.8815799999999998  0.55634  1.0000
  O   O39       1.0  0.74086  0.9766499999999999  0.56151  1.0000
  O   O40       1.0  0.26811  0.03704  0.5599  1.0000
  O   O41       1.0  0.97451  0.2679999999999999  0.5603099999999999  1.0000
  O   O42       1.0  0.03075  0.74453  0.56468  1.0000
  Cd  Cd9       1.0  0.9522800000000002  0.83094  0.50022  1.0000
  Cd  Cd10      1.0  0.05677  0.17829999999999993  0.49911999999999995  1.0000
  Cd  Cd11      1.0  0.82972  0.055829999999999984  0.49828  1.0000
  Cd  Cd12      1.0  0.17909  0.95337  0.50081  1.0000
  C   C85       1.0  0.80139  0.91422  0.4241899999999999  1.0000
  C   C86       1.0  0.2071  0.09001999999999998  0.42291  1.0000
  C   C87       1.0  0.91877  0.20565999999999995  0.42163  1.0000
  C   C88       1.0  0.09447  0.79972  0.42628  1.0000
  O   O43       1.0  0.8822500000000001  0.92803  0.4412799999999999  1.0000
  O   O44       1.0  0.12929  0.0794  0.4446199999999999  1.0000
  O   O45       1.0  0.92932  0.12799  0.4432599999999999  1.0000
  O   O46       1.0  0.08246  0.8787399999999997  0.44573  1.0000
  O   O47       1.0  0.74185  0.97288  0.4382699999999999  1.0000
  O   O48       1.0  0.26692  0.03128  0.43662  1.0000
  O   O49       1.0  0.97801  0.26516  0.43512999999999996  1.0000
  O   O50       1.0  0.03448  0.7408099999999997  0.4394699999999999  1.0000
  H   H53       1.0  0.08224  0.06376999999999997  0.5854099999999999  1.0000
  H   H54       1.0  0.9287  0.9467599999999998  0.41414  1.0000
  O   O51       1.0  0.00446  0.00464  0.4998  1.0000
  C   C89       1.0  0.70704  0.59131  0.82634  1.0000
  C   C90       1.0  0.30166  0.4150199999999999  0.82656  1.0000
  C   C91       1.0  0.59329  0.30167  0.82614  1.0000
  C   C92       1.0  0.41726  0.7075299999999998  0.8260199999999998  1.0000
  O   O52       1.0  0.62917  0.5801999999999998  0.8048099999999998  1.0000
  O   O53       1.0  0.38238  0.4288299999999999  0.80924  1.0000
  O   O54       1.0  0.58207  0.3799  0.80528  1.0000
  O   O55       1.0  0.42874  0.62899  0.8058099999999998  1.0000
  O   O56       1.0  0.76702  0.5325799999999999  0.81296  1.0000
  O   O57       1.0  0.24198  0.47334  0.8121499999999999  1.0000
  O   O58       1.0  0.53364  0.24242  0.81296  1.0000
  O   O59       1.0  0.47680000000000006  0.76673  0.81255  1.0000
  Cd  Cd13      1.0  0.55658  0.67826  0.74978  1.0000
  Cd  Cd14      1.0  0.45233  0.33081999999999995  0.7510199999999998  1.0000
  Cd  Cd15      1.0  0.67931  0.45333  0.7496299999999998  1.0000
  Cd  Cd16      1.0  0.32983  0.55555  0.75139  1.0000
  C   C93       1.0  0.70897  0.5955  0.6759299999999999  1.0000
  C   C94       1.0  0.30042  0.41626999999999986  0.6759  1.0000
  C   C95       1.0  0.59186  0.30161  0.67452  1.0000
  C   C96       1.0  0.41563  0.70723  0.6742399999999997  1.0000
  O   O60       1.0  0.6277  0.5809  0.6919999999999997  1.0000
  O   O61       1.0  0.37906  0.4280899999999999  0.6961799999999999  1.0000
  O   O62       1.0  0.58046  0.3800899999999999  0.6948899999999999  1.0000
  O   O63       1.0  0.42662  0.62896  0.6951699999999997  1.0000
  O   O64       1.0  0.7682000000000001  0.53631  0.68973  1.0000
  O   O65       1.0  0.24089  0.4756  0.6889999999999997  1.0000
  O   O66       1.0  0.53199  0.24254  0.6877799999999998  1.0000
  O   O67       1.0  0.47548  0.76635  0.6874199999999998  1.0000
  H   H55       1.0  0.42886  0.44825  0.8361799999999999  1.0000
  H   H56       1.0  0.58225  0.5620399999999998  0.66431  1.0000
  O   O68       1.0  0.50456  0.50451  0.7501499999999998  1.0000
  C   C97       1.0  0.17926  0.2988599999999999  0.6388799999999999  1.0000
  H   H57       1.0  0.11706  0.33462  0.65056  1.0000
  C   C98       1.0  0.20682  0.20425  0.6577799999999999  1.0000
  H   H58       1.0  0.1671  0.16067999999999996  0.6846199999999999  1.0000
  C   C99       1.0  0.2064  0.2744199999999999  0.5813899999999999  1.0000
  H   H59       1.0  0.16633  0.28924  0.54534  1.0000
  C   C100      1.0  0.23433  0.18094999999999994  0.60068  1.0000
  C   C101      1.0  0.27552  0.3312599999999999  0.6491199999999999  1.0000
  C   C102      1.0  0.30299  0.30792  0.59201  1.0000
  H   H60       1.0  0.34268000000000004  0.3514299999999999  0.56512  1.0000
  C   C103      1.0  0.33057  0.21332  0.6109099999999998  1.0000
  H   H61       1.0  0.39273  0.17753  0.5991999999999998  1.0000
  C   C104      1.0  0.30343  0.23777  0.66842  1.0000
  H   H62       1.0  0.34337  0.22279999999999994  0.70449  1.0000
  C   C105      1.0  0.26612  0.25877  0.42754  1.0000
  H   H63       1.0  0.27634  0.26276999999999995  0.47107  1.0000
  C   C106      1.0  0.20194000000000004  0.3178899999999999  0.39427  1.0000
  H   H64       1.0  0.1589  0.37229  0.4100899999999999  1.0000
  C   C107      1.0  0.3406  0.27114999999999995  0.38535999999999987  1.0000
  H   H65       1.0  0.41171  0.28739  0.39414  1.0000
  C   C108      1.0  0.27606  0.32907999999999993  0.3523999999999999  1.0000
  C   C109      1.0  0.23271  0.17605  0.39728  1.0000
  C   C110      1.0  0.30684000000000006  0.18723999999999993  0.3554  1.0000
  H   H66       1.0  0.34988  0.13285  0.33957999999999994  1.0000
  C   C111      1.0  0.24267  0.24635  0.3221499999999999  1.0000
  H   H67       1.0  0.23241  0.2423  0.27862999999999993  1.0000
  C   C112      1.0  0.16819  0.23395999999999995  0.36431  1.0000
  H   H68       1.0  0.09716  0.21757999999999994  0.35543  1.0000
  C   C113      1.0  0.18623  0.70708  0.64752  1.0000
  H   H69       1.0  0.13071  0.66721  0.6649  1.0000
  C   C114      1.0  0.24828000000000003  0.7716299999999998  0.67856  1.0000
  H   H70       1.0  0.24554  0.78527  0.7217999999999999  1.0000
  C   C115      1.0  0.26859  0.6684499999999998  0.61791  1.0000
  H   H71       1.0  0.28256  0.59655  0.61084  1.0000
  C   C116      1.0  0.32944  0.7333199999999997  0.64865  1.0000
  C   C117      1.0  0.17637  0.77798  0.60373  1.0000
  C   C118      1.0  0.25754  0.7397  0.5738299999999998  1.0000
  H   H72       1.0  0.26022  0.7259599999999998  0.5306  1.0000
  C   C119      1.0  0.31959  0.80423  0.60486  1.0000
  H   H73       1.0  0.37512  0.84409  0.58747  1.0000
  C   C120      1.0  0.23723  0.8429  0.6344599999999999  1.0000
  H   H74       1.0  0.22334  0.9148899999999999  0.64131  1.0000
  C   C121      1.0  0.79707  0.3305799999999999  0.61074  1.0000
  H   H75       1.0  0.8338  0.39247  0.59981  1.0000
  C   C122      1.0  0.77116  0.30245  0.66786  1.0000
  H   H76       1.0  0.78603  0.34127  0.70434  1.0000
  C   C123      1.0  0.70215  0.30468  0.59105  1.0000
  H   H77       1.0  0.6595  0.34541  0.56421  1.0000
  C   C124      1.0  0.67734  0.27622  0.6478  1.0000
  C   C125      1.0  0.8287  0.23451  0.5998299999999999  1.0000
  C   C126      1.0  0.73489  0.20825  0.57977  1.0000
  H   H78       1.0  0.72015  0.16931  0.54331  1.0000
  C   C127      1.0  0.70898  0.18014  0.63689  1.0000
  H   H79       1.0  0.67224  0.11826  0.6478299999999999  1.0000
  C   C128      1.0  0.80389  0.20603999999999995  0.6565799999999999  1.0000
  H   H80       1.0  0.84656  0.1653  0.6834  1.0000
  C   C129      1.0  0.7034  0.8190599999999998  0.3549  1.0000
  H   H81       1.0  0.66195  0.8742  0.33850999999999987  1.0000
  C   C130      1.0  0.66706  0.73561  0.38426  1.0000
  H   H82       1.0  0.5954500000000001  0.72018  0.39201  1.0000
  C   C131      1.0  0.76817  0.75911  0.3225999999999999  1.0000
  H   H83       1.0  0.7804  0.7629999999999998  0.27924  1.0000
  C   C132      1.0  0.73218  0.6769199999999997  0.3522699999999999  1.0000
  C   C133      1.0  0.7758  0.82896  0.3979099999999999  1.0000
  C   C134      1.0  0.84093  0.7702199999999998  0.36593  1.0000
  H   H84       1.0  0.91264  0.7854599999999998  0.35829999999999995  1.0000
  C   C135      1.0  0.80458  0.6868299999999998  0.3952799999999999  1.0000
  H   H85       1.0  0.8460400000000001  0.63172  0.4116899999999999  1.0000
  C   C136      1.0  0.73982  0.7467499999999998  0.4275799999999999  1.0000
  H   H86       1.0  0.7276  0.7428  0.4709299999999999  1.0000
  C   C137      1.0  0.7728  0.16686  0.3645299999999999  1.0000
  H   H87       1.0  0.7876300000000002  0.09529  0.3568399999999999  1.0000
  C   C138      1.0  0.76117  0.23952999999999994  0.32130999999999993  1.0000
  H   H88       1.0  0.76422  0.22748999999999994  0.27791999999999994  1.0000
  C   C139      1.0  0.68986  0.20349  0.3944599999999999  1.0000
  H   H89       1.0  0.6346800000000001  0.16240999999999994  0.41121999999999986  1.0000
  C   C140      1.0  0.67946  0.2757999999999999  0.35155  1.0000
  C   C141      1.0  0.83265  0.23141999999999993  0.39616  1.0000
  C   C142      1.0  0.75094  0.26766  0.4263999999999999  1.0000
  H   H90       1.0  0.74793  0.27978  0.46979  1.0000
  C   C143      1.0  0.73931  0.34032  0.3831999999999999  1.0000
  H   H91       1.0  0.72438  0.41177  0.39111999999999997  1.0000
  C   C144      1.0  0.82224  0.3037199999999999  0.35325999999999996  1.0000
  H   H92       1.0  0.87742  0.34481  0.3365099999999999  1.0000
  C   C145      1.0  0.21113  0.67827  0.38829999999999987  1.0000
  H   H93       1.0  0.17378  0.6163699999999998  0.39847  1.0000
  C   C146      1.0  0.30586  0.70305  0.40877999999999987  1.0000
  H   H94       1.0  0.34787  0.66135  0.43544  1.0000
  C   C147      1.0  0.23811000000000002  0.70774  0.33161  1.0000
  H   H95       1.0  0.22365  0.66998  0.29467  1.0000
  C   C148      1.0  0.33172  0.7328699999999998  0.35244999999999993  1.0000
  C   C149      1.0  0.18000000000000002  0.7742399999999998  0.39991  1.0000
  C   C150      1.0  0.20586  0.80406  0.3435799999999999  1.0000
  H   H96       1.0  0.16384  0.84577  0.31692999999999993  1.0000
  C   C151      1.0  0.30059  0.8288399999999998  0.36405  1.0000
  H   H97       1.0  0.33793  0.89073  0.3538699999999999  1.0000
  C   C152      1.0  0.2736  0.7993799999999998  0.4207499999999999  1.0000
  H   H98       1.0  0.28794  0.8373099999999998  0.4576399999999999  1.0000
  C   C153      1.0  0.8305800000000002  0.7123299999999998  0.6378699999999998  1.0000
  H   H99       1.0  0.89279  0.67575  0.6485999999999998  1.0000
  C   C154      1.0  0.80453  0.80679  0.65779  1.0000
  H   H100      1.0  0.84547  0.84925  0.6846099999999998  1.0000
  C   C155      1.0  0.8019  0.73839  0.5808599999999999  1.0000
  H   H101      1.0  0.84058  0.72376  0.54425  1.0000
  C   C156      1.0  0.77554  0.8317699999999998  0.60115  1.0000
  C   C157      1.0  0.73436  0.68054  0.64894  1.0000
  C   C158      1.0  0.70533  0.70549  0.5923099999999999  1.0000
  H   H102      1.0  0.66435  0.66297  0.56554  1.0000
  C   C159      1.0  0.6793  0.7999499999999999  0.6122399999999999  1.0000
  H   H103      1.0  0.61705  0.83648  0.6015299999999999  1.0000
  C   C160      1.0  0.7079700000000001  0.7739  0.66922  1.0000
  H   H104      1.0  0.66912  0.78836  0.70579  1.0000
