data_image0
_chemical_formula_structural       Mg3H24C42O18
_chemical_formula_sum              "Mg3 H24 C42 O18"
_cell_length_a       8.5897
_cell_length_b       17.4446
_cell_length_c       17.4446
_cell_angle_alpha    119.99999999999999
_cell_angle_beta     90.0
_cell_angle_gamma    90.0

_space_group_name_H-M_alt    "P 1"
_space_group_IT_number       1

loop_
  _space_group_symop_operation_xyz
  'x, y, z'

loop_
  _atom_site_type_symbol
  _atom_site_label
  _atom_site_symmetry_multiplicity
  _atom_site_fract_x
  _atom_site_fract_y
  _atom_site_fract_z
  _atom_site_occupancy
  Mg  Mg1       1.0  0.66667  0.0  0.53516  1.0000
  Mg  Mg2       1.0  0.33333  0.46484000000000003  0.46484  1.0000
  Mg  Mg3       1.0  0.0  0.53516  0.0  1.0000
  H   H1        1.0  0.54313  0.8789000000000001  0.6897000000000001  1.0000
  H   H2        1.0  0.53257  0.04230000000000004  0.24300000000000005  1.0000
  H   H3        1.0  0.87647  0.8108000000000002  0.12110000000000003  1.0000
  H   H4        1.0  0.8679999999999999  0.5460000000000002  0.12800000000000006  1.0000
  H   H5        1.0  0.13409999999999994  0.24300000000000005  0.04230000000000001  1.0000
  H   H6        1.0  0.46532999999999997  0.4540000000000002  0.582  1.0000
  H   H7        1.0  0.32503  0.46280000000000004  0.696  1.0000
  H   H8        1.0  0.79867  0.12800000000000006  0.546  1.0000
  H   H9        1.0  0.45687  0.18920000000000012  0.31030000000000013  1.0000
  H   H10       1.0  0.9917  0.304  0.7668  1.0000
  H   H11       1.0  0.0083  0.5372  0.2332  1.0000
  H   H12       1.0  0.19923  0.757  0.7993  1.0000
  H   H13       1.0  0.7902  0.12109999999999999  0.8108  1.0000
  H   H14       1.0  0.80077  0.9577  0.20070000000000005  1.0000
  H   H15       1.0  0.53467  0.872  0.418  1.0000
  H   H16       1.0  0.67497  0.7668000000000003  0.3040000000000001  1.0000
  H   H17       1.0  0.46743  0.7993000000000002  0.757  1.0000
  H   H18       1.0  0.2098  0.3103000000000001  0.18920000000000006  1.0000
  H   H19       1.0  0.65837  0.2332000000000001  0.5372000000000001  1.0000
  H   H20       1.0  0.132  0.41800000000000015  0.8720000000000002  1.0000
  H   H21       1.0  0.8659  0.20070000000000007  0.9577000000000002  1.0000
  H   H22       1.0  0.12352999999999999  0.6897000000000003  0.8789000000000001  1.0000
  H   H23       1.0  0.20133  0.582  0.454  1.0000
  H   H24       1.0  0.3416299999999999  0.6960000000000001  0.4628000000000001  1.0000
  C   C1        1.0  0.976  0.30130000000000007  0.9535000000000002  1.0000
  C   C2        1.0  0.024  0.3478  0.0465  1.0000
  C   C3        1.0  0.64267  0.0465  0.3478  1.0000
  C   C4        1.0  0.0343  0.47699  0.19388000000000002  1.0000
  C   C5        1.0  0.154  0.3434000000000001  0.16850000000000007  1.0000
  C   C6        1.0  0.8923  0.22260000000000008  0.9193  1.0000
  C   C7        1.0  0.50283  0.8446000000000004  0.5250900000000001  1.0000
  C   C8        1.0  0.8361699999999999  0.68049  0.1554  1.0000
  C   C9        1.0  0.1695  0.47491000000000005  0.31951  1.0000
  C   C10       1.0  0.36763  0.7168900000000002  0.52301  1.0000
  C   C11       1.0  0.1077  0.3033  0.08070000000000002  1.0000
  C   C12       1.0  0.29903  0.52301  0.71689  1.0000
  C   C13       1.0  0.3463299999999999  0.5629700000000003  0.6695100000000003  1.0000
  C   C14       1.0  0.846  0.17490000000000008  0.8315000000000001  1.0000
  C   C15       1.0  0.54727  0.22496000000000005  0.43020000000000014  1.0000
  C   C16       1.0  0.78607  0.77504  0.20524  1.0000
  C   C17       1.0  0.8206699999999999  0.8315000000000001  0.17490000000000006  1.0000
  C   C18       1.0  0.7009699999999999  0.80612  0.28311  1.0000
  C   C19       1.0  0.63237  0.19388000000000005  0.47699000000000014  1.0000
  C   C20       1.0  0.9869999999999999  0.4370300000000001  0.10654000000000002  1.0000
  C   C21       1.0  0.7743699999999998  0.9193000000000001  0.2226  1.0000
  C   C22       1.0  0.51267  0.16850000000000007  0.3434  1.0000
  C   C23       1.0  0.21393  0.5698  0.7947600000000002  1.0000
  C   C24       1.0  0.55897  0.08070000000000008  0.3033000000000001  1.0000
  C   C25       1.0  0.9657  0.28311  0.80612  1.0000
  C   C26       1.0  0.8305  0.15539999999999995  0.68049  1.0000
  C   C27       1.0  0.69067  0.9535  0.3013  1.0000
  C   C28       1.0  0.3203299999999999  0.6695100000000003  0.5629700000000002  1.0000
  C   C29       1.0  0.013  0.3304900000000001  0.8934600000000003  1.0000
  C   C30       1.0  0.49717  0.31951000000000007  0.47491  1.0000
  C   C31       1.0  0.35732999999999987  0.6987  0.6522000000000002  1.0000
  C   C32       1.0  0.17933  0.6566000000000001  0.8251000000000002  1.0000
  C   C33       1.0  0.48733  0.8251  0.6566  1.0000
  C   C34       1.0  0.65367  0.8934600000000001  0.33049  1.0000
  C   C35       1.0  0.1194  0.4302000000000001  0.22496  1.0000
  C   C36       1.0  0.67967  0.10654  0.43703  1.0000
  C   C37       1.0  0.22562999999999994  0.6967000000000002  0.7774  1.0000
  C   C38       1.0  0.44103  0.7774000000000004  0.6967000000000002  1.0000
  C   C39       1.0  0.16383  0.5250900000000001  0.8446000000000002  1.0000
  C   C40       1.0  0.8806  0.20524000000000012  0.7750400000000002  1.0000
  C   C41       1.0  0.45273  0.79476  0.5698000000000002  1.0000
  C   C42       1.0  0.30933  0.6522000000000004  0.6987000000000002  1.0000
  O   O1        1.0  0.23543  0.5926  0.51598  1.0000
  O   O2        1.0  0.8622  0.18850999999999996  0.63155  1.0000
  O   O3        1.0  0.9021  0.48402  0.07662000000000002  1.0000
  O   O4        1.0  0.43123  0.5159800000000003  0.5926000000000002  1.0000
  O   O5        1.0  0.0979  0.40740000000000015  0.9233800000000002  1.0000
  O   O6        1.0  0.7645699999999997  0.07662000000000008  0.4840200000000001  1.0000
  O   O7        1.0  0.7592  0.08431000000000012  0.6545000000000002  1.0000
  O   O8        1.0  0.2408  0.42981  0.3455  1.0000
  O   O9        1.0  0.56877  0.92338  0.4074000000000001  1.0000
  O   O10       1.0  0.09253  0.5701900000000002  0.9156900000000002  1.0000
  O   O11       1.0  0.19553  0.4430400000000001  0.8114900000000003  1.0000
  O   O12       1.0  0.90747  0.6545  0.08431  1.0000
  O   O13       1.0  0.47112999999999994  0.81149  0.4430400000000001  1.0000
  O   O14       1.0  0.42587  0.3455000000000001  0.42981  1.0000
  O   O15       1.0  0.52887  0.36845  0.55696  1.0000
  O   O16       1.0  0.57413  0.91569  0.5701900000000002  1.0000
  O   O17       1.0  0.1378  0.55696  0.36845  1.0000
  O   O18       1.0  0.80447  0.63155  0.18851000000000007  1.0000
