data_image0
_chemical_formula_structural       Zn27H135C234S9N27O117
_chemical_formula_sum              "Zn27 H135 C234 S9 N27 O117"
_cell_length_a       33.15959
_cell_length_b       33.1597
_cell_length_c       11.73346
_cell_angle_alpha    90.00523
_cell_angle_beta     89.99502
_cell_angle_gamma    120.00486

_space_group_name_H-M_alt    "P 1"
_space_group_IT_number       1

loop_
  _space_group_symop_operation_xyz
  'x, y, z'

loop_
  _atom_site_type_symbol
  _atom_site_label
  _atom_site_symmetry_multiplicity
  _atom_site_fract_x
  _atom_site_fract_y
  _atom_site_fract_z
  _atom_site_occupancy
  Zn  Zn1       1.0  0.8869300000000001  0.11307  0.15614000000000003  1.0000
  Zn  Zn2       1.0  0.83006  0.05625  0.91208  1.0000
  Zn  Zn3       1.0  0.61169  0.10871  0.24728000000000006  1.0000
  Zn  Zn4       1.0  0.8869299999999999  0.77387  0.15612  1.0000
  Zn  Zn5       1.0  0.5596199999999999  0.7798099999999998  0.82385  1.0000
  Zn  Zn6       1.0  0.9437600000000002  0.16994  0.91208  1.0000
  Zn  Zn7       1.0  0.83007  0.77384  0.9119500000000001  1.0000
  Zn  Zn8       1.0  0.5581499999999998  0.8364399999999997  0.5803900000000001  1.0000
  Zn  Zn9       1.0  0.94369  0.77377  0.91197  1.0000
  Zn  Zn10      1.0  0.89133  0.50299  0.24727  1.0000
  Zn  Zn11      1.0  0.22613  0.11307  0.15612  1.0000
  Zn  Zn12      1.0  0.22021000000000002  0.7798  0.8240200000000002  1.0000
  Zn  Zn13      1.0  0.22623  0.056309999999999985  0.91197  1.0000
  Zn  Zn14      1.0  0.16357  0.72173  0.58042  1.0000
  Zn  Zn15      1.0  0.22616  0.16994  0.9119500000000001  1.0000
  Zn  Zn16      1.0  0.49702  0.3882899999999999  0.24729  1.0000
  Zn  Zn17      1.0  0.22019999999999998  0.44037999999999994  0.82385  1.0000
  Zn  Zn18      1.0  0.2782999999999999  0.4418799999999999  0.5803900000000001  1.0000
  Zn  Zn19      1.0  0.8913000000000001  0.38831  0.24728000000000006  1.0000
  Zn  Zn20      1.0  0.16356999999999997  0.44186  0.5803900000000001  1.0000
  Zn  Zn21      1.0  0.49701  0.10867  0.24727  1.0000
  Zn  Zn22      1.0  0.2782800000000001  0.83643  0.58041  1.0000
  Zn  Zn23      1.0  0.61171  0.50298  0.24729  1.0000
  Zn  Zn24      1.0  0.55812  0.7217  0.5803900000000001  1.0000
  Zn  Zn25      1.0  0.55352  0.44648  0.4888000000000001  1.0000
  Zn  Zn26      1.0  0.55352  0.10702  0.48882  1.0000
  Zn  Zn27      1.0  0.89298  0.44648  0.48882  1.0000
  H   H1        1.0  0.77017  0.02698  0.6891  1.0000
  H   H2        1.0  0.68565  0.8912  0.9390000000000002  1.0000
  H   H3        1.0  0.7642899999999999  0.9593099999999998  0.98948  1.0000
  H   H4        1.0  0.6922700000000003  0.96052  0.62454  1.0000
  H   H5        1.0  0.91533  0.99572  0.4865700000000001  1.0000
  H   H6        1.0  0.91531  0.91966  0.48655000000000004  1.0000
  H   H7        1.0  0.63946  0.07657  0.024930000000000008  1.0000
  H   H8        1.0  0.77561  0.12761  0.27371  1.0000
  H   H9        1.0  0.70782  0.13866  0.32448  1.0000
  H   H10       1.0  0.70572  0.06481  0.9598  1.0000
  H   H11       1.0  0.84804  0.15196  0.55461  1.0000
  H   H12       1.0  0.85037  0.14963  0.34029000000000004  1.0000
  H   H13       1.0  0.9221500000000002  0.07784999999999999  0.3443400000000001  1.0000
  H   H14       1.0  0.9231500000000002  0.07685  0.55925  1.0000
  H   H15       1.0  0.9091700000000001  0.09083999999999998  0.9795300000000002  1.0000
  H   H16       1.0  0.97301  0.7431299999999997  0.6891400000000001  1.0000
  H   H17       1.0  0.10879  0.79448  0.9391900000000002  1.0000
  H   H18       1.0  0.040650000000000026  0.80497  0.9895900000000001  1.0000
  H   H19       1.0  0.03948999999999997  0.7317299999999999  0.62464  1.0000
  H   H20       1.0  0.004329999999999987  0.91961  0.48638  1.0000
  H   H21       1.0  0.08039000000000003  0.99568  0.48638  1.0000
  H   H22       1.0  0.92341  0.56285  0.02501  1.0000
  H   H23       1.0  0.87237  0.64799  0.27369000000000004  1.0000
  H   H24       1.0  0.8613499999999998  0.56918  0.32452  1.0000
  H   H25       1.0  0.93514  0.64084  0.95976  1.0000
  H   H26       1.0  0.84805  0.69607  0.55449  1.0000
  H   H27       1.0  0.8503799999999999  0.7007499999999998  0.34020000000000006  1.0000
  H   H28       1.0  0.92212  0.84429  0.34428000000000003  1.0000
  H   H29       1.0  0.9231300000000002  0.84631  0.5591600000000001  1.0000
  H   H30       1.0  0.90912  0.8182899999999997  0.9792000000000001  1.0000
  H   H31       1.0  0.2568500000000001  0.22992999999999997  0.6890600000000001  1.0000
  H   H32       1.0  0.20559  0.3144  0.93923  1.0000
  H   H33       1.0  0.19501  0.23569999999999994  0.98954  1.0000
  H   H34       1.0  0.26832  0.30784  0.6247  1.0000
  H   H35       1.0  0.08034  0.08469  0.48655000000000004  1.0000
  H   H36       1.0  0.004279999999999993  0.08467999999999999  0.4865700000000001  1.0000
  H   H37       1.0  0.43717999999999996  0.36052  0.02500000000000001  1.0000
  H   H38       1.0  0.35195  0.22431  0.27355000000000007  1.0000
  H   H39       1.0  0.43081  0.29207  0.32448  1.0000
  H   H40       1.0  0.35915000000000014  0.2943  0.9597700000000002  1.0000
  H   H41       1.0  0.30393  0.15196  0.55449  1.0000
  H   H42       1.0  0.29925  0.14963  0.34020000000000006  1.0000
  H   H43       1.0  0.15571  0.07788  0.34428000000000003  1.0000
  H   H44       1.0  0.15369  0.07687  0.5591600000000001  1.0000
  H   H45       1.0  0.1817100000000001  0.09089  0.9792000000000001  1.0000
  H   H46       1.0  0.9730200000000001  0.22983  0.6891  1.0000
  H   H47       1.0  0.10880000000000002  0.31435  0.9390000000000002  1.0000
  H   H48       1.0  0.04068999999999997  0.23570999999999995  0.98948  1.0000
  H   H49       1.0  0.03947999999999994  0.3077399999999999  0.62454  1.0000
  H   H50       1.0  0.92343  0.36054  0.024930000000000008  1.0000
  H   H51       1.0  0.8723900000000001  0.22439  0.27371  1.0000
  H   H52       1.0  0.86134  0.29218  0.32448  1.0000
  H   H53       1.0  0.93519  0.29429  0.9598  1.0000
  H   H54       1.0  0.25686999999999993  0.026999999999999993  0.6891400000000001  1.0000
  H   H55       1.0  0.20552  0.89122  0.9391900000000002  1.0000
  H   H56       1.0  0.19503  0.95935  0.9895900000000001  1.0000
  H   H57       1.0  0.26826999999999984  0.9605099999999998  0.62464  1.0000
  H   H58       1.0  0.4371500000000001  0.07659  0.02501  1.0000
  H   H59       1.0  0.3520100000000001  0.12764  0.27369000000000004  1.0000
  H   H60       1.0  0.4308200000000001  0.13865  0.32452  1.0000
  H   H61       1.0  0.35916  0.06486  0.95976  1.0000
  H   H62       1.0  0.77007  0.74315  0.68905  1.0000
  H   H63       1.0  0.68561  0.79442  0.93923  1.0000
  H   H64       1.0  0.7643  0.8049899999999998  0.98954  1.0000
  H   H65       1.0  0.69216  0.7316899999999997  0.6247  1.0000
  H   H66       1.0  0.6394800000000003  0.56282  0.02500000000000001  1.0000
  H   H67       1.0  0.7756900000000002  0.64805  0.27355000000000007  1.0000
  H   H68       1.0  0.70793  0.56919  0.32448  1.0000
  H   H69       1.0  0.7057  0.64085  0.9597700000000002  1.0000
  H   H70       1.0  0.5822199999999998  0.3291199999999999  0.82328  1.0000
  H   H71       1.0  0.58223  0.25312  0.82331  1.0000
  H   H72       1.0  0.30676  0.41049  0.35705  1.0000
  H   H73       1.0  0.4425  0.46107  0.6068600000000001  1.0000
  H   H74       1.0  0.37485  0.47241  0.65693  1.0000
  H   H75       1.0  0.37281  0.39828  0.29272  1.0000
  H   H76       1.0  0.51467  0.48533  0.8870100000000001  1.0000
  H   H77       1.0  0.51705  0.48296  0.6730200000000001  1.0000
  H   H78       1.0  0.58879  0.41121  0.6769600000000001  1.0000
  H   H79       1.0  0.58984  0.4101599999999999  0.8915000000000002  1.0000
  H   H80       1.0  0.5762  0.4238  0.31464  1.0000
  H   H81       1.0  0.67091  0.25308  0.8233300000000001  1.0000
  H   H82       1.0  0.74692  0.3291  0.8233300000000001  1.0000
  H   H83       1.0  0.58952  0.89625  0.35703  1.0000
  H   H84       1.0  0.53899  0.98143  0.60698  1.0000
  H   H85       1.0  0.52764  0.90244  0.65699  1.0000
  H   H86       1.0  0.6017200000000003  0.97453  0.29276  1.0000
  H   H87       1.0  0.51466  0.0293  0.8870100000000001  1.0000
  H   H88       1.0  0.51703  0.03404  0.6730200000000001  1.0000
  H   H89       1.0  0.58877  0.17755  0.67695  1.0000
  H   H90       1.0  0.58982  0.17965999999999993  0.89148  1.0000
  H   H91       1.0  0.57613  0.15229  0.3146  1.0000
  H   H92       1.0  0.7468799999999999  0.41777  0.82331  1.0000
  H   H93       1.0  0.67088  0.41779  0.82328  1.0000
  H   H94       1.0  0.10379000000000001  0.69328  0.35717  1.0000
  H   H95       1.0  0.0185499999999999  0.5575199999999999  0.60688  1.0000
  H   H96       1.0  0.09756000000000005  0.62516  0.6570300000000001  1.0000
  H   H97       1.0  0.02549999999999984  0.6272299999999997  0.29281  1.0000
  H   H98       1.0  0.97071  0.4853399999999999  0.8870100000000001  1.0000
  H   H99       1.0  0.96596  0.4829799999999999  0.6730200000000001  1.0000
  H   H100      1.0  0.82246  0.41123  0.67695  1.0000
  H   H101      1.0  0.8203500000000002  0.41018  0.89148  1.0000
  H   H102      1.0  0.84771  0.42387  0.3146  1.0000
  H   H103      1.0  0.5895099999999999  0.6932399999999997  0.35705  1.0000
  H   H104      1.0  0.53893  0.5575  0.6068600000000001  1.0000
  H   H105      1.0  0.52759  0.62515  0.65693  1.0000
  H   H106      1.0  0.6017200000000003  0.62719  0.29272  1.0000
  H   H107      1.0  0.10374999999999997  0.41049  0.35703  1.0000
  H   H108      1.0  0.018570000000000014  0.46102  0.60698  1.0000
  H   H109      1.0  0.09756  0.47236  0.65699  1.0000
  H   H110      1.0  0.025470000000000007  0.39828  0.29276  1.0000
  H   H111      1.0  0.30672  0.89622  0.35717  1.0000
  H   H112      1.0  0.44248000000000015  0.98146  0.60688  1.0000
  H   H113      1.0  0.3748399999999999  0.9024499999999998  0.6570300000000001  1.0000
  H   H114      1.0  0.37277  0.9745  0.29281  1.0000
  H   H115      1.0  0.24890999999999996  0.6624899999999999  0.15578  1.0000
  H   H116      1.0  0.24891000000000002  0.58644  0.15578  1.0000
  H   H117      1.0  0.18116  0.81884  0.22313  1.0000
  H   H118      1.0  0.18343999999999994  0.81657  0.00895  1.0000
  H   H119      1.0  0.25521999999999995  0.7447799999999999  0.012510000000000002  1.0000
  H   H120      1.0  0.2562800000000001  0.74372  0.22719000000000006  1.0000
  H   H121      1.0  0.24302999999999989  0.7569699999999998  0.64916  1.0000
  H   H122      1.0  0.33748  0.58645  0.15573000000000004  1.0000
  H   H123      1.0  0.41355  0.6625199999999999  0.15573000000000004  1.0000
  H   H124      1.0  0.18119999999999997  0.36234999999999995  0.22305  1.0000
  H   H125      1.0  0.18345  0.36689  0.008890000000000002  1.0000
  H   H126      1.0  0.2552100000000001  0.51048  0.012510000000000002  1.0000
  H   H127      1.0  0.25629  0.51258  0.22717000000000007  1.0000
  H   H128      1.0  0.24298  0.48598  0.6492  1.0000
  H   H129      1.0  0.41356  0.75109  0.15578  1.0000
  H   H130      1.0  0.33751  0.75109  0.15578  1.0000
  H   H131      1.0  0.63766  0.8187999999999998  0.22305  1.0000
  H   H132      1.0  0.6331099999999997  0.8165499999999998  0.008890000000000002  1.0000
  H   H133      1.0  0.48952  0.74479  0.012510000000000002  1.0000
  H   H134      1.0  0.48742  0.74371  0.22717000000000007  1.0000
  H   H135      1.0  0.51402  0.75702  0.6492  1.0000
  C   C1        1.0  0.8852600000000002  0.11474  0.70203  1.0000
  C   C2        1.0  0.8856  0.1144  0.5736  1.0000
  C   C3        1.0  0.6831  0.92088  0.77782  1.0000
  C   C4        1.0  0.85937  0.01027  0.0918  1.0000
  C   C5        1.0  0.8789999999999999  0.9609499999999997  0.22678000000000006  1.0000
  C   C6        1.0  0.6358899999999997  0.8803099999999998  0.7461  1.0000
  C   C7        1.0  0.7500899999999999  0.99619  0.7415200000000002  1.0000
  C   C8        1.0  0.8638299999999999  0.9696599999999997  0.12457000000000001  1.0000
  C   C9        1.0  0.70367  0.92069  0.88174  1.0000
  C   C10       1.0  0.74676  0.9584  0.9103900000000001  1.0000
  C   C11       1.0  0.7071999999999998  0.9594699999999998  0.7062400000000002  1.0000
  C   C12       1.0  0.90666  0.09334  0.51362  1.0000
  C   C13       1.0  0.9063000000000002  0.0937  0.39498  1.0000
  C   C14       1.0  0.90569  0.973  0.41304000000000013  1.0000
  C   C15       1.0  0.8648  0.1352  0.5114  1.0000
  C   C16       1.0  0.86593  0.13407  0.39303  1.0000
  C   C17       1.0  0.85932  0.8491099999999998  0.09176  1.0000
  C   C18       1.0  0.8789999999999999  0.9180999999999998  0.22676  1.0000
  C   C19       1.0  0.86382  0.8942  0.12454  1.0000
  C   C20       1.0  0.90569  0.93275  0.4130300000000001  1.0000
  C   C21       1.0  0.7456300000000001  0.09543  0.11248000000000002  1.0000
  C   C22       1.0  0.7862  0.08908999999999997  0.07902  1.0000
  C   C23       1.0  0.67035  0.08728  0.07695000000000002  1.0000
  C   C24       1.0  0.74607  0.11621  0.21661  1.0000
  C   C25       1.0  0.70856  0.12191  0.24543  1.0000
  C   C26       1.0  0.7069  0.0809  0.04145000000000001  1.0000
  C   C27       1.0  0.8852100000000003  0.77049  0.70191  1.0000
  C   C28       1.0  0.88558  0.7712  0.5735  1.0000
  C   C29       1.0  0.07911999999999995  0.76222  0.77795  1.0000
  C   C30       1.0  0.9896900000000001  0.84917  0.09169  1.0000
  C   C31       1.0  0.039080000000000004  0.91806  0.22672  1.0000
  C   C32       1.0  0.11970000000000003  0.75562  0.7461900000000002  1.0000
  C   C33       1.0  0.0037999999999998794  0.7538699999999998  0.74158  1.0000
  C   C34       1.0  0.030339999999999902  0.8941899999999999  0.12448  1.0000
  C   C35       1.0  0.07928999999999996  0.7829799999999999  0.8819000000000001  1.0000
  C   C36       1.0  0.04157999999999987  0.7883599999999997  0.9104900000000001  1.0000
  C   C37       1.0  0.040530000000000045  0.74771  0.70636  1.0000
  C   C38       1.0  0.90663  0.8133199999999998  0.51355  1.0000
  C   C39       1.0  0.90629  0.8126  0.39492  1.0000
  C   C40       1.0  0.027039999999999974  0.93271  0.4128800000000001  1.0000
  C   C41       1.0  0.8647900000000001  0.72959  0.5113  1.0000
  C   C42       1.0  0.86593  0.73186  0.39294  1.0000
  C   C43       1.0  0.15083  0.0103  0.09169  1.0000
  C   C44       1.0  0.08193999999999986  0.9609199999999998  0.22671  1.0000
  C   C45       1.0  0.10581  0.96965  0.12447  1.0000
  C   C46       1.0  0.06728999999999995  0.9729599999999998  0.4128800000000001  1.0000
  C   C47       1.0  0.90454  0.65018  0.11242000000000003  1.0000
  C   C48       1.0  0.91088  0.69709  0.07889  1.0000
  C   C49       1.0  0.91271  0.58304  0.077  1.0000
  C   C50       1.0  0.8837699999999998  0.6298599999999998  0.21658  1.0000
  C   C51       1.0  0.8781  0.5866599999999998  0.24546000000000004  1.0000
  C   C52       1.0  0.91907  0.62596  0.04143  1.0000
  C   C53       1.0  0.22951  0.1148  0.70191  1.0000
  C   C54       1.0  0.22881  0.11442  0.5735  1.0000
  C   C55       1.0  0.23781  0.31695  0.778  1.0000
  C   C56       1.0  0.15089  0.14069  0.09176  1.0000
  C   C57       1.0  0.0819  0.12100999999999998  0.22676  1.0000
  C   C58       1.0  0.24444000000000002  0.36415  0.74623  1.0000
  C   C59       1.0  0.24610999999999997  0.24996999999999994  0.7415200000000002  1.0000
  C   C60       1.0  0.1058  0.13619  0.12453  1.0000
  C   C61       1.0  0.21703  0.29636  0.8819000000000001  1.0000
  C   C62       1.0  0.21162  0.25326  0.91045  1.0000
  C   C63       1.0  0.25229  0.2928699999999999  0.7063500000000003  1.0000
  C   C64       1.0  0.18667999999999998  0.09336999999999997  0.51355  1.0000
  C   C65       1.0  0.18739  0.09372  0.39492  1.0000
  C   C66       1.0  0.06725000000000002  0.09432  0.41302000000000005  1.0000
  C   C67       1.0  0.27041  0.13521  0.5113  1.0000
  C   C68       1.0  0.26814  0.13407  0.39294  1.0000
  C   C69       1.0  0.9897300000000001  0.14062999999999995  0.0918  1.0000
  C   C70       1.0  0.039049999999999994  0.12100999999999998  0.22678000000000006  1.0000
  C   C71       1.0  0.03033  0.13618  0.12457000000000001  1.0000
  C   C72       1.0  0.027  0.09431  0.41304000000000013  1.0000
  C   C73       1.0  0.3498  0.25437  0.11244000000000001  1.0000
  C   C74       1.0  0.30288  0.21382999999999994  0.07893000000000001  1.0000
  C   C75       1.0  0.41697  0.32963  0.07698000000000002  1.0000
  C   C76       1.0  0.37013  0.25388  0.21655000000000005  1.0000
  C   C77       1.0  0.4133400000000001  0.29137  0.24543  1.0000
  C   C78       1.0  0.37403  0.2931  0.04142  1.0000
  C   C79       1.0  0.07911999999999991  0.3169099999999999  0.77782  1.0000
  C   C80       1.0  0.11969000000000003  0.36411  0.7461  1.0000
  C   C81       1.0  0.0038100000000000026  0.24992  0.7415200000000002  1.0000
  C   C82       1.0  0.07931  0.29634  0.88174  1.0000
  C   C83       1.0  0.04161  0.25324  0.9103900000000001  1.0000
  C   C84       1.0  0.04053999999999999  0.2928  0.7062500000000003  1.0000
  C   C85       1.0  0.90457  0.25437  0.11248000000000002  1.0000
  C   C86       1.0  0.91091  0.2138  0.07902  1.0000
  C   C87       1.0  0.9127200000000002  0.32965  0.07695000000000002  1.0000
  C   C88       1.0  0.88379  0.25393  0.21661  1.0000
  C   C89       1.0  0.8781  0.29144  0.24543  1.0000
  C   C90       1.0  0.91911  0.29311  0.04145000000000001  1.0000
  C   C91       1.0  0.23778  0.9208899999999999  0.77795  1.0000
  C   C92       1.0  0.24439  0.8803  0.7461900000000002  1.0000
  C   C93       1.0  0.24613999999999986  0.9962099999999998  0.74158  1.0000
  C   C94       1.0  0.21702999999999997  0.92071  0.8819000000000001  1.0000
  C   C95       1.0  0.21163999999999983  0.9584199999999998  0.9104900000000001  1.0000
  C   C96       1.0  0.2522899999999998  0.9594699999999998  0.70636  1.0000
  C   C97       1.0  0.3498200000000001  0.09546  0.11242000000000003  1.0000
  C   C98       1.0  0.3029  0.08912  0.07889  1.0000
  C   C99       1.0  0.41696  0.0873  0.07699  1.0000
  C   C100      1.0  0.37014  0.11623  0.21658  1.0000
  C   C101      1.0  0.41334  0.12191  0.24546000000000004  1.0000
  C   C102      1.0  0.37404  0.08092999999999997  0.04143  1.0000
  C   C103      1.0  0.68305  0.76219  0.778  1.0000
  C   C104      1.0  0.6358600000000001  0.75556  0.74623  1.0000
  C   C105      1.0  0.75003  0.75389  0.7415200000000002  1.0000
  C   C106      1.0  0.70364  0.78297  0.8819000000000001  1.0000
  C   C107      1.0  0.74675  0.78838  0.91045  1.0000
  C   C108      1.0  0.70713  0.7477199999999998  0.7063500000000003  1.0000
  C   C109      1.0  0.7456300000000001  0.6501999999999999  0.11244000000000001  1.0000
  C   C110      1.0  0.78617  0.69712  0.07893000000000001  1.0000
  C   C111      1.0  0.67037  0.58303  0.07698000000000002  1.0000
  C   C112      1.0  0.74612  0.62987  0.21655000000000005  1.0000
  C   C113      1.0  0.7086299999999999  0.5866599999999998  0.24543  1.0000
  C   C114      1.0  0.7068999999999999  0.6259699999999999  0.04142  1.0000
  C   C115      1.0  0.55226  0.44774  0.03515  1.0000
  C   C116      1.0  0.55228  0.44772  0.90648  1.0000
  C   C117      1.0  0.52651  0.34332  0.42559000000000013  1.0000
  C   C118      1.0  0.54607  0.29445  0.56323  1.0000
  C   C119      1.0  0.53125  0.3032  0.46045000000000014  1.0000
  C   C120      1.0  0.57332  0.42669  0.84618  1.0000
  C   C121      1.0  0.57295  0.42705  0.72758  1.0000
  C   C122      1.0  0.57254  0.30639  0.74973  1.0000
  C   C123      1.0  0.53147  0.46853  0.84421  1.0000
  C   C124      1.0  0.5326  0.4674  0.72579  1.0000
  C   C125      1.0  0.52651  0.18312999999999996  0.42562000000000005  1.0000
  C   C126      1.0  0.54607  0.25159  0.56326  1.0000
  C   C127      1.0  0.53125  0.22798999999999997  0.4605  1.0000
  C   C128      1.0  0.57254  0.26614  0.7497500000000001  1.0000
  C   C129      1.0  0.41260000000000013  0.42882  0.44581  1.0000
  C   C130      1.0  0.45306  0.42206  0.41414000000000006  1.0000
  C   C131      1.0  0.33756000000000014  0.42108999999999996  0.40932  1.0000
  C   C132      1.0  0.41304  0.44979999999999987  0.54958  1.0000
  C   C133      1.0  0.37559  0.45562  0.57799  1.0000
  C   C134      1.0  0.37404  0.41449  0.37423  1.0000
  C   C135      1.0  0.55223  0.10447999999999998  0.03513000000000001  1.0000
  C   C136      1.0  0.55226  0.10453  0.90647  1.0000
  C   C137      1.0  0.65664  0.18316  0.4255300000000001  1.0000
  C   C138      1.0  0.70555  0.2516  0.56323  1.0000
  C   C139      1.0  0.6967800000000002  0.22801999999999994  0.4604400000000001  1.0000
  C   C140      1.0  0.57329  0.1466  0.84618  1.0000
  C   C141      1.0  0.57293  0.14586  0.72758  1.0000
  C   C142      1.0  0.69362  0.26613  0.7497600000000002  1.0000
  C   C143      1.0  0.53146  0.0629  0.8442  1.0000
  C   C144      1.0  0.53258  0.06516  0.72579  1.0000
  C   C145      1.0  0.8168399999999999  0.34335999999999994  0.4255300000000001  1.0000
  C   C146      1.0  0.7484099999999999  0.29446  0.56323  1.0000
  C   C147      1.0  0.77199  0.30322  0.4604400000000001  1.0000
  C   C148      1.0  0.73388  0.30637999999999993  0.7497600000000002  1.0000
  C   C149      1.0  0.5712  0.98377  0.44587  1.0000
  C   C150      1.0  0.57796  0.030989999999999993  0.41419000000000006  1.0000
  C   C151      1.0  0.57892  0.91646  0.40932  1.0000
  C   C152      1.0  0.55024  0.9632399999999999  0.54965  1.0000
  C   C153      1.0  0.54441  0.91996  0.57804  1.0000
  C   C154      1.0  0.58552  0.95954  0.37426  1.0000
  C   C155      1.0  0.8955200000000001  0.44777  0.03513000000000001  1.0000
  C   C156      1.0  0.89547  0.44774  0.90647  1.0000
  C   C157      1.0  0.81687  0.47349  0.42562000000000005  1.0000
  C   C158      1.0  0.7484099999999999  0.45393  0.56326  1.0000
  C   C159      1.0  0.77201  0.46875999999999995  0.4605  1.0000
  C   C160      1.0  0.8534099999999998  0.42670999999999987  0.84618  1.0000
  C   C161      1.0  0.85414  0.42707  0.72758  1.0000
  C   C162      1.0  0.73386  0.42746  0.7497500000000001  1.0000
  C   C163      1.0  0.9371  0.46855  0.8442  1.0000
  C   C164      1.0  0.93484  0.46742  0.72579  1.0000
  C   C165      1.0  0.65668  0.4735  0.42559000000000013  1.0000
  C   C166      1.0  0.70555  0.45393  0.56323  1.0000
  C   C167      1.0  0.69681  0.46875  0.46045000000000014  1.0000
  C   C168      1.0  0.69361  0.42746  0.74973  1.0000
  C   C169      1.0  0.016249999999999983  0.58743  0.44586  1.0000
  C   C170      1.0  0.9690300000000001  0.54697  0.41418000000000005  1.0000
  C   C171      1.0  0.08356000000000001  0.66247  0.40941  1.0000
  C   C172      1.0  0.03676999999999996  0.58699  0.54963  1.0000
  C   C173      1.0  0.08004  0.62442  0.5780800000000001  1.0000
  C   C174      1.0  0.04047999999999997  0.6259999999999999  0.3743000000000001  1.0000
  C   C175      1.0  0.5711800000000002  0.58741  0.44581  1.0000
  C   C176      1.0  0.57794  0.54695  0.41414000000000006  1.0000
  C   C177      1.0  0.57892  0.66244  0.40932  1.0000
  C   C178      1.0  0.55021  0.58697  0.54958  1.0000
  C   C179      1.0  0.54438  0.62441  0.57799  1.0000
  C   C180      1.0  0.58551  0.62596  0.37423  1.0000
  C   C181      1.0  0.016229999999999953  0.4287999999999999  0.44587  1.0000
  C   C182      1.0  0.9690200000000001  0.42203999999999997  0.41419000000000006  1.0000
  C   C183      1.0  0.08354  0.42108  0.40932  1.0000
  C   C184      1.0  0.03676  0.44976  0.54965  1.0000
  C   C185      1.0  0.08004  0.45559  0.57804  1.0000
  C   C186      1.0  0.04045999999999999  0.41448  0.37426  1.0000
  C   C187      1.0  0.41257  0.98375  0.44586  1.0000
  C   C188      1.0  0.45303  0.03097  0.41417  1.0000
  C   C189      1.0  0.33754  0.91644  0.40941  1.0000
  C   C190      1.0  0.4130100000000001  0.96323  0.54963  1.0000
  C   C191      1.0  0.37558  0.91996  0.5780800000000001  1.0000
  C   C192      1.0  0.374  0.95952  0.37429000000000007  1.0000
  C   C193      1.0  0.21874  0.78126  0.37069  1.0000
  C   C194      1.0  0.21874999999999997  0.78125  0.24209000000000003  1.0000
  C   C195      1.0  0.19211  0.67638  0.76115  1.0000
  C   C196      1.0  0.21211999999999995  0.6274899999999999  0.89657  1.0000
  C   C197      1.0  0.19658  0.63595  0.7946400000000001  1.0000
  C   C198      1.0  0.23976999999999984  0.7602299999999997  0.18175  1.0000
  C   C199      1.0  0.23938000000000006  0.76062  0.06314000000000002  1.0000
  C   C200      1.0  0.2392799999999999  0.6397799999999999  0.08226  1.0000
  C   C201      1.0  0.19792999999999994  0.80207  0.17995000000000003  1.0000
  C   C202      1.0  0.19903000000000004  0.8009699999999998  0.06148000000000001  1.0000
  C   C203      1.0  0.19214999999999996  0.51576  0.76113  1.0000
  C   C204      1.0  0.21212999999999993  0.5846599999999997  0.8965600000000002  1.0000
  C   C205      1.0  0.19659999999999997  0.56066  0.7946200000000001  1.0000
  C   C206      1.0  0.23927999999999985  0.5995199999999998  0.08225  1.0000
  C   C207      1.0  0.21876  0.43747  0.37068  1.0000
  C   C208      1.0  0.21876999999999994  0.4375099999999999  0.24206  1.0000
  C   C209      1.0  0.32361  0.51574  0.76115  1.0000
  C   C210      1.0  0.37254  0.58462  0.89658  1.0000
  C   C211      1.0  0.36408  0.5606199999999998  0.7946600000000003  1.0000
  C   C212      1.0  0.23977  0.47955  0.18173  1.0000
  C   C213      1.0  0.23936999999999994  0.4787799999999999  0.0631  1.0000
  C   C214      1.0  0.3602200000000001  0.59953  0.08222000000000002  1.0000
  C   C215      1.0  0.19795  0.39588  0.17988000000000004  1.0000
  C   C216      1.0  0.19904  0.39808  0.0614  1.0000
  C   C217      1.0  0.48425999999999997  0.6763899999999998  0.76115  1.0000
  C   C218      1.0  0.41538  0.62746  0.89658  1.0000
  C   C219      1.0  0.43938  0.63592  0.7946600000000003  1.0000
  C   C220      1.0  0.40047999999999995  0.6397799999999999  0.08222000000000002  1.0000
  C   C221      1.0  0.5625299999999999  0.7812399999999999  0.37068  1.0000
  C   C222      1.0  0.5624999999999999  0.7812299999999998  0.24206  1.0000
  C   C223      1.0  0.48424  0.80785  0.76113  1.0000
  C   C224      1.0  0.41535  0.78788  0.8965600000000002  1.0000
  C   C225      1.0  0.43934  0.8034  0.7946200000000001  1.0000
  C   C226      1.0  0.5204499999999997  0.7602299999999997  0.18173  1.0000
  C   C227      1.0  0.52122  0.76063  0.0631  1.0000
  C   C228      1.0  0.40048  0.76072  0.08225  1.0000
  C   C229      1.0  0.6041299999999998  0.8020499999999999  0.17988000000000004  1.0000
  C   C230      1.0  0.60192  0.80096  0.06141  1.0000
  C   C231      1.0  0.32362  0.80789  0.76115  1.0000
  C   C232      1.0  0.37250999999999995  0.7878899999999999  0.89657  1.0000
  C   C233      1.0  0.36406  0.80342  0.7946400000000001  1.0000
  C   C234      1.0  0.3602200000000001  0.76072  0.08226  1.0000
  S   S1        1.0  0.8498399999999999  0.9249399999999998  0.0275  1.0000
  S   S2        1.0  0.07505999999999992  0.9249399999999998  0.027390000000000008  1.0000
  S   S3        1.0  0.07506  0.15017  0.0275  1.0000
  S   S4        1.0  0.51754  0.25873  0.36331  1.0000
  S   S5        1.0  0.7412300000000002  0.25877  0.36328000000000005  1.0000
  S   S6        1.0  0.74127  0.48245999999999994  0.36331  1.0000
  S   S7        1.0  0.18216  0.59108  0.69796  1.0000
  S   S8        1.0  0.40896  0.59105  0.6979900000000002  1.0000
  S   S9        1.0  0.40892  0.81784  0.69796  1.0000
  N   N1        1.0  0.88622  0.11378  0.33547000000000005  1.0000
  N   N2        1.0  0.7697499999999999  0.9958899999999998  0.84201  1.0000
  N   N3        1.0  0.67105  0.10757999999999997  0.1772  1.0000
  N   N4        1.0  0.88621  0.77244  0.33539  1.0000
  N   N5        1.0  0.00409999999999999  0.77386  0.8420500000000002  1.0000
  N   N6        1.0  0.89242  0.5634699999999998  0.17728000000000002  1.0000
  N   N7        1.0  0.22756000000000004  0.11379  0.33539  1.0000
  N   N8        1.0  0.22612  0.23028  0.84198  1.0000
  N   N9        1.0  0.43653999999999993  0.3288999999999999  0.17726000000000003  1.0000
  N   N10       1.0  0.004110000000000006  0.23025  0.84201  1.0000
  N   N11       1.0  0.89242  0.32895  0.17721000000000003  1.0000
  N   N12       1.0  0.22615  0.9959  0.8420500000000002  1.0000
  N   N13       1.0  0.43653  0.10757999999999997  0.17728000000000002  1.0000
  N   N14       1.0  0.76972  0.77388  0.84198  1.0000
  N   N15       1.0  0.6711  0.56346  0.17726000000000003  1.0000
  N   N16       1.0  0.55288  0.44713  0.66811  1.0000
  N   N17       1.0  0.33814  0.44134  0.5095700000000001  1.0000
  N   N18       1.0  0.55286  0.10571  0.66811  1.0000
  N   N19       1.0  0.55868  0.89679  0.5095700000000001  1.0000
  N   N20       1.0  0.8942899999999999  0.44713999999999987  0.66811  1.0000
  N   N21       1.0  0.10321000000000002  0.66188  0.50966  1.0000
  N   N22       1.0  0.55867  0.66186  0.5095700000000001  1.0000
  N   N23       1.0  0.10321000000000002  0.44132999999999994  0.5095700000000001  1.0000
  N   N24       1.0  0.3381300000000001  0.89679  0.50965  1.0000
  N   N25       1.0  0.21929999999999994  0.7807  0.00365  1.0000
  N   N26       1.0  0.21928999999999993  0.4386199999999999  0.00357  1.0000
  N   N27       1.0  0.56139  0.78071  0.00357  1.0000
  O   O1        1.0  0.8922  0.1078  0.97794  1.0000
  O   O2        1.0  0.62223  0.88064  0.6444  1.0000
  O   O3        1.0  0.85047  0.08023  0.7479300000000002  1.0000
  O   O4        1.0  0.84602  0.00976  0.98819  1.0000
  O   O5        1.0  0.8929100000000001  0.99024  0.32009  1.0000
  O   O6        1.0  0.8688800000000002  0.0413  0.16619  1.0000
  O   O7        1.0  0.6145200000000002  0.8505399999999999  0.82307  1.0000
  O   O8        1.0  0.84589  0.83621  0.9882  1.0000
  O   O9        1.0  0.8929100000000001  0.90273  0.32007  1.0000
  O   O10       1.0  0.86887  0.8276399999999998  0.16614000000000004  1.0000
  O   O11       1.0  0.91977  0.14953  0.7479300000000002  1.0000
  O   O12       1.0  0.7857  0.07561  0.97664  1.0000
  O   O13       1.0  0.81624  0.09732999999999999  0.1551  1.0000
  O   O14       1.0  0.5591800000000001  0.11834999999999998  0.3128  1.0000
  O   O15       1.0  0.592  0.04469  0.31258  1.0000
  O   O16       1.0  0.58702  0.10464999999999998  0.08091000000000001  1.0000
  O   O17       1.0  0.65799  0.17131  0.32112  1.0000
  O   O18       1.0  0.9587000000000002  0.13112  0.16619  1.0000
  O   O19       1.0  0.90267  0.18376  0.15509  1.0000
  O   O20       1.0  0.89219  0.78435  0.9782400000000001  1.0000
  O   O21       1.0  0.11936000000000001  0.7416  0.6445  1.0000
  O   O22       1.0  0.91961  0.77004  0.7479000000000001  1.0000
  O   O23       1.0  0.9901400000000001  0.83637  0.9879900000000003  1.0000
  O   O24       1.0  0.009779999999999857  0.9026699999999998  0.31998000000000004  1.0000
  O   O25       1.0  0.9587199999999999  0.82763  0.16618  1.0000
  O   O26       1.0  0.14948  0.76405  0.8231300000000001  1.0000
  O   O27       1.0  0.16363  0.00986  0.988  1.0000
  O   O28       1.0  0.09732999999999985  0.9902199999999998  0.31998000000000004  1.0000
  O   O29       1.0  0.17237  0.04128  0.16618  1.0000
  O   O30       1.0  0.8504899999999999  0.7703699999999998  0.74778  1.0000
  O   O31       1.0  0.9243399999999999  0.7100299999999998  0.97647  1.0000
  O   O32       1.0  0.9026699999999999  0.71891  0.15496000000000001  1.0000
  O   O33       1.0  0.88165  0.4408199999999999  0.3128  1.0000
  O   O34       1.0  0.9553300000000005  0.54732  0.31256  1.0000
  O   O35       1.0  0.89531  0.4823599999999999  0.08090000000000001  1.0000
  O   O36       1.0  0.8287300000000002  0.48669  0.32122  1.0000
  O   O37       1.0  0.81624  0.7188999999999999  0.15497  1.0000
  O   O38       1.0  0.21564999999999995  0.10780999999999998  0.9782500000000001  1.0000
  O   O39       1.0  0.25849000000000005  0.3778199999999999  0.64458  1.0000
  O   O40       1.0  0.22962  0.14951  0.74778  1.0000
  O   O41       1.0  0.16379  0.15411  0.98819  1.0000
  O   O42       1.0  0.09726999999999998  0.10708999999999999  0.32007  1.0000
  O   O43       1.0  0.17236  0.13113  0.16614000000000004  1.0000
  O   O44       1.0  0.23597  0.38548  0.8231400000000001  1.0000
  O   O45       1.0  0.9902499999999999  0.15398  0.98819  1.0000
  O   O46       1.0  0.009759999999999998  0.10708999999999999  0.32009  1.0000
  O   O47       1.0  0.22996999999999998  0.08039999999999999  0.7479000000000001  1.0000
  O   O48       1.0  0.28989  0.21438  0.9765900000000001  1.0000
  O   O49       1.0  0.2811  0.18376999999999993  0.15497  1.0000
  O   O50       1.0  0.55924  0.44077  0.31282  1.0000
  O   O51       1.0  0.45272  0.40803  0.31251  1.0000
  O   O52       1.0  0.51765  0.41294  0.08093000000000002  1.0000
  O   O53       1.0  0.51328  0.34196  0.3212  1.0000
  O   O54       1.0  0.28109  0.09732999999999999  0.15496000000000001  1.0000
  O   O55       1.0  0.11936  0.37777  0.6444  1.0000
  O   O56       1.0  0.14946  0.38548  0.82307  1.0000
  O   O57       1.0  0.9244  0.2143  0.97664  1.0000
  O   O58       1.0  0.9553100000000001  0.40801  0.31258  1.0000
  O   O59       1.0  0.8953499999999999  0.4129799999999999  0.08091000000000001  1.0000
  O   O60       1.0  0.82869  0.34201  0.32112  1.0000
  O   O61       1.0  0.2584  0.88064  0.64451  1.0000
  O   O62       1.0  0.23596  0.85052  0.8231300000000001  1.0000
  O   O63       1.0  0.28997  0.07567  0.97647  1.0000
  O   O64       1.0  0.45268  0.044669999999999994  0.31256  1.0000
  O   O65       1.0  0.5176400000000001  0.1047  0.08090000000000001  1.0000
  O   O66       1.0  0.51331  0.17127  0.32122  1.0000
  O   O67       1.0  0.62218  0.74151  0.64458  1.0000
  O   O68       1.0  0.6145200000000002  0.7640399999999999  0.8231400000000001  1.0000
  O   O69       1.0  0.7856200000000002  0.71011  0.9765900000000001  1.0000
  O   O70       1.0  0.59198  0.54728  0.31251  1.0000
  O   O71       1.0  0.58706  0.48235  0.08093000000000002  1.0000
  O   O72       1.0  0.6580400000000002  0.48672  0.3212  1.0000
  O   O73       1.0  0.55964  0.3236  0.6568500000000002  1.0000
  O   O74       1.0  0.53549  0.37466  0.4985  1.0000
  O   O75       1.0  0.55965  0.23603  0.65688  1.0000
  O   O76       1.0  0.53549  0.16077  0.4985300000000001  1.0000
  O   O77       1.0  0.48285  0.43057  0.4911800000000001  1.0000
  O   O78       1.0  0.22602999999999995  0.45207999999999987  0.64623  1.0000
  O   O79       1.0  0.25351  0.43765  0.41656000000000004  1.0000
  O   O80       1.0  0.32492  0.50312  0.6576  1.0000
  O   O81       1.0  0.62534  0.46451  0.4985  1.0000
  O   O82       1.0  0.56944  0.51715  0.4911800000000001  1.0000
  O   O83       1.0  0.6764  0.23603  0.65686  1.0000
  O   O84       1.0  0.6253  0.16079  0.49843000000000004  1.0000
  O   O85       1.0  0.76397  0.3236  0.65686  1.0000
  O   O86       1.0  0.8392099999999999  0.37469999999999987  0.49843000000000004  1.0000
  O   O87       1.0  0.56944  0.05228  0.4912200000000001  1.0000
  O   O88       1.0  0.54793  0.77397  0.64623  1.0000
  O   O89       1.0  0.5623399999999998  0.8158199999999998  0.41655000000000003  1.0000
  O   O90       1.0  0.49687  0.8217799999999998  0.65759  1.0000
  O   O91       1.0  0.48284  0.05227  0.49119  1.0000
  O   O92       1.0  0.76398  0.44035999999999986  0.65688  1.0000
  O   O93       1.0  0.8392300000000003  0.46451  0.4985300000000001  1.0000
  O   O94       1.0  0.6764099999999998  0.44035999999999986  0.6568500000000002  1.0000
  O   O95       1.0  0.9477300000000001  0.51716  0.49119  1.0000
  O   O96       1.0  0.22608  0.77393  0.64627  1.0000
  O   O97       1.0  0.18417  0.7464899999999999  0.41655000000000003  1.0000
  O   O98       1.0  0.17815999999999985  0.6750599999999998  0.65764  1.0000
  O   O99       1.0  0.94773  0.43055999999999994  0.4912200000000001  1.0000
  O   O100      1.0  0.56235  0.7464899999999999  0.41656000000000004  1.0000
  O   O101      1.0  0.49688  0.67508  0.6576  1.0000
  O   O102      1.0  0.18417999999999995  0.4376699999999999  0.41655000000000003  1.0000
  O   O103      1.0  0.17823  0.50313  0.65759  1.0000
  O   O104      1.0  0.25351  0.81583  0.41655000000000003  1.0000
  O   O105      1.0  0.3249399999999999  0.8218399999999998  0.65764  1.0000
  O   O106      1.0  0.22645000000000004  0.65702  0.98934  1.0000
  O   O107      1.0  0.20210000000000006  0.70789  0.83443  1.0000
  O   O108      1.0  0.22644999999999996  0.5694599999999999  0.9893200000000002  1.0000
  O   O109      1.0  0.20214  0.49425  0.8343900000000002  1.0000
  O   O110      1.0  0.2921099999999999  0.7978999999999999  0.8344200000000003  1.0000
  O   O111      1.0  0.3430000000000001  0.56944  0.9893100000000001  1.0000
  O   O112      1.0  0.29208999999999996  0.4942399999999999  0.8343800000000001  1.0000
  O   O113      1.0  0.43055999999999994  0.6570099999999999  0.9893100000000001  1.0000
  O   O114      1.0  0.5057599999999998  0.7079099999999998  0.8343800000000001  1.0000
  O   O115      1.0  0.43055  0.77355  0.9893200000000002  1.0000
  O   O116      1.0  0.50576  0.79787  0.8343900000000002  1.0000
  O   O117      1.0  0.3429800000000001  0.77355  0.98934  1.0000
