data_image0
_chemical_formula_structural       Co6H42C78N6O24
_chemical_formula_sum              "Co6 H42 C78 N6 O24"
_cell_length_a       11.05
_cell_length_b       11.05
_cell_length_c       27.772
_cell_angle_alpha    90.0
_cell_angle_beta     90.0
_cell_angle_gamma    119.99999999999999

_space_group_name_H-M_alt    "P 1"
_space_group_IT_number       1

loop_
  _space_group_symop_operation_xyz
  'x, y, z'

loop_
  _atom_site_type_symbol
  _atom_site_label
  _atom_site_symmetry_multiplicity
  _atom_site_fract_x
  _atom_site_fract_y
  _atom_site_fract_z
  _atom_site_occupancy
  Co  Co1       1.0  0.07698999999999988  0.8307699999999999  0.97075  1.0000
  Co  Co2       1.0  0.75378  0.92301  0.63742  1.0000
  Co  Co3       1.0  0.16923  0.24622000000000002  0.30408  1.0000
  Co  Co4       1.0  0.24622000000000002  0.16923  0.02925  1.0000
  Co  Co5       1.0  0.8307700000000001  0.07699  0.36258000000000007  1.0000
  Co  Co6       1.0  0.9230100000000001  0.75378  0.69592  1.0000
  H   H1        1.0  0.7464  0.5396  0.7769  1.0000
  H   H2        1.0  0.6635000000000001  0.1573  0.7398000000000001  1.0000
  H   H3        1.0  0.9432  0.5008  0.6674  1.0000
  H   H4        1.0  0.6931  0.44710000000000005  0.8507  1.0000
  H   H5        1.0  0.5457  0.3524  0.9164  1.0000
  H   H6        1.0  0.2981  0.0028  0.8397  1.0000
  H   H7        1.0  0.4485000000000001  0.0964  0.7748  1.0000
  H   H8        1.0  0.7932  0.2536  0.44357  1.0000
  H   H9        1.0  0.4938  0.3365  0.40647  1.0000
  H   H10       1.0  0.5576  0.0568  0.33407  1.0000
  H   H11       1.0  0.7540000000000001  0.3069  0.51737  1.0000
  H   H12       1.0  0.8067  0.45430000000000004  0.58307  1.0000
  H   H13       1.0  0.7047  0.7019  0.50637  1.0000
  H   H14       1.0  0.6479000000000001  0.5515  0.44147000000000003  1.0000
  H   H15       1.0  0.4604  0.2068  0.11023  1.0000
  H   H16       1.0  0.8427  0.5062  0.07313  1.0000
  H   H17       1.0  0.4992  0.4424  0.0007300000000000001  1.0000
  H   H18       1.0  0.5529  0.246  0.18403  1.0000
  H   H19       1.0  0.6476  0.1933  0.24973  1.0000
  H   H20       1.0  0.9972  0.2953  0.17303000000000002  1.0000
  H   H21       1.0  0.9036000000000001  0.3521  0.10813  1.0000
  H   H22       1.0  0.2068  0.4604  0.22310000000000002  1.0000
  H   H23       1.0  0.5062  0.8427  0.2602  1.0000
  H   H24       1.0  0.4424000000000001  0.4992  0.33260000000000006  1.0000
  H   H25       1.0  0.246  0.5529  0.1493  1.0000
  H   H26       1.0  0.19330000000000006  0.6476  0.0836  1.0000
  H   H27       1.0  0.29529999999999995  0.9971999999999999  0.1603  1.0000
  H   H28       1.0  0.35209999999999997  0.9035999999999998  0.2252  1.0000
  H   H29       1.0  0.5395999999999999  0.7463999999999998  0.55643  1.0000
  H   H30       1.0  0.15730000000000005  0.6635  0.59353  1.0000
  H   H31       1.0  0.5008  0.9432  0.66593  1.0000
  H   H32       1.0  0.4470999999999999  0.6930999999999999  0.48263  1.0000
  H   H33       1.0  0.3524  0.5457  0.41693  1.0000
  H   H34       1.0  0.002800000000000017  0.2981  0.49363  1.0000
  H   H35       1.0  0.0964  0.4485  0.55853  1.0000
  H   H36       1.0  0.25360000000000005  0.7932  0.8897700000000001  1.0000
  H   H37       1.0  0.3365  0.4938  0.92687  1.0000
  H   H38       1.0  0.056799999999999996  0.5576  0.99927  1.0000
  H   H39       1.0  0.30689999999999995  0.754  0.81597  1.0000
  H   H40       1.0  0.4543  0.8067  0.75027  1.0000
  H   H41       1.0  0.7019  0.7047  0.82697  1.0000
  H   H42       1.0  0.5514999999999999  0.6478999999999999  0.89187  1.0000
  C   C1        1.0  0.7599999999999999  0.48069999999999996  0.75644  1.0000
  C   C2        1.0  0.6858000000000001  0.337  0.76539  1.0000
  C   C3        1.0  0.7094  0.2532  0.73474  1.0000
  C   C4        1.0  0.8026000000000001  0.3116  0.6957600000000002  1.0000
  C   C5        1.0  0.8755  0.4588999999999999  0.69122  1.0000
  C   C6        1.0  0.832  0.2243  0.66178  1.0000
  C   C7        1.0  0.5871000000000002  0.2818  0.8067  1.0000
  C   C8        1.0  0.6156000000000001  0.3579  0.84878  1.0000
  C   C9        1.0  0.5271  0.2997  0.88837  1.0000
  C   C10       1.0  0.41020000000000006  0.1633  0.88715  1.0000
  C   C11       1.0  0.3787  0.08969999999999999  0.8425  1.0000
  C   C12       1.0  0.4675  0.1468  0.80331  1.0000
  C   C13       1.0  0.3172  0.0973  0.92952  1.0000
  C   C14       1.0  0.7207  0.24  0.42311000000000004  1.0000
  C   C15       1.0  0.6512000000000001  0.3142  0.43206  1.0000
  C   C16       1.0  0.5438  0.2906  0.40141  1.0000
  C   C17       1.0  0.509  0.1974  0.3624299999999999  1.0000
  C   C18       1.0  0.5834  0.12449999999999999  0.35789  1.0000
  C   C19       1.0  0.39230000000000004  0.168  0.3284500000000001  1.0000
  C   C20       1.0  0.6947  0.4129  0.47337  1.0000
  C   C21       1.0  0.7423  0.3844  0.51545  1.0000
  C   C22       1.0  0.7725999999999997  0.47289999999999993  0.55504  1.0000
  C   C23       1.0  0.7531  0.5898  0.55382  1.0000
  C   C24       1.0  0.711  0.6213  0.50917  1.0000
  C   C25       1.0  0.6793  0.5325  0.46998000000000006  1.0000
  C   C26       1.0  0.7801  0.6828  0.59619  1.0000
  C   C27       1.0  0.5193  0.2793  0.08977  1.0000
  C   C28       1.0  0.663  0.3488  0.09872  1.0000
  C   C29       1.0  0.7468  0.4562  0.06807  1.0000
  C   C30       1.0  0.6884  0.491  0.02909  1.0000
  C   C31       1.0  0.5411  0.4166  0.02455  1.0000
  C   C32       1.0  0.7757  0.6077  0.99511  1.0000
  C   C33       1.0  0.7182  0.3053  0.14003  1.0000
  C   C34       1.0  0.6421000000000001  0.2577  0.18211000000000002  1.0000
  C   C35       1.0  0.7003  0.2274  0.2217  1.0000
  C   C36       1.0  0.8367  0.2469  0.22048  1.0000
  C   C37       1.0  0.9103000000000002  0.289  0.17583  1.0000
  C   C38       1.0  0.8532000000000001  0.3207  0.13664  1.0000
  C   C39       1.0  0.9027000000000001  0.2199  0.26285  1.0000
  C   C40       1.0  0.2793  0.5193  0.24356  1.0000
  C   C41       1.0  0.3488  0.663  0.23461  1.0000
  C   C42       1.0  0.4562  0.7468  0.26526  1.0000
  C   C43       1.0  0.491  0.6884  0.30424  1.0000
  C   C44       1.0  0.4166  0.5411  0.30878  1.0000
  C   C45       1.0  0.6076999999999998  0.7756999999999998  0.33821999999999997  1.0000
  C   C46       1.0  0.3053  0.7182  0.1933  1.0000
  C   C47       1.0  0.25769999999999993  0.6420999999999999  0.15122  1.0000
  C   C48       1.0  0.22739999999999996  0.7002999999999999  0.11163  1.0000
  C   C49       1.0  0.2469  0.8367  0.11285  1.0000
  C   C50       1.0  0.289  0.9103  0.1575  1.0000
  C   C51       1.0  0.3207  0.8532  0.19669  1.0000
  C   C52       1.0  0.2199  0.9027  0.07048  1.0000
  C   C53       1.0  0.4807  0.76  0.57689  1.0000
  C   C54       1.0  0.33699999999999997  0.6857999999999999  0.56794  1.0000
  C   C55       1.0  0.2532  0.7094  0.59859  1.0000
  C   C56       1.0  0.3116  0.8026  0.63757  1.0000
  C   C57       1.0  0.4588999999999999  0.8754999999999998  0.6421100000000001  1.0000
  C   C58       1.0  0.22429999999999997  0.8319999999999999  0.67155  1.0000
  C   C59       1.0  0.2818  0.5871  0.52663  1.0000
  C   C60       1.0  0.3579  0.6156  0.48455  1.0000
  C   C61       1.0  0.2997000000000001  0.5271  0.44495999999999997  1.0000
  C   C62       1.0  0.1633  0.4102  0.44618  1.0000
  C   C63       1.0  0.08970000000000003  0.3787  0.49083  1.0000
  C   C64       1.0  0.14680000000000004  0.4675  0.53002  1.0000
  C   C65       1.0  0.09730000000000001  0.3172  0.40381  1.0000
  C   C66       1.0  0.24000000000000007  0.7207  0.91023  1.0000
  C   C67       1.0  0.3142  0.6512  0.90128  1.0000
  C   C68       1.0  0.2906  0.5438  0.93193  1.0000
  C   C69       1.0  0.1974  0.509  0.97091  1.0000
  C   C70       1.0  0.1245  0.5834  0.9754500000000002  1.0000
  C   C71       1.0  0.168  0.3923  0.00489  1.0000
  C   C72       1.0  0.4129  0.6947  0.8599700000000001  1.0000
  C   C73       1.0  0.3844  0.7423  0.81789  1.0000
  C   C74       1.0  0.4729000000000001  0.7726  0.7783  1.0000
  C   C75       1.0  0.5898  0.7531  0.7795200000000001  1.0000
  C   C76       1.0  0.6213  0.711  0.8241700000000001  1.0000
  C   C77       1.0  0.5325  0.6793  0.86336  1.0000
  C   C78       1.0  0.6828000000000001  0.7800999999999999  0.73715  1.0000
  N   N1        1.0  0.8497000000000001  0.5375  0.71978  1.0000
  N   N2        1.0  0.6878000000000001  0.15029999999999996  0.38645  1.0000
  N   N3        1.0  0.4625  0.3122  0.05311  1.0000
  N   N4        1.0  0.3122  0.4625  0.28022  1.0000
  N   N5        1.0  0.5375  0.8497  0.61355  1.0000
  N   N6        1.0  0.1503  0.6878  0.94689  1.0000
  O   O1        1.0  0.2207000000000001  0.9746  0.92481  1.0000
  O   O2        1.0  0.3492  0.1679  0.96738  1.0000
  O   O3        1.0  0.7739  0.0964  0.67173  1.0000
  O   O4        1.0  0.9072000000000002  0.2818  0.6268299999999999  1.0000
  O   O5        1.0  0.7539  0.7793  0.59148  1.0000
  O   O6        1.0  0.8187  0.6507999999999999  0.63405  1.0000
  O   O7        1.0  0.3225  0.2261  0.3384  1.0000
  O   O8        1.0  0.3746  0.0928  0.2935  1.0000
  O   O9        1.0  0.025400000000000016  0.2461  0.25814  1.0000
  O   O10       1.0  0.8321000000000001  0.1813  0.30071  1.0000
  O   O11       1.0  0.9036000000000001  0.6775  0.00506  1.0000
  O   O12       1.0  0.7182000000000001  0.6254  0.96016  1.0000
  O   O13       1.0  0.24610000000000004  0.0254  0.07519  1.0000
  O   O14       1.0  0.1813  0.8321  0.03262  1.0000
  O   O15       1.0  0.6775  0.9035999999999998  0.32827  1.0000
  O   O16       1.0  0.6254  0.7182  0.37317  1.0000
  O   O17       1.0  0.9746  0.2207  0.40852  1.0000
  O   O18       1.0  0.16790000000000002  0.3492  0.36595000000000005  1.0000
  O   O19       1.0  0.0964  0.7739  0.6616  1.0000
  O   O20       1.0  0.2818000000000001  0.9072000000000001  0.7065  1.0000
  O   O21       1.0  0.7793000000000001  0.7539  0.74186  1.0000
  O   O22       1.0  0.6508000000000002  0.8187  0.69929  1.0000
  O   O23       1.0  0.22609999999999994  0.32249999999999995  0.99494  1.0000
  O   O24       1.0  0.09280000000000004  0.3746  0.03984  1.0000
