data_image0
_chemical_formula_structural       Cu12H24C72O48
_chemical_formula_sum              "Cu12 H24 C72 O48"
_cell_length_a       18.78185
_cell_length_b       18.634989999999995
_cell_length_c       18.82024
_cell_angle_alpha    60.258799999999994
_cell_angle_beta     59.92763000000001
_cell_angle_gamma    60.155269999999994

_space_group_name_H-M_alt    "P 1"
_space_group_IT_number       1

loop_
  _space_group_symop_operation_xyz
  'x, y, z'

loop_
  _atom_site_type_symbol
  _atom_site_label
  _atom_site_symmetry_multiplicity
  _atom_site_fract_x
  _atom_site_fract_y
  _atom_site_fract_z
  _atom_site_occupancy
  Cu  Cu1       1.0  0.06626999999999993  0.4978100000000001  0.93278  1.0000
  Cu  Cu2       1.0  0.49912999999999996  0.06638  0.50314  1.0000
  Cu  Cu3       1.0  0.9358  0.49748000000000003  0.06288  1.0000
  Cu  Cu4       1.0  0.49962000000000023  0.9348400000000001  0.50301  1.0000
  Cu  Cu5       1.0  0.06575  0.93405  0.49877  1.0000
  Cu  Cu6       1.0  0.4981300000000001  0.50013  0.93598  1.0000
  Cu  Cu7       1.0  0.9361800000000001  0.06513  0.49979  1.0000
  Cu  Cu8       1.0  0.49792  0.50284  0.06496  1.0000
  Cu  Cu9       1.0  0.06402000000000008  0.5021899999999999  0.49746  1.0000
  Cu  Cu10      1.0  0.5019600000000001  0.93333  0.06727  1.0000
  Cu  Cu11      1.0  0.9341900000000002  0.5004299999999998  0.49813  1.0000
  Cu  Cu12      1.0  0.5033900000000002  0.06425999999999991  0.93791  1.0000
  H   H1        1.0  0.23540000000000016  0.23142999999999994  0.00249  1.0000
  H   H2        1.0  0.23316999999999996  0.23129  0.53462  1.0000
  H   H3        1.0  0.005080000000000036  0.52096  0.23511  1.0000
  H   H4        1.0  0.52301  0.005220000000000013  0.241  1.0000
  H   H5        1.0  0.2339  0.00018000000000000185  0.53353  1.0000
  H   H6        1.0  0.23425999999999997  0.52355  0.00565  1.0000
  H   H7        1.0  0.0042900000000000065  0.23314999999999997  0.23028  1.0000
  H   H8        1.0  0.5249199999999999  0.23706  0.23789  1.0000
  H   H9        1.0  0.2335500000000001  0.5228  0.23519  1.0000
  H   H10       1.0  0.23607  0.005499999999999988  0.23421  1.0000
  H   H11       1.0  0.006479999999999989  0.23155  0.52906  1.0000
  H   H12       1.0  0.5290600000000001  0.2316  0.00953  1.0000
  H   H13       1.0  0.77027  0.76467  0.99638  1.0000
  H   H14       1.0  0.7672100000000002  0.7703599999999998  0.46313  1.0000
  H   H15       1.0  0.47719  0.9957500000000001  0.76714  1.0000
  H   H16       1.0  0.99302  0.4776  0.7614  1.0000
  H   H17       1.0  0.99683  0.77051  0.46238  1.0000
  H   H18       1.0  0.4670500000000003  0.7684199999999995  0.99776  1.0000
  H   H19       1.0  0.7672100000000003  0.9939799999999999  0.76748  1.0000
  H   H20       1.0  0.7607600000000001  0.4847499999999998  0.76009  1.0000
  H   H21       1.0  0.4672299999999999  0.76904  0.7684  1.0000
  H   H22       1.0  0.9966600000000001  0.76378  0.76437  1.0000
  H   H23       1.0  0.7663200000000001  0.99925  0.46871  1.0000
  H   H24       1.0  0.764  0.47692  0.99109  1.0000
  C   C1        1.0  0.75312  0.47963  0.88093  1.0000
  C   C2        1.0  0.46549  0.75962  0.8884  1.0000
  C   C3        1.0  0.8873100000000002  0.8843399999999999  0.75617  1.0000
  C   C4        1.0  0.8869100000000002  0.89009  0.46418  1.0000
  C   C5        1.0  0.75942  0.88459  0.88713  1.0000
  C   C6        1.0  0.4705900000000001  0.88741  0.88781  1.0000
  C   C7        1.0  0.8873000000000002  0.76125  0.46113  1.0000
  C   C8        1.0  0.88183  0.48034999999999994  0.75156  1.0000
  C   C9        1.0  0.7577200000000005  0.89033  0.46418  1.0000
  C   C10       1.0  0.47106000000000003  0.8876200000000001  0.75859  1.0000
  C   C11       1.0  0.8837799999999999  0.47631000000000007  0.88139  1.0000
  C   C12       1.0  0.8888100000000001  0.75535  0.8854  1.0000
  C   C13       1.0  0.52858  0.24373000000000003  0.11805  1.0000
  C   C14       1.0  0.24311  0.52416  0.11538  1.0000
  C   C15       1.0  0.11478000000000002  0.114  0.24213  1.0000
  C   C16       1.0  0.11500000000000002  0.11072999999999997  0.53251  1.0000
  C   C17       1.0  0.11437000000000004  0.24103999999999998  0.11108  1.0000
  C   C18       1.0  0.11443999999999997  0.52349  0.11494  1.0000
  C   C19       1.0  0.24257999999999993  0.11044000000000001  0.53566  1.0000
  C   C20       1.0  0.52469  0.11634999999999998  0.24846  1.0000
  C   C21       1.0  0.11423000000000011  0.2410499999999999  0.53339  1.0000
  C   C22       1.0  0.11417000000000005  0.52297  0.2442  1.0000
  C   C23       1.0  0.52761  0.11302000000000001  0.11992  1.0000
  C   C24       1.0  0.24474  0.11330000000000001  0.11345999999999999  1.0000
  C   C25       1.0  0.07071  0.07094000000000002  0.33611  1.0000
  C   C26       1.0  0.07155999999999996  0.06667  0.52567  1.0000
  C   C27       1.0  0.33616000000000007  0.52014  0.07129  1.0000
  C   C28       1.0  0.52486  0.33721  0.07222  1.0000
  C   C29       1.0  0.06982999999999993  0.33565000000000006  0.52717  1.0000
  C   C30       1.0  0.06985999999999995  0.51859  0.33709  1.0000
  C   C31       1.0  0.33891  0.06948  0.07046  1.0000
  C   C32       1.0  0.52394  0.06778  0.07543  1.0000
  C   C33       1.0  0.07060999999999999  0.51863  0.07022  1.0000
  C   C34       1.0  0.06978999999999999  0.33391  0.06598  1.0000
  C   C35       1.0  0.3356700000000002  0.06613000000000001  0.53133  1.0000
  C   C36       1.0  0.5187  0.07299999999999998  0.34167  1.0000
  C   C37       1.0  0.9307599999999999  0.9282799999999999  0.66224  1.0000
  C   C38       1.0  0.9307800000000002  0.9329999999999999  0.4719  1.0000
  C   C39       1.0  0.46962000000000015  0.6660499999999999  0.93255  1.0000
  C   C40       1.0  0.6599800000000002  0.48347000000000007  0.9261  1.0000
  C   C41       1.0  0.6635899999999999  0.9336400000000001  0.47236  1.0000
  C   C42       1.0  0.47870000000000007  0.9308400000000001  0.66485  1.0000
  C   C43       1.0  0.9335400000000007  0.6617300000000002  0.92894  1.0000
  C   C44       1.0  0.9293900000000002  0.47813  0.92639  1.0000
  C   C45       1.0  0.47805000000000003  0.9303100000000001  0.93187  1.0000
  C   C46       1.0  0.6660699999999998  0.9289900000000001  0.93224  1.0000
  C   C47       1.0  0.9310000000000003  0.66694  0.46712  1.0000
  C   C48       1.0  0.9261200000000002  0.48485999999999996  0.65856  1.0000
  C   C49       1.0  0.7972999999999999  0.47720999999999997  0.9243  1.0000
  C   C50       1.0  0.4671000000000002  0.80243  0.80219  1.0000
  C   C51       1.0  0.9308400000000006  0.7982  0.79881  1.0000
  C   C52       1.0  0.80064  0.93328  0.46515  1.0000
  C   C53       1.0  0.8016100000000002  0.9275099999999998  0.80053  1.0000
  C   C54       1.0  0.4668899999999998  0.8022100000000001  0.93132  1.0000
  C   C55       1.0  0.9303400000000001  0.80428  0.46177  1.0000
  C   C56       1.0  0.7953  0.48148  0.79436  1.0000
  C   C57       1.0  0.8010300000000002  0.8043799999999998  0.46204  1.0000
  C   C58       1.0  0.47262999999999994  0.9302300000000001  0.8014  1.0000
  C   C59       1.0  0.9261299999999996  0.4777  0.79498  1.0000
  C   C60       1.0  0.8031600000000001  0.79851  0.9296300000000001  1.0000
  C   C61       1.0  0.5290500000000002  0.19906  0.07599  1.0000
  C   C62       1.0  0.20002000000000006  0.52374  0.20138  1.0000
  C   C63       1.0  0.20154  0.07108  0.1998  1.0000
  C   C64       1.0  0.07201999999999995  0.19749  0.53221  1.0000
  C   C65       1.0  0.07115999999999997  0.19897000000000004  0.19751  1.0000
  C   C66       1.0  0.20032  0.52427  0.07209  1.0000
  C   C67       1.0  0.20026000000000002  0.06709  0.53443  1.0000
  C   C68       1.0  0.52649  0.20231  0.20448  1.0000
  C   C69       1.0  0.19960000000000006  0.19733000000000003  0.53523  1.0000
  C   C70       1.0  0.07127999999999993  0.52289  0.20115  1.0000
  C   C71       1.0  0.52536  0.07157  0.20628  1.0000
  C   C72       1.0  0.20121  0.19827  0.06895  1.0000
  O   O1        1.0  0.11275000000000009  0.9916699999999999  0.37163  1.0000
  O   O2        1.0  0.99283  0.10950000000000003  0.52642  1.0000
  O   O3        1.0  0.37167  0.52013  0.11424999999999999  1.0000
  O   O4        1.0  0.5232700000000001  0.37203  0.99462  1.0000
  O   O5        1.0  0.11233000000000004  0.37323999999999996  0.52558  1.0000
  O   O6        1.0  0.99155  0.51752  0.37317  1.0000
  O   O7        1.0  0.3761600000000004  0.1133099999999999  0.99329  1.0000
  O   O8        1.0  0.5216400000000001  0.98954  0.11843  1.0000
  O   O9        1.0  0.11334999999999994  0.51949  0.99144  1.0000
  O   O10       1.0  0.99069  0.36968000000000006  0.10818  1.0000
  O   O11       1.0  0.3723600000000003  0.9876399999999996  0.52938  1.0000
  O   O12       1.0  0.51698  0.11698999999999998  0.37777  1.0000
  O   O13       1.0  0.009429999999999904  0.8856300000000001  0.62584  1.0000
  O   O14       1.0  0.8887400000000001  0.011959999999999986  0.47248  1.0000
  O   O15       1.0  0.47176999999999997  0.62888  0.88941  1.0000
  O   O16       1.0  0.6240300000000002  0.4859999999999999  0.0037  1.0000
  O   O17       1.0  0.6271100000000001  0.8893  0.47512  1.0000
  O   O18       1.0  0.48095  0.00910000000000001  0.62859  1.0000
  O   O19       1.0  0.89129  0.6256399999999998  0.0076  1.0000
  O   O20       1.0  0.008350000000000126  0.4772099999999998  0.88389  1.0000
  O   O21       1.0  0.47995  0.88604  0.00944  1.0000
  O   O22       1.0  0.6301600000000002  0.007659999999999997  0.88953  1.0000
  O   O23       1.0  0.009009999999999975  0.63088  0.46852  1.0000
  O   O24       1.0  0.8832900000000001  0.48466000000000004  0.62299  1.0000
  O   O25       1.0  0.8852600000000003  0.004559999999999992  0.62529  1.0000
  O   O26       1.0  0.00634999999999995  0.8863999999999999  0.47937  1.0000
  O   O27       1.0  0.6232700000000001  0.48514  0.8832  1.0000
  O   O28       1.0  0.47335  0.62985  0.00948  1.0000
  O   O29       1.0  0.88612  0.62905  0.47313  1.0000
  O   O30       1.0  0.003070000000000111  0.48962999999999984  0.62158  1.0000
  O   O31       1.0  0.6288200000000004  0.8844499999999997  0.009  1.0000
  O   O32       1.0  0.48372  0.007249999999999979  0.88781  1.0000
  O   O33       1.0  0.8849500000000001  0.48241  0.00345  1.0000
  O   O34       1.0  0.009919999999999964  0.62445  0.88347  1.0000
  O   O35       1.0  0.6264200000000001  0.010569999999999986  0.47828  1.0000
  O   O36       1.0  0.48395000000000016  0.8854299999999999  0.62794  1.0000
  O   O37       1.0  0.99534  0.11717999999999999  0.37405  1.0000
  O   O38       1.0  0.11696999999999992  0.9905000000000002  0.5178  1.0000
  O   O39       1.0  0.5214600000000001  0.3755699999999999  0.11507  1.0000
  O   O40       1.0  0.37328  0.51535  0.99447  1.0000
  O   O41       1.0  0.3719000000000001  0.11122999999999998  0.52767  1.0000
  O   O42       1.0  0.5145699999999999  0.99544  0.37828  1.0000
  O   O43       1.0  0.11496000000000002  0.37104  0.98957  1.0000
  O   O44       1.0  0.9942400000000001  0.51228  0.1151  1.0000
  O   O45       1.0  0.5217799999999999  0.11190999999999998  0.99796  1.0000
  O   O46       1.0  0.3752400000000001  0.9921600000000002  0.11494  1.0000
  O   O47       1.0  0.9933200000000002  0.37212999999999996  0.52193  1.0000
  O   O48       1.0  0.11432999999999996  0.51483  0.37348000000000003  1.0000
