data_image0
_chemical_formula_structural       O5H2C4HCHC4HCHCHCHO5H2C4HCHC4HCHCHCHO5H2C4HCHC4HCHCHCHO5H2C4HCHC4HCHCHCHMg4
_chemical_formula_sum              "O20 H32 C48 Mg4"
_cell_length_a       7.1722
_cell_length_b       12.8109
_cell_length_c       17.3162
_cell_angle_alpha    90.0
_cell_angle_beta     90.933
_cell_angle_gamma    90.0

_space_group_name_H-M_alt    "P 1"
_space_group_IT_number       1

loop_
  _space_group_symop_operation_xyz
  'x, y, z'

loop_
  _atom_site_type_symbol
  _atom_site_label
  _atom_site_symmetry_multiplicity
  _atom_site_fract_x
  _atom_site_fract_y
  _atom_site_fract_z
  _atom_site_occupancy
  O   O1        1.0  0.1044  0.38175  0.06817  1.0000
  O   O2        1.0  0.40913  0.40769  0.08749  1.0000
  O   O3        1.0  0.08254  0.07144  0.39912  1.0000
  O   O4        1.0  0.38757  0.09719  0.41828  1.0000
  O   O5        1.0  0.74973  0.40901  0.00547  1.0000
  H   H1        1.0  0.7586  0.35230000000000006  0.9803  1.0000
  H   H2        1.0  0.7489  0.391  0.0515  1.0000
  C   C1        1.0  0.2571  0.36354  0.10175  1.0000
  C   C2        1.0  0.2389  0.10445  0.37877  1.0000
  C   C3        1.0  0.2556  0.28494  0.16699  1.0000
  C   C4        1.0  0.1022  0.28266  0.21313999999999994  1.0000
  H   H3        1.0  0.9991  0.3234  0.2002  1.0000
  C   C5        1.0  0.09769999999999997  0.21981  0.2797099999999999  1.0000
  H   H4        1.0  0.9904  0.2184  0.3091  1.0000
  C   C6        1.0  0.2485  0.16061  0.30203  1.0000
  C   C7        1.0  0.4083  0.15625  0.25359  1.0000
  C   C8        1.0  0.4098  0.21744  0.18448  1.0000
  C   C9        1.0  0.5616  0.20563  0.13379999999999995  1.0000
  H   H5        1.0  0.5620999999999999  0.2431  0.0878  1.0000
  C   C10       1.0  0.7068  0.14072  0.15099  1.0000
  H   H6        1.0  0.8057  0.135  0.11719999999999998  1.0000
  C   C11       1.0  0.7077  0.08256  0.21955  1.0000
  H   H7        1.0  0.808  0.039  0.23139999999999997  1.0000
  C   C12       1.0  0.5627999999999999  0.08942  0.2688399999999999  1.0000
  H   H8        1.0  0.5647  0.0494  0.31369999999999987  1.0000
  O   O6        1.0  0.8955999999999997  0.88175  0.43182999999999994  1.0000
  O   O7        1.0  0.5908699999999999  0.9076900000000001  0.41251  1.0000
  O   O8        1.0  0.91746  0.57144  0.10088  1.0000
  O   O9        1.0  0.61243  0.59719  0.08172  1.0000
  O   O10       1.0  0.25027  0.90901  0.49453  1.0000
  H   H9        1.0  0.2414  0.8523  0.5197  1.0000
  H   H10       1.0  0.2511  0.8910000000000002  0.4485  1.0000
  C   C13       1.0  0.7429  0.86354  0.39825  1.0000
  C   C14       1.0  0.7611  0.60445  0.12123  1.0000
  C   C15       1.0  0.7444  0.78494  0.33301  1.0000
  C   C16       1.0  0.8978  0.7826600000000001  0.28686  1.0000
  H   H11       1.0  0.0009000000000000018  0.8234  0.2998  1.0000
  C   C17       1.0  0.9022999999999999  0.71981  0.22028999999999996  1.0000
  H   H12       1.0  0.0096  0.7184  0.1909  1.0000
  C   C18       1.0  0.7515  0.66061  0.19797  1.0000
  C   C19       1.0  0.5916999999999999  0.6562500000000001  0.24640999999999996  1.0000
  C   C20       1.0  0.5902  0.71744  0.31552  1.0000
  C   C21       1.0  0.4384  0.70563  0.3661999999999999  1.0000
  H   H13       1.0  0.4379  0.7431  0.4122  1.0000
  C   C22       1.0  0.2932  0.64072  0.34901  1.0000
  H   H14       1.0  0.1943  0.6350000000000001  0.38279999999999986  1.0000
  C   C23       1.0  0.2923  0.58256  0.28045  1.0000
  H   H15       1.0  0.192  0.539  0.2686  1.0000
  C   C24       1.0  0.4372  0.58942  0.23115999999999998  1.0000
  H   H16       1.0  0.43529999999999996  0.5494  0.1863  1.0000
  O   O11       1.0  0.8955999999999998  0.61825  0.9318299999999999  1.0000
  O   O12       1.0  0.5908699999999999  0.59231  0.9125099999999998  1.0000
  O   O13       1.0  0.91746  0.92856  0.60088  1.0000
  O   O14       1.0  0.61243  0.9028100000000001  0.58172  1.0000
  O   O15       1.0  0.25027  0.59099  0.9945299999999999  1.0000
  H   H17       1.0  0.2414  0.6477000000000002  0.0197  1.0000
  H   H18       1.0  0.2511  0.609  0.9485  1.0000
  C   C25       1.0  0.7429  0.63646  0.89825  1.0000
  C   C26       1.0  0.7611  0.89555  0.6212299999999997  1.0000
  C   C27       1.0  0.7444000000000001  0.71506  0.83301  1.0000
  C   C28       1.0  0.8978  0.71734  0.78686  1.0000
  H   H19       1.0  0.0008999999999999999  0.6766  0.7998  1.0000
  C   C29       1.0  0.9022999999999999  0.7801900000000002  0.7202899999999998  1.0000
  H   H20       1.0  0.0096  0.7816  0.6909  1.0000
  C   C30       1.0  0.7515  0.83939  0.69797  1.0000
  C   C31       1.0  0.5916999999999999  0.84375  0.7464099999999998  1.0000
  C   C32       1.0  0.5902  0.78256  0.81552  1.0000
  C   C33       1.0  0.4384  0.79437  0.8662  1.0000
  H   H21       1.0  0.4379  0.7569000000000002  0.9122  1.0000
  C   C34       1.0  0.2932  0.85928  0.8490099999999998  1.0000
  H   H22       1.0  0.19429999999999994  0.865  0.8827999999999998  1.0000
  C   C35       1.0  0.2923  0.9174400000000001  0.78045  1.0000
  H   H23       1.0  0.192  0.961  0.7686  1.0000
  C   C36       1.0  0.4372  0.91058  0.73116  1.0000
  H   H24       1.0  0.43529999999999996  0.9506000000000002  0.6862999999999999  1.0000
  O   O16       1.0  0.1044  0.11825  0.5681699999999997  1.0000
  O   O17       1.0  0.40913  0.09231  0.58749  1.0000
  O   O18       1.0  0.08254  0.42856  0.89912  1.0000
  O   O19       1.0  0.38757  0.40281  0.91828  1.0000
  O   O20       1.0  0.74973  0.09099  0.50547  1.0000
  H   H25       1.0  0.7586  0.1477  0.4803  1.0000
  H   H26       1.0  0.7489  0.109  0.5515  1.0000
  C   C37       1.0  0.2571  0.13646  0.60175  1.0000
  C   C38       1.0  0.2389  0.3955500000000001  0.87877  1.0000
  C   C39       1.0  0.2556  0.21506  0.66699  1.0000
  C   C40       1.0  0.1022  0.21734000000000003  0.71314  1.0000
  H   H27       1.0  0.9991  0.1766  0.7001999999999999  1.0000
  C   C41       1.0  0.0977  0.28019  0.77971  1.0000
  H   H28       1.0  0.9904  0.2816  0.8090999999999998  1.0000
  C   C42       1.0  0.2485  0.33939  0.8020299999999998  1.0000
  C   C43       1.0  0.4083  0.34375000000000006  0.75359  1.0000
  C   C44       1.0  0.4098  0.28256  0.68448  1.0000
  C   C45       1.0  0.5616  0.29437  0.6338  1.0000
  H   H29       1.0  0.5620999999999999  0.2569  0.5878  1.0000
  C   C46       1.0  0.7068  0.35928  0.65099  1.0000
  H   H30       1.0  0.8057  0.36500000000000005  0.6172  1.0000
  C   C47       1.0  0.7077  0.41744  0.7195499999999998  1.0000
  H   H31       1.0  0.808  0.4610000000000001  0.7314  1.0000
  C   C48       1.0  0.5627999999999999  0.41058  0.76884  1.0000
  H   H32       1.0  0.5647  0.45060000000000006  0.8137  1.0000
  Mg  Mg1       1.0  0.5  0.5  0.0  1.0000
  Mg  Mg2       1.0  0.5  0.0  0.5  1.0000
  Mg  Mg3       1.0  0.0  0.5  0.0  1.0000
  Mg  Mg4       1.0  0.0  0.0  0.5  1.0000
