data_image0
_chemical_formula_structural       Zn8H128C176N16O32
_chemical_formula_sum              "Zn8 H128 C176 N16 O32"
_cell_length_a       26.79537947
_cell_length_b       26.795353020000004
_cell_length_c       4.58003261
_cell_angle_alpha    90.00014922
_cell_angle_beta     89.99998165
_cell_angle_gamma    90.00024951

_space_group_name_H-M_alt    "P 1"
_space_group_IT_number       1

loop_
  _space_group_symop_operation_xyz
  'x, y, z'

loop_
  _atom_site_type_symbol
  _atom_site_label
  _atom_site_symmetry_multiplicity
  _atom_site_fract_x
  _atom_site_fract_y
  _atom_site_fract_z
  _atom_site_occupancy
  Zn  Zn1       1.0  0.26541126  0.21489070999999996  0.07331217  1.0000
  Zn  Zn2       1.0  0.7654092  0.71489262  0.57330671  1.0000
  Zn  Zn3       1.0  0.7345889700000001  0.78510925  0.07331334  1.0000
  Zn  Zn4       1.0  0.23459087  0.28510766  0.57330921  1.0000
  Zn  Zn5       1.0  0.21489187  0.73458777  0.92669814  1.0000
  Zn  Zn6       1.0  0.7148933200000003  0.23458983999999994  0.4267050600000001  1.0000
  Zn  Zn7       1.0  0.7851104500000002  0.26541062  0.9267046600000001  1.0000
  Zn  Zn8       1.0  0.28510690000000005  0.76540916  0.42670394  1.0000
  H   H1        1.0  0.19875469  0.28142643  0.09308937000000002  1.0000
  H   H2        1.0  0.2839031  0.11042427999999997  0.32378537  1.0000
  H   H3        1.0  0.17942263  0.19269739999999996  0.56955348  1.0000
  H   H4        1.0  0.12650607  0.18786911999999995  0.13341477  1.0000
  H   H5        1.0  0.07910298  0.13727398  0.77101608  1.0000
  H   H6        1.0  0.07314137000000001  0.04535393999999999  0.83170282  1.0000
  H   H7        1.0  0.1112444  0.00363982  0.25374392  1.0000
  H   H8        1.0  0.16642723  0.00676969  0.68575343  1.0000
  H   H9        1.0  0.3360669900000001  0.02830790999999999  0.03278855  1.0000
  H   H10       1.0  0.36407429000000013  0.94959655  0.21952487000000004  1.0000
  H   H11       1.0  0.21910603  0.89746161  0.36408253  1.0000
  H   H12       1.0  0.185706  0.98425916  0.20378937  1.0000
  H   H13       1.0  0.34149800000000013  0.07839033999999998  0.56760831  1.0000
  H   H14       1.0  0.38226037000000007  0.9858315199999997  0.76171772  1.0000
  H   H15       1.0  0.25928063  0.89329435  0.86078582  1.0000
  H   H16       1.0  0.23428718000000004  0.9866883999999999  0.69870623  1.0000
  H   H17       1.0  0.69875371  0.7814259999999997  0.59307793  1.0000
  H   H18       1.0  0.7839072900000001  0.61042427  0.82377899  1.0000
  H   H19       1.0  0.67942345  0.69269684  0.06956459  1.0000
  H   H20       1.0  0.6265061900000002  0.6878695499999998  0.6334300700000001  1.0000
  H   H21       1.0  0.5791029100000001  0.6372757099999998  0.27102491  1.0000
  H   H22       1.0  0.5731422400000001  0.54535534  0.33170845  1.0000
  H   H23       1.0  0.61124638  0.5036399499999998  0.75374557  1.0000
  H   H24       1.0  0.6664297600000002  0.50676964  0.18575355  1.0000
  H   H25       1.0  0.8360697200000001  0.52830813  0.53279288  1.0000
  H   H26       1.0  0.8640776100000003  0.44959719  0.7195324300000001  1.0000
  H   H27       1.0  0.7191099500000001  0.39746146  0.86408301  1.0000
  H   H28       1.0  0.68570897  0.4842586599999999  0.70378914  1.0000
  H   H29       1.0  0.84150028  0.5783922499999999  0.06761053  1.0000
  H   H30       1.0  0.88226388  0.4858334499999999  0.26172131000000004  1.0000
  H   H31       1.0  0.7592841  0.39329459  0.36079144000000013  1.0000
  H   H32       1.0  0.73429086  0.4866885699999999  0.19870825000000003  1.0000
  H   H33       1.0  0.8012453500000002  0.71857608  0.09308254  1.0000
  H   H34       1.0  0.71609464  0.88957693  0.32379124  1.0000
  H   H35       1.0  0.8205773500000001  0.80730435  0.56956538  1.0000
  H   H36       1.0  0.87349487  0.8121325  0.13343036  1.0000
  H   H37       1.0  0.9208977  0.8627265  0.7710278400000001  1.0000
  H   H38       1.0  0.92685785  0.95464694  0.83171091  1.0000
  H   H39       1.0  0.8887537100000003  0.9963617699999998  0.25375243  1.0000
  H   H40       1.0  0.8335708900000002  0.99323127  0.68576187  1.0000
  H   H41       1.0  0.6639311400000002  0.9716921399999998  0.03280622  1.0000
  H   H42       1.0  0.6359241  0.050403849999999986  0.21954620000000002  1.0000
  H   H43       1.0  0.7808910600000001  0.10253908999999997  0.36409836000000007  1.0000
  H   H44       1.0  0.8142921  0.01574181  0.20379756  1.0000
  H   H45       1.0  0.65850127  0.9216090599999998  0.56762403  1.0000
  H   H46       1.0  0.61773804  0.014167989999999997  0.76173418  1.0000
  H   H47       1.0  0.7407182700000002  0.10670656999999997  0.86080545  1.0000
  H   H48       1.0  0.76571052  0.013312049999999997  0.6987171100000001  1.0000
  H   H49       1.0  0.30124665  0.21857314999999994  0.593084  1.0000
  H   H50       1.0  0.21609575  0.38957560999999996  0.82377854  1.0000
  H   H51       1.0  0.32057934  0.3073020499999999  0.0695615  1.0000
  H   H52       1.0  0.37349508000000003  0.31212986  0.63342028  1.0000
  H   H53       1.0  0.42089700000000013  0.36272447  0.27101467  1.0000
  H   H54       1.0  0.42685644  0.4546452599999999  0.33168722  1.0000
  H   H55       1.0  0.38875155000000006  0.49636063999999996  0.75372332  1.0000
  H   H56       1.0  0.3335685800000001  0.49323055  0.18573737  1.0000
  H   H57       1.0  0.1639301  0.47169012  0.5327795  1.0000
  H   H58       1.0  0.13592219  0.55040121  0.71952136  1.0000
  H   H59       1.0  0.28088902000000004  0.60253849  0.86407463  1.0000
  H   H60       1.0  0.31428962  0.5157413599999999  0.70377124  1.0000
  H   H61       1.0  0.15850009000000007  0.4216072  0.06759995  1.0000
  H   H62       1.0  0.11773559000000003  0.5141657599999999  0.26170844  1.0000
  H   H63       1.0  0.24071581000000003  0.6067045699999998  0.36077957  1.0000
  H   H64       1.0  0.26570829000000007  0.51331019  0.19869160000000005  1.0000
  H   H65       1.0  0.28142374  0.80124623  0.90694317  1.0000
  H   H66       1.0  0.11042351000000003  0.7160967299999997  0.67621244  1.0000
  H   H67       1.0  0.19269624  0.82057758  0.43044918  1.0000
  H   H68       1.0  0.18786845  0.8734947799999999  0.8665793  1.0000
  H   H69       1.0  0.13727439  0.9208989  0.22897750000000003  1.0000
  H   H70       1.0  0.04535454  0.9268600699999998  0.16829111000000002  1.0000
  H   H71       1.0  0.00363908  0.88875618  0.74625115  1.0000
  H   H72       1.0  0.006768710000000001  0.83357369  0.31423634  1.0000
  H   H73       1.0  0.028310450000000008  0.66393469  0.96719208  1.0000
  H   H74       1.0  0.94960031  0.63592443  0.78045324  1.0000
  H   H75       1.0  0.89746072  0.78088989  0.63590039  1.0000
  H   H76       1.0  0.9842577300000003  0.8142938299999999  0.79619335  1.0000
  H   H77       1.0  0.07839225  0.6585063199999998  0.43237348  1.0000
  H   H78       1.0  0.9858359300000002  0.6177395399999998  0.23826465  1.0000
  H   H79       1.0  0.8932940800000001  0.74071657  0.13919872  1.0000
  H   H80       1.0  0.98668782  0.7657134899999998  0.30127605  1.0000
  H   H81       1.0  0.78142517  0.30124752999999993  0.40694695  1.0000
  H   H82       1.0  0.6104238000000002  0.21609273  0.17622301000000004  1.0000
  H   H83       1.0  0.6926960100000003  0.32057573999999994  0.93044723  1.0000
  H   H84       1.0  0.6878693300000002  0.3734924  0.3665836300000001  1.0000
  H   H85       1.0  0.63727467  0.42089538  0.72898803  1.0000
  H   H86       1.0  0.54535402  0.42685511999999987  0.6683059  1.0000
  H   H87       1.0  0.50363883  0.3887507399999999  0.24626543000000004  1.0000
  H   H88       1.0  0.50676803  0.33356805  0.81425311  1.0000
  H   H89       1.0  0.52830852  0.16392846  0.46721435000000006  1.0000
  H   H90       1.0  0.4495973400000001  0.13592125  0.2804689  1.0000
  H   H91       1.0  0.39746162  0.28088805  0.13591401000000003  1.0000
  H   H92       1.0  0.48425945  0.31428837999999987  0.29621259  1.0000
  H   H93       1.0  0.5783909300000001  0.15849868  0.93239129  1.0000
  H   H94       1.0  0.48583229000000006  0.11773482999999997  0.73828128  1.0000
  H   H95       1.0  0.39329404000000007  0.24071506999999998  0.639213  1.0000
  H   H96       1.0  0.48668894  0.26570797999999995  0.80129354  1.0000
  H   H97       1.0  0.7185770300000001  0.19875272999999993  0.90693947  1.0000
  H   H98       1.0  0.88957752  0.28390437  0.6762255  1.0000
  H   H99       1.0  0.80730526  0.17942269  0.43045154  1.0000
  H   H100      1.0  0.8121319800000002  0.12650583  0.86658807  1.0000
  H   H101      1.0  0.8627267700000001  0.07910231  0.22898355000000004  1.0000
  H   H102      1.0  0.9546467800000003  0.07314099  0.16829385  1.0000
  H   H103      1.0  0.99636183  0.11124467999999998  0.74625372  1.0000
  H   H104      1.0  0.99323218  0.16642744  0.31424458  1.0000
  H   H105      1.0  0.97169289  0.33606744  0.9672140400000001  1.0000
  H   H106      1.0  0.05040351  0.3640757899999999  0.78047106  1.0000
  H   H107      1.0  0.10254071000000002  0.21910913  0.63591409  1.0000
  H   H108      1.0  0.01574298  0.18570762  0.79620649  1.0000
  H   H109      1.0  0.92161014  0.34149695  0.43239322  1.0000
  H   H110      1.0  0.014168490000000004  0.38226154  0.23828261  1.0000
  H   H111      1.0  0.10670804000000003  0.25928214  0.13921176  1.0000
  H   H112      1.0  0.01331358  0.23428774  0.3012913  1.0000
  H   H113      1.0  0.21857700000000005  0.6987508299999998  0.40694418  1.0000
  H   H114      1.0  0.38957598  0.7839053399999998  0.1762166  1.0000
  H   H115      1.0  0.30730392  0.6794228399999998  0.93043726  1.0000
  H   H116      1.0  0.3121311400000001  0.62650594  0.36656746  1.0000
  H   H117      1.0  0.36272484  0.57910263  0.72897175  1.0000
  H   H118      1.0  0.45464563  0.5731428099999999  0.6682893300000001  1.0000
  H   H119      1.0  0.4963612200000001  0.61124767  0.24625158000000003  1.0000
  H   H120      1.0  0.49323151000000004  0.66642991  0.81423714  1.0000
  H   H121      1.0  0.47169008  0.8360693599999998  0.46720678  1.0000
  H   H122      1.0  0.5503993600000001  0.86407949  0.28045792  1.0000
  H   H123      1.0  0.60254  0.71911397  0.13589735000000003  1.0000
  H   H124      1.0  0.5157425200000001  0.68571024  0.29619531  1.0000
  H   H125      1.0  0.421606  0.8414976999999998  0.93238947  1.0000
  H   H126      1.0  0.5141623  0.8822656099999999  0.73827752  1.0000
  H   H127      1.0  0.60670628  0.75928735  0.63919716  1.0000
  H   H128      1.0  0.51331229  0.7342897299999999  0.8012801  1.0000
  C   C1        1.0  0.2552288  0.10741510999999997  0.15894828000000003  1.0000
  C   C2        1.0  0.20547194  0.12774117  0.80200124  1.0000
  C   C3        1.0  0.17776656  0.1522245  0.58796216  1.0000
  C   C4        1.0  0.14801706  0.12478204999999999  0.39436067  1.0000
  C   C5        1.0  0.12274469000000003  0.14769585  0.15964544  1.0000
  C   C6        1.0  0.09578966  0.11985820999999999  0.9616016000000001  1.0000
  C   C7        1.0  0.0929264  0.06738384  0.99459265  1.0000
  C   C8        1.0  0.11510565000000003  0.04393997  0.23047581  1.0000
  C   C9        1.0  0.14411545  0.070797  0.43254541  1.0000
  C   C10       1.0  0.17133033000000003  0.046677799999999985  0.65746742  1.0000
  C   C11       1.0  0.20454725000000004  0.07427729999999999  0.82640573  1.0000
  C   C12       1.0  0.26171485  0.015320779999999997  0.12172275  1.0000
  C   C13       1.0  0.29403165  0.92204716  0.37646789  1.0000
  C   C14       1.0  0.3142812900000001  0.01675922  0.23165155  1.0000
  C   C15       1.0  0.3335553800000001  0.9646688099999998  0.35093885  1.0000
  C   C16       1.0  0.24394918000000002  0.9291896699999997  0.33964374  1.0000
  C   C17       1.0  0.22481068  0.9746096599999998  0.1950186  1.0000
  C   C18       1.0  0.31111327000000005  0.8675887699999999  0.40252946000000006  1.0000
  C   C19       1.0  0.33503608000000007  0.03974361  0.50447719  1.0000
  C   C20       1.0  0.35408499  0.9959401799999998  0.60232665  1.0000
  C   C21       1.0  0.2847950000000001  0.92575341  0.87269816  1.0000
  C   C22       1.0  0.25290349  0.97520285  0.90160922  1.0000
  C   C23       1.0  0.7552309000000003  0.60741554  0.65894703  1.0000
  C   C24       1.0  0.7054730500000002  0.62774191  0.30200398  1.0000
  C   C25       1.0  0.6777675500000002  0.65222393  0.08797196  1.0000
  C   C26       1.0  0.6480185700000002  0.6247820999999999  0.89436927  1.0000
  C   C27       1.0  0.6227456  0.64769627  0.65965536  1.0000
  C   C28       1.0  0.5957903100000002  0.61985919  0.46160347000000007  1.0000
  C   C29       1.0  0.59292799  0.56738447  0.49459801000000003  1.0000
  C   C30       1.0  0.6151069400000002  0.54394055  0.73047981  1.0000
  C   C31       1.0  0.64411701  0.57079653  0.93254783  1.0000
  C   C32       1.0  0.67133249  0.5466774999999999  0.15747258  1.0000
  C   C33       1.0  0.7045492800000002  0.5742778199999999  0.32641284  1.0000
  C   C34       1.0  0.76171796  0.51532099  0.62172345  1.0000
  C   C35       1.0  0.7940347500000002  0.4220470299999999  0.8764714200000001  1.0000
  C   C36       1.0  0.8142824600000002  0.51675959  0.73165443  1.0000
  C   C37       1.0  0.83355786  0.4646695299999999  0.85094642  1.0000
  C   C38       1.0  0.74395251  0.42919  0.8396469900000001  1.0000
  C   C39       1.0  0.72481355  0.47460951999999995  0.69501276  1.0000
  C   C40       1.0  0.8111200100000001  0.3675882199999999  0.90253302  1.0000
  C   C41       1.0  0.8350388300000002  0.53974473  0.00448483  1.0000
  C   C42       1.0  0.8540881000000002  0.49594167  0.10233582  1.0000
  C   C43       1.0  0.7847993  0.42575405  0.37270484  1.0000
  C   C44       1.0  0.7529068000000001  0.47520299  0.40161157  1.0000
  C   C45       1.0  0.7447705600000002  0.8925855199999998  0.15895276  1.0000
  C   C46       1.0  0.7945278600000002  0.8722597899999998  0.80200527  1.0000
  C   C47       1.0  0.8222332900000001  0.8477774099999997  0.58797324  1.0000
  C   C48       1.0  0.85198261  0.87521956  0.39436995  1.0000
  C   C49       1.0  0.87725523  0.85230597  0.15965706  1.0000
  C   C50       1.0  0.9042103700000002  0.88014314  0.9616059700000001  1.0000
  C   C51       1.0  0.9070722500000002  0.9326175799999997  0.99460078  1.0000
  C   C52       1.0  0.8848932300000002  0.95606137  0.23048476000000004  1.0000
  C   C53       1.0  0.85588347  0.9292051299999998  0.43255621  1.0000
  C   C54       1.0  0.8286681100000002  0.9533237999999998  0.65747889  1.0000
  C   C55       1.0  0.7954517200000002  0.9257235299999997  0.82642026  1.0000
  C   C56       1.0  0.7382837600000001  0.98467962  0.12173475  1.0000
  C   C57       1.0  0.7059668800000002  0.07795318  0.37648826  1.0000
  C   C58       1.0  0.68571874  0.9832407899999998  0.23166791  1.0000
  C   C59       1.0  0.6664427600000001  0.03533046  0.35095493  1.0000
  C   C60       1.0  0.7560492400000001  0.0708102  0.33965884  1.0000
  C   C61       1.0  0.7751876700000002  0.025391379999999995  0.19502435  1.0000
  C   C62       1.0  0.68887595  0.13241251  0.40253841  1.0000
  C   C63       1.0  0.66496267  0.9602557399999998  0.50449516  1.0000
  C   C64       1.0  0.64591336  0.00405963  0.60234788  1.0000
  C   C65       1.0  0.7152019000000002  0.07424745999999999  0.87271648  1.0000
  C   C66       1.0  0.74709436  0.02479789  0.90162274  1.0000
  C   C67       1.0  0.24477049000000006  0.39258443999999987  0.65893987  1.0000
  C   C68       1.0  0.29452851  0.37225849  0.30199792000000003  1.0000
  C   C69       1.0  0.3222341900000001  0.3477755499999999  0.08796626  1.0000
  C   C70       1.0  0.35198253  0.37521757  0.8943591600000002  1.0000
  C   C71       1.0  0.37725521  0.35230364  0.65964726  1.0000
  C   C72       1.0  0.4042094000000001  0.38014083  0.46159363000000003  1.0000
  C   C73       1.0  0.40707116  0.43261605  0.4945836900000001  1.0000
  C   C74       1.0  0.38489079  0.4560595999999999  0.7304606600000001  1.0000
  C   C75       1.0  0.35588236  0.42920321  0.93253738  1.0000
  C   C76       1.0  0.32866703000000014  0.45332248  0.15745853  1.0000
  C   C77       1.0  0.2954500100000001  0.42572273999999993  0.3263977800000001  1.0000
  C   C78       1.0  0.23828176000000004  0.4846786499999999  0.62171199  1.0000
  C   C79       1.0  0.20596479000000004  0.5779517699999999  0.8764671500000001  1.0000
  C   C80       1.0  0.18571633000000004  0.48323887999999987  0.73164354  1.0000
  C   C81       1.0  0.16644094  0.5353295  0.8509314500000003  1.0000
  C   C82       1.0  0.25604714000000006  0.57080919  0.83963532  1.0000
  C   C83       1.0  0.27518543  0.52539042  0.69500263  1.0000
  C   C84       1.0  0.18887417  0.63241211  0.90251774  1.0000
  C   C85       1.0  0.16496137  0.46025401  0.00447186  1.0000
  C   C86       1.0  0.14591128  0.50405811  0.10232093000000003  1.0000
  C   C87       1.0  0.21519908000000004  0.5742456999999999  0.37269293  1.0000
  C   C88       1.0  0.24709275  0.52479633  0.40159661  1.0000
  C   C89       1.0  0.10741516  0.74477184  0.84104989  1.0000
  C   C90       1.0  0.1277405  0.7945287399999997  0.19800228  1.0000
  C   C91       1.0  0.15222331000000006  0.82223316  0.4120348000000001  1.0000
  C   C92       1.0  0.12478114000000003  0.8519836  0.60563754  1.0000
  C   C93       1.0  0.14769475  0.8772563699999999  0.84034974  1.0000
  C   C94       1.0  0.1198578  0.9042116  0.0383978  1.0000
  C   C95       1.0  0.06738374  0.9070740999999998  0.00540291  1.0000
  C   C96       1.0  0.04393949000000001  0.88489552  0.76952205  1.0000
  C   C97       1.0  0.07079567000000002  0.85588445  0.56744691  1.0000
  C   C98       1.0  0.046676780000000015  0.8286701599999998  0.34252458  1.0000
  C   C99       1.0  0.07427667000000002  0.7954534199999999  0.17358511  1.0000
  C   C100      1.0  0.015320860000000004  0.7382860699999998  0.8782604900000001  1.0000
  C   C101      1.0  0.9220486300000003  0.7059664399999999  0.62351426  1.0000
  C   C102      1.0  0.016761100000000004  0.6857200999999999  0.76832817  1.0000
  C   C103      1.0  0.9646706300000001  0.6664439199999997  0.64904468  1.0000
  C   C104      1.0  0.9291909900000003  0.75604843  0.66033763  1.0000
  C   C105      1.0  0.97460858  0.7751895499999998  0.80496993  1.0000
  C   C106      1.0  0.86758798  0.68887243  0.59748041  1.0000
  C   C107      1.0  0.03974546000000002  0.6649671199999998  0.49550183  1.0000
  C   C108      1.0  0.9959427600000003  0.6459161199999998  0.39765365  1.0000
  C   C109      1.0  0.9257544600000002  0.7152017599999998  0.12728487  1.0000
  C   C110      1.0  0.9752030200000001  0.74709608  0.0983785  1.0000
  C   C111      1.0  0.6074159700000002  0.24476763999999998  0.34106378  1.0000
  C   C112      1.0  0.62774083  0.29452508  0.69800517  1.0000
  C   C113      1.0  0.65222315  0.32223077  0.91203796  1.0000
  C   C114      1.0  0.6247809800000002  0.35197962999999993  0.1056412  1.0000
  C   C115      1.0  0.6476955400000001  0.37725194  0.34035416  1.0000
  C   C116      1.0  0.6198584900000002  0.4042075999999999  0.53840541  1.0000
  C   C117      1.0  0.5673836300000001  0.4070698199999999  0.50541348  1.0000
  C   C118      1.0  0.54393944  0.38488986  0.26953505  1.0000
  C   C119      1.0  0.57079588  0.3558804599999999  0.06745898  1.0000
  C   C120      1.0  0.54667651  0.32866543999999986  0.84253396  1.0000
  C   C121      1.0  0.57427701  0.29544824  0.6735953300000002  1.0000
  C   C122      1.0  0.51532055  0.23828064999999995  0.37827999  1.0000
  C   C123      1.0  0.42204635  0.20596333  0.12353055  1.0000
  C   C124      1.0  0.51675939  0.18571577999999994  0.26835207  1.0000
  C   C125      1.0  0.4646692300000001  0.16643983999999995  0.14905979  1.0000
  C   C126      1.0  0.42919075  0.25604507  0.16035277  1.0000
  C   C127      1.0  0.47460903  0.2751849699999999  0.30499063  1.0000
  C   C128      1.0  0.36758634000000007  0.1888681  0.09749796  1.0000
  C   C129      1.0  0.5397438300000001  0.16496066  0.99551673  1.0000
  C   C130      1.0  0.4959411900000001  0.14591064  0.8976680800000001  1.0000
  C   C131      1.0  0.42575429  0.21519811  0.62729929  1.0000
  C   C132      1.0  0.47520289  0.24709244999999994  0.59839271  1.0000
  C   C133      1.0  0.89258617  0.25522883  0.84106206  1.0000
  C   C134      1.0  0.8722599000000002  0.2054724  0.19800575  1.0000
  C   C135      1.0  0.8477776300000002  0.17776735  0.41204132  1.0000
  C   C136      1.0  0.8752197400000002  0.14801774999999998  0.6056414  1.0000
  C   C137      1.0  0.8523058400000002  0.12274519  0.84035521  1.0000
  C   C138      1.0  0.8801430800000002  0.09578965  0.03840265  1.0000
  C   C139      1.0  0.93261758  0.09292686999999997  0.00540692  1.0000
  C   C140      1.0  0.9560614400000003  0.11510594999999997  0.76952471  1.0000
  C   C141      1.0  0.92920509  0.14411600999999996  0.56745426  1.0000
  C   C142      1.0  0.9533239700000002  0.1713309  0.34252833  1.0000
  C   C143      1.0  0.92572426  0.20454765999999994  0.173592  1.0000
  C   C144      1.0  0.9846811000000002  0.26171562  0.8782767300000001  1.0000
  C   C145      1.0  0.07795413  0.29403324  0.6235291200000002  1.0000
  C   C146      1.0  0.98324175  0.31427981  0.76835165  1.0000
  C   C147      1.0  0.03533163  0.33355651  0.6490605  1.0000
  C   C148      1.0  0.0708109  0.24395173  0.66035067  1.0000
  C   C149      1.0  0.025392380000000006  0.22481143999999995  0.80498766  1.0000
  C   C150      1.0  0.13241378000000004  0.31112694  0.59749024  1.0000
  C   C151      1.0  0.9602569500000001  0.3350353899999999  0.49551780000000006  1.0000
  C   C152      1.0  0.004060010000000001  0.3540861899999999  0.3976686  1.0000
  C   C153      1.0  0.07424682  0.28479766  0.12729617  1.0000
  C   C154      1.0  0.024798370000000007  0.25290413999999994  0.09838894  1.0000
  C   C155      1.0  0.39258431  0.75523023  0.34105308000000006  1.0000
  C   C156      1.0  0.37225999  0.7054733999999998  0.69799719  1.0000
  C   C157      1.0  0.34777648  0.67776738  0.9120290200000001  1.0000
  C   C158      1.0  0.3752189700000001  0.64801824  0.10563111  1.0000
  C   C159      1.0  0.35230464000000006  0.6227455799999998  0.34034109  1.0000
  C   C160      1.0  0.38014156000000004  0.5957906499999999  0.53839201  1.0000
  C   C161      1.0  0.4326160200000001  0.59292871  0.50539898  1.0000
  C   C162      1.0  0.45606066  0.6151082799999997  0.26951831  1.0000
  C   C163      1.0  0.4292040700000001  0.6441180199999998  0.06744444  1.0000
  C   C164      1.0  0.45332376000000013  0.67133286  0.84252579  1.0000
  C   C165      1.0  0.4257238800000001  0.70454969  0.67358607  1.0000
  C   C166      1.0  0.4846791800000001  0.7617179099999998  0.37826936  1.0000
  C   C167      1.0  0.57795181  0.7940378199999998  0.12351799000000001  1.0000
  C   C168      1.0  0.4832382300000001  0.81428318  0.26833705  1.0000
  C   C169      1.0  0.53532872  0.83356075  0.14905364  1.0000
  C   C170      1.0  0.57080935  0.7439556999999998  0.16034137  1.0000
  C   C171      1.0  0.52539148  0.7248142499999999  0.3049711  1.0000
  C   C172      1.0  0.6324131  0.81113569  0.09749147  1.0000
  C   C173      1.0  0.4602534100000001  0.8350368999999999  0.99551223  1.0000
  C   C174      1.0  0.50405685  0.8540882399999999  0.89766095  1.0000
  C   C175      1.0  0.57424566  0.78480342  0.6272894800000001  1.0000
  C   C176      1.0  0.52479724  0.75290746  0.59838163  1.0000
  N   N1        1.0  0.23661375000000007  0.14648611999999997  0.01461784  1.0000
  N   N2        1.0  0.23836375  0.06309115999999998  0.05057521  1.0000
  N   N3        1.0  0.73661527  0.6464866899999999  0.51461484  1.0000
  N   N4        1.0  0.73836615  0.56309077  0.55057488  1.0000
  N   N5        1.0  0.76338565  0.8535147799999999  0.01462021  1.0000
  N   N6        1.0  0.7616351000000001  0.9369098199999998  0.05058288  1.0000
  N   N7        1.0  0.26338653  0.3535135499999999  0.5146176300000002  1.0000
  N   N8        1.0  0.26163412  0.43690893  0.5505666  1.0000
  N   N9        1.0  0.14648555000000002  0.7633862899999998  0.9853864700000001  1.0000
  N   N10       1.0  0.06309058  0.7616379899999999  0.9494132300000001  1.0000
  N   N11       1.0  0.6464867000000001  0.26338325999999995  0.48539297000000003  1.0000
  N   N12       1.0  0.56309047  0.26163258  0.44942943  1.0000
  N   N13       1.0  0.85351467  0.23661405  0.98539769  1.0000
  N   N14       1.0  0.93691185  0.23836348999999996  0.9494279300000001  1.0000
  N   N15       1.0  0.3535138900000001  0.7366144399999998  0.48537974  1.0000
  N   N16       1.0  0.4369097300000001  0.73836471  0.44941564000000006  1.0000
  O   O1        1.0  0.23320321000000002  0.28036658  0.02128258  1.0000
  O   O2        1.0  0.27699926  0.83742335  0.50882247  1.0000
  O   O3        1.0  0.33081976000000013  0.91892875  0.85957413  1.0000
  O   O4        1.0  0.35247880000000004  0.8551765999999997  0.31043349  1.0000
  O   O5        1.0  0.73320182  0.7803661399999998  0.52127258  1.0000
  O   O6        1.0  0.77700108  0.33742393999999987  0.00882792  1.0000
  O   O7        1.0  0.8308222200000001  0.41892914999999986  0.35957488  1.0000
  O   O8        1.0  0.8524813300000003  0.35517884  0.81047995  1.0000
  O   O9        1.0  0.7667971700000002  0.7196352099999997  0.02127126  1.0000
  O   O10       1.0  0.72300265  0.1625753  0.50883495  1.0000
  O   O11       1.0  0.6691797300000002  0.08107191  0.8595952700000002  1.0000
  O   O12       1.0  0.6475251100000001  0.14481904999999998  0.31052705  1.0000
  O   O13       1.0  0.26679828  0.21963406  0.5212815  1.0000
  O   O14       1.0  0.22300051000000007  0.6625745899999997  0.00881638  1.0000
  O   O15       1.0  0.16917778000000006  0.5810694999999999  0.35957515  1.0000
  O   O16       1.0  0.14752384  0.6448190499999998  0.8104965100000002  1.0000
  O   O17       1.0  0.28036562  0.7667969899999998  0.9787376  1.0000
  O   O18       1.0  0.83742444  0.7229992599999999  0.49117024000000004  1.0000
  O   O19       1.0  0.9189310300000002  0.66918057  0.14041728  1.0000
  O   O20       1.0  0.8551838800000002  0.6475269299999997  0.68951131  1.0000
  O   O21       1.0  0.7803672000000001  0.26679851  0.47874331  1.0000
  O   O22       1.0  0.33742525000000007  0.22299850999999998  0.99118579  1.0000
  O   O23       1.0  0.41892889  0.16917845  0.64042728  1.0000
  O   O24       1.0  0.3551814500000001  0.14752524  0.18950488  1.0000
  O   O25       1.0  0.71963542  0.23320105  0.97874363  1.0000
  O   O26       1.0  0.16257695  0.27699981999999995  0.49118242  1.0000
  O   O27       1.0  0.08107233000000003  0.33081893  0.1404265  1.0000
  O   O28       1.0  0.14481776  0.3524736499999999  0.68951091  1.0000
  O   O29       1.0  0.21963457000000006  0.7331993199999999  0.47874121  1.0000
  O   O30       1.0  0.66257489  0.7770048399999998  0.9911743500000001  1.0000
  O   O31       1.0  0.58106781  0.8308234799999997  0.6404149  1.0000
  O   O32       1.0  0.64481666  0.85247591  0.18950271000000002  1.0000
