data_image0
_chemical_formula_structural       Ce4P4H44C28N4O20
_chemical_formula_sum              "Ce4 P4 H44 C28 N4 O20"
_cell_length_a       5.6906
_cell_length_b       12.8
_cell_length_c       21.55
_cell_angle_alpha    90.0
_cell_angle_beta     95.392
_cell_angle_gamma    90.0

_space_group_name_H-M_alt    "P 1"
_space_group_IT_number       1

loop_
  _space_group_symop_operation_xyz
  'x, y, z'

loop_
  _atom_site_type_symbol
  _atom_site_label
  _atom_site_symmetry_multiplicity
  _atom_site_fract_x
  _atom_site_fract_y
  _atom_site_fract_z
  _atom_site_occupancy
  Ce  Ce1       1.0  0.6315499999999998  0.14376  0.969  1.0000
  Ce  Ce2       1.0  0.36845  0.64376  0.531  1.0000
  Ce  Ce3       1.0  0.36845  0.8562400000000002  0.031  1.0000
  Ce  Ce4       1.0  0.6315499999999998  0.35624  0.469  1.0000
  P   P1        1.0  0.9046  0.025000000000000005  0.08404  1.0000
  P   P2        1.0  0.0954  0.525  0.41596  1.0000
  P   P3        1.0  0.09540000000000001  0.9750000000000002  0.9159600000000001  1.0000
  P   P4        1.0  0.9046  0.475  0.58404  1.0000
  H   H1        1.0  0.7345999999999998  0.9798000000000001  0.1748  1.0000
  H   H2        1.0  0.6673  0.09480000000000002  0.1564  1.0000
  H   H3        1.0  0.7424  0.1149  0.2731  1.0000
  H   H4        1.0  0.8444999999999999  0.0013  0.2788  1.0000
  H   H5        1.0  0.1975  0.0621  0.3287  1.0000
  H   H6        1.0  0.9904  0.1049  0.3646  1.0000
  H   H7        1.0  0.009799999999999998  0.2676  0.3161  1.0000
  H   H8        1.0  0.2767  0.30100000000000005  0.2453  1.0000
  H   H9        1.0  0.3732  0.1865  0.2518  1.0000
  H   H10       1.0  0.1144  0.1991  0.161  1.0000
  H   H11       1.0  0.9121  0.23960000000000006  0.1996  1.0000
  H   H12       1.0  0.2654  0.4798  0.3252  1.0000
  H   H13       1.0  0.3327  0.5948  0.3436  1.0000
  H   H14       1.0  0.25759999999999994  0.6149  0.2269  1.0000
  H   H15       1.0  0.15549999999999997  0.5013  0.22119999999999998  1.0000
  H   H16       1.0  0.8024999999999999  0.5621  0.1713  1.0000
  H   H17       1.0  0.00959999999999999  0.6049  0.1354  1.0000
  H   H18       1.0  0.9901999999999997  0.7676  0.1839  1.0000
  H   H19       1.0  0.7233  0.801  0.2547  1.0000
  H   H20       1.0  0.6267999999999999  0.6865  0.2482  1.0000
  H   H21       1.0  0.8855999999999999  0.6991000000000002  0.339  1.0000
  H   H22       1.0  0.0879  0.7396000000000001  0.3004  1.0000
  H   H23       1.0  0.2654  0.020200000000000006  0.8252  1.0000
  H   H24       1.0  0.33269999999999994  0.9052  0.8435999999999999  1.0000
  H   H25       1.0  0.25759999999999994  0.8851  0.7269  1.0000
  H   H26       1.0  0.15549999999999994  0.9987000000000001  0.7212  1.0000
  H   H27       1.0  0.8024999999999999  0.9379  0.6713  1.0000
  H   H28       1.0  0.009600000000000015  0.8951  0.6354  1.0000
  H   H29       1.0  0.9901999999999997  0.7324000000000002  0.6839  1.0000
  H   H30       1.0  0.7233  0.6990000000000001  0.7546999999999999  1.0000
  H   H31       1.0  0.6267999999999999  0.8135000000000002  0.7482  1.0000
  H   H32       1.0  0.8855999999999999  0.8009  0.839  1.0000
  H   H33       1.0  0.08789999999999994  0.7604  0.8003999999999999  1.0000
  H   H34       1.0  0.7345999999999998  0.5202  0.6748  1.0000
  H   H35       1.0  0.6673  0.4052  0.6564  1.0000
  H   H36       1.0  0.7424  0.3851  0.7731  1.0000
  H   H37       1.0  0.8444999999999999  0.4987  0.7788  1.0000
  H   H38       1.0  0.19749999999999998  0.4379  0.8287  1.0000
  H   H39       1.0  0.9903999999999998  0.3951  0.8645999999999999  1.0000
  H   H40       1.0  0.009799999999999979  0.2324  0.8160999999999999  1.0000
  H   H41       1.0  0.2767  0.199  0.7453  1.0000
  H   H42       1.0  0.3732  0.3135  0.7517999999999999  1.0000
  H   H43       1.0  0.1144  0.3009  0.661  1.0000
  H   H44       1.0  0.9121  0.2604  0.6996  1.0000
  C   C1        1.0  0.7971  0.0455  0.1611  1.0000
  C   C2        1.0  0.885  0.0738  0.2724  1.0000
  C   C3        1.0  0.06299999999999997  0.10880000000000001  0.3257  1.0000
  C   C4        1.0  0.148  0.22180000000000005  0.3159  1.0000
  C   C5        1.0  0.23299999999999996  0.2292  0.2529  1.0000
  C   C6        1.0  0.048999999999999995  0.194  0.20079999999999998  1.0000
  C   C7        1.0  0.323  0.2569  0.367  1.0000
  C   C8        1.0  0.2029  0.5455  0.3389  1.0000
  C   C9        1.0  0.11499999999999999  0.5738  0.2276  1.0000
  C   C10       1.0  0.9369999999999999  0.6088  0.1743  1.0000
  C   C11       1.0  0.852  0.7218000000000001  0.1841  1.0000
  C   C12       1.0  0.767  0.7292  0.24709999999999996  1.0000
  C   C13       1.0  0.951  0.6940000000000001  0.2992  1.0000
  C   C14       1.0  0.677  0.7569000000000002  0.133  1.0000
  C   C15       1.0  0.2029  0.9545000000000002  0.8389  1.0000
  C   C16       1.0  0.11499999999999995  0.9262000000000002  0.7276  1.0000
  C   C17       1.0  0.9369999999999999  0.8912  0.6743  1.0000
  C   C18       1.0  0.852  0.7782  0.6841  1.0000
  C   C19       1.0  0.767  0.7708000000000003  0.7471  1.0000
  C   C20       1.0  0.951  0.806  0.7992  1.0000
  C   C21       1.0  0.677  0.7431  0.633  1.0000
  C   C22       1.0  0.7971  0.4545  0.6611  1.0000
  C   C23       1.0  0.885  0.4262  0.7724  1.0000
  C   C24       1.0  0.06299999999999999  0.3912  0.8256999999999999  1.0000
  C   C25       1.0  0.14800000000000002  0.2782  0.8159  1.0000
  C   C26       1.0  0.23299999999999996  0.2708  0.7529  1.0000
  C   C27       1.0  0.04900000000000001  0.30600000000000005  0.7008  1.0000
  C   C28       1.0  0.323  0.2431  0.867  1.0000
  N   N1        1.0  0.9739999999999999  0.0845  0.21089999999999998  1.0000
  N   N2        1.0  0.026000000000000002  0.5845  0.2891  1.0000
  N   N3        1.0  0.025999999999999992  0.9155000000000002  0.7891  1.0000
  N   N4        1.0  0.9739999999999999  0.41550000000000004  0.7109  1.0000
  O   O1        1.0  0.6845  0.9817  0.046  1.0000
  O   O2        1.0  0.9584  0.1291  0.055  1.0000
  O   O3        1.0  0.1091  0.9522000000000003  0.09209999999999999  1.0000
  O   O4        1.0  0.2986  0.2359  0.42319999999999997  1.0000
  O   O5        1.0  0.499  0.3118  0.3549  1.0000
  O   O6        1.0  0.31549999999999995  0.4817  0.45399999999999996  1.0000
  O   O7        1.0  0.0416  0.6291000000000001  0.445  1.0000
  O   O8        1.0  0.8909  0.4522000000000001  0.4079  1.0000
  O   O9        1.0  0.7014  0.7359  0.0768  1.0000
  O   O10       1.0  0.501  0.8118000000000002  0.1451  1.0000
  O   O11       1.0  0.3155  0.0183  0.954  1.0000
  O   O12       1.0  0.04159999999999992  0.8709  0.9449999999999998  1.0000
  O   O13       1.0  0.8908999999999998  0.0478  0.9078999999999999  1.0000
  O   O14       1.0  0.7014  0.7641  0.5768  1.0000
  O   O15       1.0  0.501  0.6882  0.6451  1.0000
  O   O16       1.0  0.6845  0.5183  0.546  1.0000
  O   O17       1.0  0.9584  0.37090000000000006  0.555  1.0000
  O   O18       1.0  0.10910000000000004  0.5478  0.5921  1.0000
  O   O19       1.0  0.2985999999999999  0.2641  0.9231999999999999  1.0000
  O   O20       1.0  0.499  0.18820000000000003  0.8549  1.0000
