data_image0
_chemical_formula_structural       Nd4P4H44C28N4O20
_chemical_formula_sum              "Nd4 P4 H44 C28 N4 O20"
_cell_length_a       5.5871
_cell_length_b       13.424
_cell_length_c       21.157
_cell_angle_alpha    90.0
_cell_angle_beta     96.14800000000001
_cell_angle_gamma    90.0

_space_group_name_H-M_alt    "P 1"
_space_group_IT_number       1

loop_
  _space_group_symop_operation_xyz
  'x, y, z'

loop_
  _atom_site_type_symbol
  _atom_site_label
  _atom_site_symmetry_multiplicity
  _atom_site_fract_x
  _atom_site_fract_y
  _atom_site_fract_z
  _atom_site_occupancy
  Nd  Nd1       1.0  0.62854  0.13445  0.97151  1.0000
  Nd  Nd2       1.0  0.37146  0.63445  0.52849  1.0000
  Nd  Nd3       1.0  0.37146  0.8655499999999998  0.02849  1.0000
  Nd  Nd4       1.0  0.62854  0.36554999999999993  0.47151000000000004  1.0000
  P   P1        1.0  0.9122000000000001  0.023069999999999997  0.0868  1.0000
  P   P2        1.0  0.08780000000000003  0.52307  0.4132  1.0000
  P   P3        1.0  0.08779999999999995  0.97693  0.9132000000000001  1.0000
  P   P4        1.0  0.9122000000000001  0.47693  0.5868  1.0000
  H   H1        1.0  0.7647  0.9744999999999998  0.1799  1.0000
  H   H2        1.0  0.6743  0.0818  0.16150000000000003  1.0000
  H   H3        1.0  0.7601  0.10059999999999997  0.2806  1.0000
  H   H4        1.0  0.8894000000000001  0.9968  0.2864  1.0000
  H   H5        1.0  0.0335  0.0991  0.3713  1.0000
  H   H6        1.0  0.24310000000000004  0.07099999999999998  0.3309  1.0000
  H   H7        1.0  0.9924  0.25479999999999997  0.32250000000000006  1.0000
  H   H8        1.0  0.23620000000000002  0.3032999999999999  0.24560000000000004  1.0000
  H   H9        1.0  0.3705  0.20049999999999996  0.2508  1.0000
  H   H10       1.0  0.0807  0.19829999999999998  0.1613  1.0000
  H   H11       1.0  0.8765  0.2238  0.2043  1.0000
  H   H12       1.0  0.2353  0.4744999999999999  0.3201  1.0000
  H   H13       1.0  0.3257  0.5818  0.3385  1.0000
  H   H14       1.0  0.2399  0.6006  0.2194  1.0000
  H   H15       1.0  0.11060000000000005  0.4967999999999999  0.21360000000000007  1.0000
  H   H16       1.0  0.9665  0.5991  0.1287  1.0000
  H   H17       1.0  0.7569000000000001  0.571  0.16910000000000006  1.0000
  H   H18       1.0  0.007600000000000013  0.7547999999999998  0.17750000000000002  1.0000
  H   H19       1.0  0.7638  0.8032999999999998  0.2544  1.0000
  H   H20       1.0  0.6295  0.7004999999999998  0.24920000000000003  1.0000
  H   H21       1.0  0.9193000000000001  0.6983  0.33870000000000006  1.0000
  H   H22       1.0  0.12350000000000003  0.7237999999999999  0.2957  1.0000
  H   H23       1.0  0.2353  0.02549999999999999  0.8201000000000002  1.0000
  H   H24       1.0  0.3257  0.9182  0.8385  1.0000
  H   H25       1.0  0.2399  0.8993999999999998  0.7194  1.0000
  H   H26       1.0  0.11059999999999999  0.0032  0.7136  1.0000
  H   H27       1.0  0.9665000000000002  0.9008999999999998  0.6287000000000001  1.0000
  H   H28       1.0  0.7569000000000001  0.9289999999999998  0.6691  1.0000
  H   H29       1.0  0.007600000000000043  0.7452  0.6775000000000001  1.0000
  H   H30       1.0  0.7638  0.6967  0.7544  1.0000
  H   H31       1.0  0.6295  0.7995  0.7492000000000002  1.0000
  H   H32       1.0  0.9193000000000001  0.8016999999999999  0.8387  1.0000
  H   H33       1.0  0.12350000000000004  0.7762  0.7957000000000001  1.0000
  H   H34       1.0  0.7647000000000002  0.5255  0.6799000000000001  1.0000
  H   H35       1.0  0.6743  0.4182  0.6615  1.0000
  H   H36       1.0  0.7601  0.39939999999999987  0.7806  1.0000
  H   H37       1.0  0.8894000000000001  0.5032  0.7864000000000002  1.0000
  H   H38       1.0  0.0335  0.40089999999999987  0.8713  1.0000
  H   H39       1.0  0.24310000000000004  0.429  0.8309  1.0000
  H   H40       1.0  0.9924  0.24519999999999997  0.8225000000000001  1.0000
  H   H41       1.0  0.23620000000000008  0.19669999999999999  0.7456000000000003  1.0000
  H   H42       1.0  0.3705  0.2994999999999999  0.7508  1.0000
  H   H43       1.0  0.08070000000000004  0.3017  0.6613000000000001  1.0000
  H   H44       1.0  0.8765  0.2762  0.7043  1.0000
  C   C1        1.0  0.8149  0.03889999999999998  0.16530000000000003  1.0000
  C   C2        1.0  0.9132  0.0672  0.279  1.0000
  C   C3        1.0  0.09390000000000001  0.108  0.3304  1.0000
  C   C4        1.0  0.144  0.2188  0.3204  1.0000
  C   C5        1.0  0.2168  0.23279999999999995  0.2537  1.0000
  C   C6        1.0  0.028300000000000006  0.1891  0.2032  1.0000
  C   C7        1.0  0.32600000000000007  0.2609  0.3717  1.0000
  C   C8        1.0  0.1851  0.5389  0.3347  1.0000
  C   C9        1.0  0.08680000000000003  0.5671999999999999  0.22100000000000003  1.0000
  C   C10       1.0  0.9061  0.608  0.1696  1.0000
  C   C11       1.0  0.8560000000000001  0.7188  0.1796  1.0000
  C   C12       1.0  0.7832  0.7328  0.2463  1.0000
  C   C13       1.0  0.9717000000000002  0.6891  0.29680000000000006  1.0000
  C   C14       1.0  0.674  0.7609  0.1283  1.0000
  C   C15       1.0  0.18510000000000007  0.9610999999999998  0.8347000000000001  1.0000
  C   C16       1.0  0.08679999999999997  0.9328  0.721  1.0000
  C   C17       1.0  0.9061  0.8919999999999999  0.6696  1.0000
  C   C18       1.0  0.8560000000000001  0.7811999999999998  0.6796  1.0000
  C   C19       1.0  0.7832  0.7671999999999998  0.7463000000000001  1.0000
  C   C20       1.0  0.9717  0.8108999999999997  0.7968000000000001  1.0000
  C   C21       1.0  0.6740000000000002  0.7391  0.6283000000000001  1.0000
  C   C22       1.0  0.8149  0.4611  0.6653  1.0000
  C   C23       1.0  0.9132  0.43279999999999996  0.779  1.0000
  C   C24       1.0  0.09390000000000001  0.392  0.8304000000000001  1.0000
  C   C25       1.0  0.14400000000000002  0.2812  0.8204000000000001  1.0000
  C   C26       1.0  0.2168  0.2672  0.7537  1.0000
  C   C27       1.0  0.028299999999999995  0.3109  0.7032  1.0000
  C   C28       1.0  0.32600000000000007  0.2391  0.8717000000000001  1.0000
  N   N1        1.0  0.9942  0.08119999999999998  0.21510000000000004  1.0000
  N   N2        1.0  0.005800000000000006  0.5812  0.2849  1.0000
  N   N3        1.0  0.005800000000000006  0.9187999999999997  0.7849  1.0000
  N   N4        1.0  0.9942  0.4188  0.7151000000000001  1.0000
  O   O1        1.0  0.6858  0.9825999999999999  0.04648  1.0000
  O   O2        1.0  0.9632  0.1233  0.057400000000000014  1.0000
  O   O3        1.0  0.1227  0.9523999999999998  0.09190000000000001  1.0000
  O   O4        1.0  0.2992  0.2444  0.4294  1.0000
  O   O5        1.0  0.4948000000000001  0.31509999999999994  0.3579  1.0000
  O   O6        1.0  0.3142  0.48259999999999986  0.45352  1.0000
  O   O7        1.0  0.03680000000000006  0.6232999999999997  0.44260000000000005  1.0000
  O   O8        1.0  0.8773000000000001  0.4523999999999999  0.4081  1.0000
  O   O9        1.0  0.7008000000000002  0.7444  0.0706  1.0000
  O   O10       1.0  0.5052  0.8150999999999998  0.14210000000000003  1.0000
  O   O11       1.0  0.31420000000000015  0.0174  0.9535200000000003  1.0000
  O   O12       1.0  0.03680000000000002  0.8767  0.9426  1.0000
  O   O13       1.0  0.8773000000000001  0.0476  0.9081  1.0000
  O   O14       1.0  0.7008000000000001  0.7555999999999999  0.5706000000000001  1.0000
  O   O15       1.0  0.5052  0.6849  0.6421  1.0000
  O   O16       1.0  0.6858  0.5174  0.54648  1.0000
  O   O17       1.0  0.9632  0.3767  0.5574  1.0000
  O   O18       1.0  0.12270000000000009  0.5476  0.5919000000000001  1.0000
  O   O19       1.0  0.29920000000000013  0.2556  0.9294  1.0000
  O   O20       1.0  0.4948000000000001  0.18489999999999995  0.8579  1.0000
