data_image0
_chemical_formula_structural       Cd6H60C108O36
_chemical_formula_sum              "Cd6 H60 C108 O36"
_cell_length_a       11.4391
_cell_length_b       15.4481
_cell_length_c       19.1156
_cell_angle_alpha    94.625
_cell_angle_beta     90.0
_cell_angle_gamma    90.0

_space_group_name_H-M_alt    "P 1"
_space_group_IT_number       1

loop_
  _space_group_symop_operation_xyz
  'x, y, z'

loop_
  _atom_site_type_symbol
  _atom_site_label
  _atom_site_symmetry_multiplicity
  _atom_site_fract_x
  _atom_site_fract_y
  _atom_site_fract_z
  _atom_site_occupancy
  Cd  Cd1       1.0  0.56637  0.54334  0.42289999999999994  1.0000
  Cd  Cd2       1.0  0.43363  0.54334  0.9229  1.0000
  Cd  Cd3       1.0  0.56637  0.45665999999999995  0.0771  1.0000
  Cd  Cd4       1.0  0.5319900000000001  0.5  0.75  1.0000
  Cd  Cd5       1.0  0.46801000000000004  0.5  0.25  1.0000
  Cd  Cd6       1.0  0.43363  0.45665999999999995  0.5771  1.0000
  H   H1        1.0  0.0014  0.7636999999999998  0.3051  1.0000
  H   H2        1.0  0.3148  0.6179  0.6927  1.0000
  H   H3        1.0  0.268  0.7201  0.48040000000000005  1.0000
  H   H4        1.0  0.6817  0.8328  0.7553  1.0000
  H   H5        1.0  0.1902  0.01960000000000001  0.5885000000000001  1.0000
  H   H6        1.0  0.15000000000000002  0.933  0.36700000000000005  1.0000
  H   H7        1.0  0.7382000000000002  0.7107  0.10880000000000001  1.0000
  H   H8        1.0  0.15000000000000002  0.067  0.133  1.0000
  H   H9        1.0  0.5791  0.7065  0.7232000000000001  1.0000
  H   H10       1.0  0.11940000000000003  0.179  0.9998  1.0000
  H   H11       1.0  0.9919000000000002  0.8365999999999999  0.6701  1.0000
  H   H12       1.0  0.8440000000000002  0.336  0.714  1.0000
  H   H13       1.0  0.0081  0.8365999999999999  0.1701  1.0000
  H   H14       1.0  0.1956  0.8982  0.7612  1.0000
  H   H15       1.0  0.3148  0.3821  0.8073  1.0000
  H   H16       1.0  0.0014  0.2363  0.19490000000000002  1.0000
  H   H17       1.0  0.743  0.806  0.344  1.0000
  H   H18       1.0  0.0081  0.1634  0.3299  1.0000
  H   H19       1.0  0.25700000000000006  0.194  0.656  1.0000
  H   H20       1.0  0.156  0.664  0.286  1.0000
  H   H21       1.0  0.743  0.194  0.156  1.0000
  H   H22       1.0  0.31150000000000005  0.2852  0.4751000000000001  1.0000
  H   H23       1.0  0.6817  0.1672  0.7447  1.0000
  H   H24       1.0  0.2618  0.7107  0.6088000000000001  1.0000
  H   H25       1.0  0.6885  0.7148  0.5249  1.0000
  H   H26       1.0  0.7918  0.8413  0.5568  1.0000
  H   H27       1.0  0.31150000000000005  0.7148  0.0249  1.0000
  H   H28       1.0  0.20820000000000002  0.1587  0.4431999999999999  1.0000
  H   H29       1.0  0.3183  0.8328  0.2553000000000001  1.0000
  H   H30       1.0  0.4209  0.7065  0.2232  1.0000
  H   H31       1.0  0.5791  0.2935  0.7768  1.0000
  H   H32       1.0  0.7382000000000002  0.2893  0.3912  1.0000
  H   H33       1.0  0.9986000000000003  0.2363  0.6949  1.0000
  H   H34       1.0  0.3183  0.1672  0.2447  1.0000
  H   H35       1.0  0.6852  0.3821  0.3073  1.0000
  H   H36       1.0  0.85  0.067  0.633  1.0000
  H   H37       1.0  0.11940000000000003  0.8210000000000001  0.5002  1.0000
  H   H38       1.0  0.732  0.7201  0.9804  1.0000
  H   H39       1.0  0.1902  0.9804  0.9115000000000001  1.0000
  H   H40       1.0  0.7918  0.15870000000000004  0.9432000000000001  1.0000
  H   H41       1.0  0.6852  0.6179  0.1927  1.0000
  H   H42       1.0  0.8806000000000002  0.821  0.0002  1.0000
  H   H43       1.0  0.8044000000000001  0.1018  0.2388  1.0000
  H   H44       1.0  0.8044000000000001  0.8982  0.2612  1.0000
  H   H45       1.0  0.4209  0.2935  0.2768  1.0000
  H   H46       1.0  0.9986000000000003  0.7636999999999998  0.8051  1.0000
  H   H47       1.0  0.732  0.2799  0.5196  1.0000
  H   H48       1.0  0.8806000000000002  0.179  0.4998000000000001  1.0000
  H   H49       1.0  0.9919000000000002  0.1634  0.8299  1.0000
  H   H50       1.0  0.8098000000000001  0.0196  0.0885  1.0000
  H   H51       1.0  0.6885  0.2852  0.9751000000000001  1.0000
  H   H52       1.0  0.156  0.336  0.214  1.0000
  H   H53       1.0  0.2618  0.2893  0.8912  1.0000
  H   H54       1.0  0.268  0.2799  0.0196  1.0000
  H   H55       1.0  0.20820000000000002  0.8413  0.0568  1.0000
  H   H56       1.0  0.8098000000000001  0.9804  0.4115  1.0000
  H   H57       1.0  0.1956  0.1018  0.7388  1.0000
  H   H58       1.0  0.85  0.933  0.867  1.0000
  H   H59       1.0  0.25700000000000006  0.806  0.8440000000000001  1.0000
  H   H60       1.0  0.8440000000000002  0.664  0.786  1.0000
  C   C1        1.0  0.0853  0.030499999999999992  0.1322  1.0000
  C   C2        1.0  0.3755  0.6973099999999998  0.12108000000000001  1.0000
  C   C3        1.0  0.6658  0.64462  0.3299  1.0000
  C   C4        1.0  0.0559  0.2446  0.16  1.0000
  C   C5        1.0  0.09450000000000003  0.052  0.34524000000000005  1.0000
  C   C6        1.0  0.2545  0.7865000000000001  0.79734  1.0000
  C   C7        1.0  0.10550000000000002  0.0792  0.87024  1.0000
  C   C8        1.0  0.8738000000000002  0.21039999999999995  0.5431  1.0000
  C   C9        1.0  0.8546000000000001  0.6958  0.82822  1.0000
  C   C10       1.0  0.7791000000000002  0.8421999999999997  0.24753  1.0000
  C   C11       1.0  0.9055  0.05200000000000002  0.8452400000000001  1.0000
  C   C12       1.0  0.5599000000000001  0.38566  0.89814  1.0000
  C   C13       1.0  0.7455  0.21349999999999994  0.20266  1.0000
  C   C14       1.0  0.3755  0.30269  0.37892  1.0000
  C   C15       1.0  0.44010000000000005  0.61434  0.10186000000000002  1.0000
  C   C16       1.0  0.022000000000000002  0.9436999999999998  0.8923800000000001  1.0000
  C   C17       1.0  0.6221  0.2666999999999999  0.81025  1.0000
  C   C18       1.0  0.9780000000000002  0.9436999999999998  0.39238  1.0000
  C   C19       1.0  0.0006  0.8918  0.15442  1.0000
  C   C20       1.0  0.0486  0.8023  0.4042  1.0000
  C   C21       1.0  0.7398000000000002  0.2702  0.34381  1.0000
  C   C22       1.0  0.8945  0.9208  0.12976  1.0000
  C   C23       1.0  0.9441000000000002  0.2446  0.66  1.0000
  C   C24       1.0  0.37790000000000007  0.7333  0.18975  1.0000
  C   C25       1.0  0.33420000000000005  0.35538  0.6701  1.0000
  C   C26       1.0  0.2535  0.1519  0.34081  1.0000
  C   C27       1.0  0.7745000000000001  0.31776  0.61949  1.0000
  C   C28       1.0  0.7742  0.1868  0.32297  1.0000
  C   C29       1.0  0.44010000000000005  0.38566  0.39814  1.0000
  C   C30       1.0  0.0853  0.9695  0.3678  1.0000
  C   C31       1.0  0.9441000000000002  0.7554  0.8399999999999999  1.0000
  C   C32       1.0  0.7791000000000002  0.1578  0.25247  1.0000
  C   C33       1.0  0.785  0.2708  0.5552  1.0000
  C   C34       1.0  0.2602  0.7298  0.65619  1.0000
  C   C35       1.0  0.32510000000000006  0.61969  0.36636  1.0000
  C   C36       1.0  0.7455  0.7865  0.29734  1.0000
  C   C37       1.0  0.2924  0.6745999999999998  0.7065  1.0000
  C   C38       1.0  0.6749  0.3803099999999999  0.63364  1.0000
  C   C39       1.0  0.1454  0.6958  0.32822  1.0000
  C   C40       1.0  0.7493  0.8139  0.59011  1.0000
  C   C41       1.0  0.7742  0.8132  0.17703  1.0000
  C   C42       1.0  0.6245  0.30269  0.8789200000000001  1.0000
  C   C43       1.0  0.3167  0.1912  0.2909  1.0000
  C   C44       1.0  0.37790000000000007  0.2666999999999999  0.31025  1.0000
  C   C45       1.0  0.6221  0.7333  0.68975  1.0000
  C   C46       1.0  0.11870000000000003  0.9981  0.89438  1.0000
  C   C47       1.0  0.785  0.7292  0.9448  1.0000
  C   C48       1.0  0.3167  0.8088  0.2091  1.0000
  C   C49       1.0  0.7398000000000002  0.7298  0.15619  1.0000
  C   C50       1.0  0.9780000000000002  0.0563  0.10762000000000001  1.0000
  C   C51       1.0  0.7084000000000001  0.29705  0.22303  1.0000
  C   C52       1.0  0.7465000000000002  0.15189999999999998  0.8408099999999998  1.0000
  C   C53       1.0  0.22580000000000003  0.8132  0.67703  1.0000
  C   C54       1.0  0.22580000000000003  0.1868  0.82297  1.0000
  C   C55       1.0  0.2535  0.8480999999999997  0.15919  1.0000
  C   C56       1.0  0.2507  0.8139  0.09011  1.0000
  C   C57       1.0  0.1262  0.7896  0.4569  1.0000
  C   C58       1.0  0.022000000000000002  0.05630000000000001  0.6076200000000002  1.0000
  C   C59       1.0  0.6749  0.61969  0.86636  1.0000
  C   C60       1.0  0.0559  0.7554  0.34  1.0000
  C   C61       1.0  0.6876  0.2618  0.92876  1.0000
  C   C62       1.0  0.11870000000000003  0.0019000000000000056  0.60562  1.0000
  C   C63       1.0  0.8546000000000001  0.3042  0.67178  1.0000
  C   C64       1.0  0.22090000000000007  0.8421999999999997  0.74753  1.0000
  C   C65       1.0  0.2916000000000001  0.70295  0.77697  1.0000
  C   C66       1.0  0.6876  0.7382  0.57124  1.0000
  C   C67       1.0  0.2545  0.21349999999999988  0.70266  1.0000
  C   C68       1.0  0.09450000000000003  0.948  0.15476  1.0000
  C   C69       1.0  0.6833  0.1912  0.7909  1.0000
  C   C70       1.0  0.10550000000000002  0.9208  0.62976  1.0000
  C   C71       1.0  0.2602  0.2702  0.84381  1.0000
  C   C72       1.0  0.6245  0.6973099999999998  0.62108  1.0000
  C   C73       1.0  0.9994000000000001  0.1082  0.84558  1.0000
  C   C74       1.0  0.7745000000000001  0.68224  0.8805100000000001  1.0000
  C   C75       1.0  0.2924  0.3254  0.7935  1.0000
  C   C76       1.0  0.5599000000000001  0.61434  0.60186  1.0000
  C   C77       1.0  0.7493  0.1861  0.90989  1.0000
  C   C78       1.0  0.32510000000000006  0.3803099999999999  0.13364  1.0000
  C   C79       1.0  0.8945  0.0792  0.37024  1.0000
  C   C80       1.0  0.22090000000000007  0.1578  0.75247  1.0000
  C   C81       1.0  0.9994000000000001  0.8918  0.6544200000000001  1.0000
  C   C82       1.0  0.22550000000000003  0.31776  0.11949000000000001  1.0000
  C   C83       1.0  0.1454  0.3042  0.17178000000000002  1.0000
  C   C84       1.0  0.8813  0.0019000000000000022  0.10562000000000002  1.0000
  C   C85       1.0  0.3124  0.7382  0.07124  1.0000
  C   C86       1.0  0.2916000000000001  0.29705  0.72303  1.0000
  C   C87       1.0  0.8738000000000002  0.7896  0.9568999999999999  1.0000
  C   C88       1.0  0.22550000000000003  0.68224  0.38051  1.0000
  C   C89       1.0  0.9147  0.0305  0.6322  1.0000
  C   C90       1.0  0.8813  0.9981  0.39438000000000006  1.0000
  C   C91       1.0  0.9514  0.1977  0.5958  1.0000
  C   C92       1.0  0.9147  0.9695  0.8678  1.0000
  C   C93       1.0  0.9055  0.948  0.65476  1.0000
  C   C94       1.0  0.7076  0.3254  0.2935  1.0000
  C   C95       1.0  0.7076  0.6745999999999998  0.20650000000000002  1.0000
  C   C96       1.0  0.7084000000000001  0.70295  0.27697  1.0000
  C   C97       1.0  0.6833  0.8088  0.7091000000000001  1.0000
  C   C98       1.0  0.0486  0.1977  0.0958  1.0000
  C   C99       1.0  0.2507  0.1861  0.40989000000000003  1.0000
  C   C100      1.0  0.33420000000000005  0.64462  0.8299  1.0000
  C   C101      1.0  0.7465000000000002  0.8480999999999997  0.65919  1.0000
  C   C102      1.0  0.21500000000000002  0.2708  0.0552  1.0000
  C   C103      1.0  0.3124  0.2618  0.42876  1.0000
  C   C104      1.0  0.9514  0.8023  0.9042  1.0000
  C   C105      1.0  0.21500000000000002  0.7292  0.4448  1.0000
  C   C106      1.0  0.6658  0.35538  0.1701  1.0000
  C   C107      1.0  0.1262  0.21039999999999995  0.0431  1.0000
  C   C108      1.0  0.0006  0.1082  0.34558  1.0000
  O   O1        1.0  0.0406  0.86289  0.9164600000000002  1.0000
  O   O2        1.0  0.3864  0.39701  0.08157  1.0000
  O   O3        1.0  0.32530000000000003  0.33432  0.60578  1.0000
  O   O4        1.0  0.5154  0.4257499999999999  0.84978  1.0000
  O   O5        1.0  0.45170000000000005  0.58627  0.03904  1.0000
  O   O6        1.0  0.6747  0.33432  0.10578  1.0000
  O   O7        1.0  0.9594000000000003  0.86289  0.41646  1.0000
  O   O8        1.0  0.32530000000000003  0.66568  0.8942200000000001  1.0000
  O   O9        1.0  0.3807  0.42755999999999994  0.69165  1.0000
  O   O10       1.0  0.45170000000000005  0.41373  0.46096000000000004  1.0000
  O   O11       1.0  0.5154  0.57425  0.65022  1.0000
  O   O12       1.0  0.2026  0.13306  0.8760099999999998  1.0000
  O   O13       1.0  0.7986  0.92605  0.6826400000000001  1.0000
  O   O14       1.0  0.6606  0.41077  0.69562  1.0000
  O   O15       1.0  0.3394  0.4107699999999999  0.19562000000000002  1.0000
  O   O16       1.0  0.6136  0.60299  0.91843  1.0000
  O   O17       1.0  0.5483  0.58627  0.53904  1.0000
  O   O18       1.0  0.6193  0.57244  0.30835000000000007  1.0000
  O   O19       1.0  0.6606  0.58923  0.80438  1.0000
  O   O20       1.0  0.4846  0.57425  0.15022  1.0000
  O   O21       1.0  0.5483  0.41373  0.96096  1.0000
  O   O22       1.0  0.20140000000000002  0.07395  0.31736  1.0000
  O   O23       1.0  0.7974  0.86694  0.12399  1.0000
  O   O24       1.0  0.20140000000000002  0.92605  0.18264  1.0000
  O   O25       1.0  0.7986  0.07395  0.81736  1.0000
  O   O26       1.0  0.3394  0.58923  0.30438  1.0000
  O   O27       1.0  0.0406  0.13711  0.58354  1.0000
  O   O28       1.0  0.3864  0.60299  0.4184300000000001  1.0000
  O   O29       1.0  0.3807  0.57244  0.80835  1.0000
  O   O30       1.0  0.2026  0.86694  0.62399  1.0000
  O   O31       1.0  0.6193  0.42756  0.19165  1.0000
  O   O32       1.0  0.6747  0.66568  0.39422  1.0000
  O   O33       1.0  0.6136  0.39701  0.58157  1.0000
  O   O34       1.0  0.9594000000000003  0.13711  0.08354  1.0000
  O   O35       1.0  0.4846  0.42574999999999996  0.34978000000000004  1.0000
  O   O36       1.0  0.7974  0.13306  0.37601  1.0000
