data_image0
_chemical_formula_structural       Ca4H12C28N4O16
_chemical_formula_sum              "Ca4 H12 C28 N4 O16"
_cell_length_a       6.4463
_cell_length_b       10.9728
_cell_length_c       16.0996
_cell_angle_alpha    90.0
_cell_angle_beta     99.77500000000002
_cell_angle_gamma    90.0

_space_group_name_H-M_alt    "P 1"
_space_group_IT_number       1

loop_
  _space_group_symop_operation_xyz
  'x, y, z'

loop_
  _atom_site_type_symbol
  _atom_site_label
  _atom_site_symmetry_multiplicity
  _atom_site_fract_x
  _atom_site_fract_y
  _atom_site_fract_z
  _atom_site_occupancy
  Ca  Ca1       1.0  0.24296999999999988  0.92848  0.9522299999999998  1.0000
  Ca  Ca2       1.0  0.2570299999999998  0.42848  0.5477699999999998  1.0000
  Ca  Ca3       1.0  0.75703  0.07152  0.047769999999999986  1.0000
  Ca  Ca4       1.0  0.74297  0.57152  0.4522299999999999  1.0000
  H   H1        1.0  0.5668999999999997  0.7176  0.7652999999999998  1.0000
  H   H2        1.0  0.2653999999999999  0.7726  0.7661999999999998  1.0000
  H   H3        1.0  0.7199  0.6243  0.6623999999999998  1.0000
  H   H4        1.0  0.9331  0.2176  0.7346999999999998  1.0000
  H   H5        1.0  0.23459999999999986  0.2726  0.7337999999999998  1.0000
  H   H6        1.0  0.7801  0.1243  0.8375999999999998  1.0000
  H   H7        1.0  0.43309999999999993  0.2824  0.2347  1.0000
  H   H8        1.0  0.7346  0.2274  0.23379999999999995  1.0000
  H   H9        1.0  0.2801  0.3757  0.3376  1.0000
  H   H10       1.0  0.06689999999999997  0.7823999999999999  0.2653  1.0000
  H   H11       1.0  0.7653999999999997  0.7274  0.2661999999999999  1.0000
  H   H12       1.0  0.2199  0.8757  0.1624  1.0000
  C   C1        1.0  0.011899999999999954  0.6897  0.7026  1.0000
  C   C2        1.0  0.8285999999999999  0.803  0.8229999999999997  1.0000
  C   C3        1.0  0.7092  0.7292  0.7638999999999998  1.0000
  C   C4        1.0  0.1217  0.7624  0.765  1.0000
  C   C5        1.0  0.8001  0.673  0.7029  1.0000
  C   C6        1.0  0.1213999999999999  0.6246  0.6392999999999998  1.0000
  C   C7        1.0  0.7307  0.8673  0.8903  1.0000
  C   C8        1.0  0.48809999999999987  0.18969999999999998  0.7974  1.0000
  C   C9        1.0  0.6714  0.303  0.6769999999999998  1.0000
  C   C10       1.0  0.7907999999999998  0.22920000000000001  0.7360999999999998  1.0000
  C   C11       1.0  0.3783  0.2624  0.735  1.0000
  C   C12       1.0  0.6999  0.173  0.7971  1.0000
  C   C13       1.0  0.3785999999999999  0.1246  0.8606999999999998  1.0000
  C   C14       1.0  0.7693  0.3673  0.6097  1.0000
  C   C15       1.0  0.9881  0.3103  0.2973999999999999  1.0000
  C   C16       1.0  0.17139999999999997  0.19699999999999998  0.177  1.0000
  C   C17       1.0  0.2907999999999999  0.2708  0.23609999999999995  1.0000
  C   C18       1.0  0.8782999999999997  0.2376  0.23499999999999993  1.0000
  C   C19       1.0  0.1999  0.327  0.2971  1.0000
  C   C20       1.0  0.8785999999999998  0.3754  0.3606999999999999  1.0000
  C   C21       1.0  0.2693  0.1327  0.10969999999999998  1.0000
  C   C22       1.0  0.5119  0.8103  0.2026  1.0000
  C   C23       1.0  0.3286  0.697  0.323  1.0000
  C   C24       1.0  0.20919999999999989  0.7708  0.2638999999999999  1.0000
  C   C25       1.0  0.6217  0.7376  0.2649999999999999  1.0000
  C   C26       1.0  0.3001  0.8269999999999998  0.20289999999999994  1.0000
  C   C27       1.0  0.6213999999999998  0.8754  0.1393  1.0000
  C   C28       1.0  0.23069999999999988  0.6327  0.39029999999999987  1.0000
  N   N1        1.0  0.033699999999999966  0.8191  0.8241  1.0000
  N   N2        1.0  0.46629999999999994  0.3191  0.6759  1.0000
  N   N3        1.0  0.9663  0.1809  0.1759  1.0000
  N   N4        1.0  0.5337  0.6809  0.3241  1.0000
  O   O1        1.0  0.8539999999999998  0.931  0.94263  1.0000
  O   O2        1.0  0.5385999999999997  0.852  0.8879899999999997  1.0000
  O   O3        1.0  0.30819999999999986  0.5947  0.6607599999999998  1.0000
  O   O4        1.0  0.01599999999999997  0.6005  0.56863  1.0000
  O   O5        1.0  0.6459999999999998  0.431  0.55737  1.0000
  O   O6        1.0  0.9613999999999999  0.352  0.61201  1.0000
  O   O7        1.0  0.19179999999999994  0.0947  0.8392399999999998  1.0000
  O   O8        1.0  0.4839999999999998  0.10049999999999999  0.9313699999999998  1.0000
  O   O9        1.0  0.14599999999999996  0.069  0.057369999999999984  1.0000
  O   O10       1.0  0.46139999999999975  0.148  0.11201  1.0000
  O   O11       1.0  0.6918  0.4053  0.33924  1.0000
  O   O12       1.0  0.9839999999999998  0.39949999999999997  0.43137  1.0000
  O   O13       1.0  0.35399999999999987  0.569  0.4426299999999999  1.0000
  O   O14       1.0  0.0386  0.648  0.38799  1.0000
  O   O15       1.0  0.8082  0.9053  0.16076  1.0000
  O   O16       1.0  0.516  0.8995  0.06863  1.0000
