data_image0
_chemical_formula_structural       Tb4H8C20O24
_chemical_formula_sum              "Tb4 H8 C20 O24"
_cell_length_a       9.1265
_cell_length_b       9.1265
_cell_length_c       14.400200000000002
_cell_angle_alpha    100.23499999999999
_cell_angle_beta     100.23499999999999
_cell_angle_gamma    116.058

_space_group_name_H-M_alt    "P 1"
_space_group_IT_number       1

loop_
  _space_group_symop_operation_xyz
  'x, y, z'

loop_
  _atom_site_type_symbol
  _atom_site_label
  _atom_site_symmetry_multiplicity
  _atom_site_fract_x
  _atom_site_fract_y
  _atom_site_fract_z
  _atom_site_occupancy
  Tb  Tb1       1.0  0.7407  0.9907000000000001  0.9814  1.0000
  Tb  Tb2       1.0  0.5093  0.7593000000000002  0.5186  1.0000
  Tb  Tb3       1.0  0.2593  0.0093  0.0186  1.0000
  Tb  Tb4       1.0  0.4907000000000001  0.2407  0.4814  1.0000
  H   H1        1.0  0.8826000000000002  0.457  0.068  1.0000
  H   H2        1.0  0.6854  0.611  0.068  1.0000
  H   H3        1.0  0.042999999999999955  0.6174  0.432  1.0000
  H   H4        1.0  0.889  0.8146  0.432  1.0000
  H   H5        1.0  0.11739999999999995  0.5429999999999999  0.9319999999999999  1.0000
  H   H6        1.0  0.31459999999999994  0.38899999999999996  0.9319999999999999  1.0000
  H   H7        1.0  0.957  0.3826  0.568  1.0000
  H   H8        1.0  0.11099999999999999  0.1854  0.568  1.0000
  C   C1        1.0  0.62564  0.30204  0.05807999999999999  1.0000
  C   C2        1.0  0.7814600000000003  0.46066  0.06412  1.0000
  C   C3        1.0  0.93244  0.75604  0.05807999999999999  1.0000
  C   C4        1.0  0.78266  0.60346  0.06412  1.0000
  C   C5        1.0  0.19796000000000005  0.87436  0.44192000000000004  1.0000
  C   C6        1.0  0.039340000000000014  0.71854  0.43588  1.0000
  C   C7        1.0  0.74396  0.56756  0.44192000000000004  1.0000
  C   C8        1.0  0.8965399999999997  0.71734  0.43588  1.0000
  C   C9        1.0  0.37436  0.69796  0.94192  1.0000
  C   C10       1.0  0.21854  0.53934  0.93588  1.0000
  C   C11       1.0  0.06756000000000002  0.24396000000000007  0.94192  1.0000
  C   C12       1.0  0.21734  0.39654  0.93588  1.0000
  C   C13       1.0  0.8020400000000001  0.12563999999999995  0.55808  1.0000
  C   C14       1.0  0.9606599999999998  0.28146  0.56412  1.0000
  C   C15       1.0  0.25604  0.43244  0.55808  1.0000
  C   C16       1.0  0.10346  0.28266  0.56412  1.0000
  C   C17       1.0  0.6749000000000002  0.8251000000000001  0.7500000000000001  1.0000
  C   C18       1.0  0.5751  0.9249  0.7500000000000001  1.0000
  C   C19       1.0  0.3251  0.1749  0.25  1.0000
  C   C20       1.0  0.4249  0.0751  0.25  1.0000
  O   O1        1.0  0.63083  0.16741  0.03344  1.0000
  O   O2        1.0  0.4957  0.3034  0.0759  1.0000
  O   O3        1.0  0.7616900000000001  0.8395300000000001  0.8318200000000001  1.0000
  O   O4        1.0  0.9026100000000001  0.8660300000000002  0.03344  1.0000
  O   O5        1.0  0.08020000000000001  0.7725  0.0759  1.0000
  O   O6        1.0  0.5701300000000001  0.9922900000000002  0.8318200000000001  1.0000
  O   O7        1.0  0.33259000000000005  0.8691700000000002  0.4665599999999999  1.0000
  O   O8        1.0  0.19659999999999997  0.004299999999999993  0.4241  1.0000
  O   O9        1.0  0.6604699999999999  0.73831  0.6681799999999999  1.0000
  O   O10       1.0  0.63397  0.59739  0.4665599999999999  1.0000
  O   O11       1.0  0.7275  0.4198  0.4241  1.0000
  O   O12       1.0  0.5077099999999999  0.9298699999999999  0.6681799999999999  1.0000
  O   O13       1.0  0.36917  0.83259  0.96656  1.0000
  O   O14       1.0  0.5043  0.6966  0.9241  1.0000
  O   O15       1.0  0.23830999999999997  0.16047  0.16818  1.0000
  O   O16       1.0  0.09739000000000007  0.13396999999999998  0.96656  1.0000
  O   O17       1.0  0.9198000000000001  0.2275  0.9241  1.0000
  O   O18       1.0  0.42987000000000003  0.007709999999999998  0.16818  1.0000
  O   O19       1.0  0.66741  0.13083000000000006  0.53344  1.0000
  O   O20       1.0  0.8034  0.9957000000000001  0.5759  1.0000
  O   O21       1.0  0.33953  0.26169  0.33182  1.0000
  O   O22       1.0  0.3660300000000001  0.4026100000000001  0.53344  1.0000
  O   O23       1.0  0.2725  0.5802  0.5759  1.0000
  O   O24       1.0  0.49229  0.07013  0.33182  1.0000
