data_image0
_chemical_formula_structural       Y8H36C114O48F36
_chemical_formula_sum              "Y8 H36 C114 O48 F36"
_cell_length_a       7.15096107
_cell_length_b       21.46132683
_cell_length_c       22.48441198
_cell_angle_alpha    85.10140267
_cell_angle_beta     76.61838268
_cell_angle_gamma    81.60749702

_space_group_name_H-M_alt    "P 1"
_space_group_IT_number       1

loop_
  _space_group_symop_operation_xyz
  'x, y, z'

loop_
  _atom_site_type_symbol
  _atom_site_label
  _atom_site_symmetry_multiplicity
  _atom_site_fract_x
  _atom_site_fract_y
  _atom_site_fract_z
  _atom_site_occupancy
  Y   Y1        1.0  0.8476949999999998  0.40009286  0.28159099  1.0000
  Y   Y2        1.0  0.37159356  0.47201446  0.4397359  1.0000
  Y   Y3        1.0  0.56138091  0.24766389  0.10348984  1.0000
  Y   Y4        1.0  0.33625679  0.11567682  0.02165324  1.0000
  Y   Y5        1.0  0.15230500000000022  0.59990714  0.71840901  1.0000
  Y   Y6        1.0  0.6284064400000006  0.5279855399999998  0.5602641  1.0000
  Y   Y7        1.0  0.4386190900000001  0.75233611  0.89651016  1.0000
  Y   Y8        1.0  0.6637432099999997  0.88432318  0.9783467599999999  1.0000
  H   H1        1.0  0.6408738200000003  0.61745173  0.23055837999999998  1.0000
  H   H2        1.0  0.5931054999999998  0.70115391  0.4325049699999999  1.0000
  H   H3        1.0  0.4923078600000001  0.7721607  0.35162455  1.0000
  H   H4        1.0  0.4068296900000001  0.72860457  0.11655201  1.0000
  H   H5        1.0  0.10345729999999999  0.7369902  0.10655194  1.0000
  H   H6        1.0  0.87502914  0.73028373  0.20757755  1.0000
  H   H7        1.0  0.34310887  0.29264101  0.43514398  1.0000
  H   H8        1.0  0.2934739200000001  0.19645344  0.24827583999999994  1.0000
  H   H9        1.0  0.25827468  0.13245261  0.3444589  1.0000
  H   H10       1.0  0.9562305400000003  0.24917623000000003  0.4152508999999999  1.0000
  H   H11       1.0  0.9567689400000001  0.32310849  0.61658579  1.0000
  H   H12       1.0  0.13272769000000004  0.21823007  0.58734335  1.0000
  H   H13       1.0  0.7006677700000002  0.09232818999999999  0.21436030999999997  1.0000
  H   H14       1.0  0.8938327  0.8765975500000001  0.14208632  1.0000
  H   H15       1.0  0.9533208000000001  0.89947431  0.24067615  1.0000
  H   H16       1.0  0.12860622  0.06175904  0.21335357  1.0000
  H   H17       1.0  0.67788893  0.23544122  0.31791746  1.0000
  H   H18       1.0  0.6710731200000001  0.12829636  0.36392561  1.0000
  H   H19       1.0  0.3591261800000001  0.38254827  0.76944162  1.0000
  H   H20       1.0  0.4068945  0.29884609  0.56749503  1.0000
  H   H21       1.0  0.5076921400000002  0.2278393  0.64837545  1.0000
  H   H22       1.0  0.5931703100000003  0.27139543  0.88344799  1.0000
  H   H23       1.0  0.8965427000000005  0.26300980000000007  0.89344806  1.0000
  H   H24       1.0  0.1249708600000001  0.26971627000000004  0.7924224499999999  1.0000
  H   H25       1.0  0.65689113  0.70735899  0.56485602  1.0000
  H   H26       1.0  0.7065260799999996  0.8035465599999999  0.75172416  1.0000
  H   H27       1.0  0.7417253200000001  0.86754739  0.6555411  1.0000
  H   H28       1.0  0.04376945999999998  0.75082377  0.5847491  1.0000
  H   H29       1.0  0.04323105999999991  0.67689151  0.38341421  1.0000
  H   H30       1.0  0.8672723100000003  0.78176993  0.41265664999999996  1.0000
  H   H31       1.0  0.2993322299999999  0.9076718100000001  0.78563969  1.0000
  H   H32       1.0  0.10616730000000008  0.12340245000000002  0.8579136799999999  1.0000
  H   H33       1.0  0.046679199999999976  0.10052569000000001  0.75932385  1.0000
  H   H34       1.0  0.8713937800000003  0.93824096  0.7866464299999999  1.0000
  H   H35       1.0  0.32211106999999994  0.76455878  0.68208254  1.0000
  H   H36       1.0  0.32892688000000037  0.8717036399999999  0.63607439  1.0000
  C   C1        1.0  0.4876383  0.74231919  0.23295017999999995  1.0000
  C   C2        1.0  0.5574219299999998  0.70021051  0.28443712  1.0000
  C   C3        1.0  0.6250961900000004  0.63634671  0.2751653  1.0000
  C   C4        1.0  0.6681024100000001  0.59458742  0.32305539  1.0000
  C   C5        1.0  0.6557042100000003  0.61861355  0.38056494  1.0000
  C   C6        1.0  0.6007535500000001  0.68310224  0.38816175999999997  1.0000
  C   C7        1.0  0.54584647  0.72323747  0.34173332  1.0000
  C   C8        1.0  0.7209502199999999  0.52597906  0.31030625  1.0000
  C   C9        1.0  0.6765089200000002  0.58183488  0.43869856  1.0000
  C   C10       1.0  0.6233892900000005  0.7313632  0.16989052  1.0000
  C   C11       1.0  0.55870091  0.7300805  0.11595385  1.0000
  C   C12       1.0  0.68666195  0.73407847  0.05904545  1.0000
  C   C13       1.0  0.8834090399999999  0.73930314  0.05524852  1.0000
  C   C14       1.0  0.9506265  0.73432682  0.10922454  1.0000
  C   C15       1.0  0.8223371399999999  0.73075357  0.16581814  1.0000
  C   C16       1.0  0.6015993900000002  0.73936963  0.00320847  1.0000
  C   C17       1.0  0.009153219999999936  0.76219315  0.99643426  1.0000
  C   C18       1.0  0.27725734000000013  0.73002046  0.23450489999999996  1.0000
  C   C19       1.0  0.47979081000000007  0.8143386500000002  0.24321575  1.0000
  C   C20       1.0  0.2213275799999999  0.17713342999999998  0.46371713  1.0000
  C   C21       1.0  0.29320781000000024  0.2072089  0.39838358  1.0000
  C   C22       1.0  0.33345235000000006  0.27010498  0.39452078  1.0000
  C   C23       1.0  0.34628884000000015  0.30693898  0.34004824  1.0000
  C   C24       1.0  0.32418955000000016  0.28144155  0.28679991  1.0000
  C   C25       1.0  0.3058997600000001  0.21750845  0.28919309  1.0000
  C   C26       1.0  0.28745194  0.18077681  0.34435845  1.0000
  C   C27       1.0  0.38958179  0.37348062  0.33732708  1.0000
  C   C28       1.0  0.2975917900000001  0.32489901  0.23201746999999998  1.0000
  C   C29       1.0  0.06823336000000006  0.22808112000000003  0.4970599299999999  1.0000
  C   C30       1.0  0.95650023  0.26441638  0.46009124  1.0000
  C   C31       1.0  0.86297144  0.32395531  0.47558294  1.0000
  C   C32       1.0  0.8701866900000005  0.34608895  0.53206737  1.0000
  C   C33       1.0  0.9543311899999999  0.30530995  0.5729916899999999  1.0000
  C   C34       1.0  0.055042080000000104  0.24655449  0.5560466399999999  1.0000
  C   C35       1.0  0.7677770600000001  0.35970062  0.42815272  1.0000
  C   C36       1.0  0.8256524000000003  0.41405245999999996  0.54488912  1.0000
  C   C37       1.0  0.39495152  0.15986692  0.49533611999999994  1.0000
  C   C38       1.0  0.11896595000000001  0.11748129000000002  0.46495994999999996  1.0000
  C   C39       1.0  0.8544383200000002  0.01580113  0.29861721  1.0000
  C   C40       1.0  0.8289636500000002  0.9975848699999998  0.23610510999999998  1.0000
  C   C41       1.0  0.74512599  0.044491840000000005  0.19956861  1.0000
  C   C42       1.0  0.72032895  0.03295979000000001  0.14196074999999997  1.0000
  C   C43       1.0  0.7683834699999998  0.9712435200000001  0.12163334999999999  1.0000
  C   C44       1.0  0.85384676  0.92441275  0.15770342  1.0000
  C   C45       1.0  0.88581474  0.93721077  0.21408365  1.0000
  C   C46       1.0  0.6497671100000001  0.08708515  0.10302360999999999  1.0000
  C   C47       1.0  0.7217641000000004  0.9510012400000001  0.06510329  1.0000
  C   C48       1.0  0.89067989  0.08530506  0.29019777  1.0000
  C   C49       1.0  0.02966409999999999  0.09924709999999999  0.23787074  1.0000
  C   C50       1.0  0.030606790000000026  0.15976592  0.21051316999999994  1.0000
  C   C51       1.0  0.8938215399999999  0.20934273  0.23699546  1.0000
  C   C52       1.0  0.7786991200000002  0.19727057  0.29485765  1.0000
  C   C53       1.0  0.7747178600000002  0.13575544  0.32122053  1.0000
  C   C54       1.0  0.17947930999999998  0.16632334  0.15298138  1.0000
  C   C55       1.0  0.8476835200000002  0.26979655  0.20097914  1.0000
  C   C56       1.0  0.66384598  0.0047602400000000015  0.34549423999999995  1.0000
  C   C57       1.0  0.028408729999999938  0.97549477  0.32025251  1.0000
  C   C58       1.0  0.5123617000000001  0.25768081  0.76704982  1.0000
  C   C59       1.0  0.44257807000000016  0.29978949  0.71556288  1.0000
  C   C60       1.0  0.3749038100000001  0.36365328999999996  0.7248347  1.0000
  C   C61       1.0  0.3318975900000002  0.40541258  0.67694461  1.0000
  C   C62       1.0  0.3442957900000001  0.3813864499999999  0.61943506  1.0000
  C   C63       1.0  0.39924645000000003  0.31689776  0.61183824  1.0000
  C   C64       1.0  0.45415353000000014  0.27676253  0.65826668  1.0000
  C   C65       1.0  0.27904978  0.47402094000000006  0.68969375  1.0000
  C   C66       1.0  0.32349108000000004  0.41816512  0.56130144  1.0000
  C   C67       1.0  0.37661071  0.2686368  0.8301094799999998  1.0000
  C   C68       1.0  0.4412990899999999  0.2699195  0.88404615  1.0000
  C   C69       1.0  0.31333805  0.26592153  0.94095455  1.0000
  C   C70       1.0  0.11659096000000002  0.2606968599999999  0.94475148  1.0000
  C   C71       1.0  0.049373500000000056  0.26567318  0.8907754599999999  1.0000
  C   C72       1.0  0.17766286  0.26924643  0.83418186  1.0000
  C   C73       1.0  0.39840061  0.26063037  0.99679153  1.0000
  C   C74       1.0  0.9908467800000003  0.23780685000000001  0.00356574  1.0000
  C   C75       1.0  0.7227426600000001  0.26997954  0.7654951  1.0000
  C   C76       1.0  0.52020919  0.18566135  0.75678425  1.0000
  C   C77       1.0  0.7786724199999999  0.82286657  0.53628287  1.0000
  C   C78       1.0  0.70679219  0.7927911  0.60161642  1.0000
  C   C79       1.0  0.6665476500000004  0.72989502  0.60547922  1.0000
  C   C80       1.0  0.65371116  0.69306102  0.65995176  1.0000
  C   C81       1.0  0.6758104500000004  0.7185584499999997  0.71320009  1.0000
  C   C82       1.0  0.6941002400000005  0.78249155  0.7108069099999998  1.0000
  C   C83       1.0  0.7125480600000001  0.81922319  0.65564155  1.0000
  C   C84       1.0  0.61041821  0.62651938  0.66267292  1.0000
  C   C85       1.0  0.70240821  0.67510099  0.7679825299999999  1.0000
  C   C86       1.0  0.93176664  0.77191888  0.50294007  1.0000
  C   C87       1.0  0.04349977000000001  0.73558362  0.53990876  1.0000
  C   C88       1.0  0.13702856000000013  0.67604469  0.5244170599999999  1.0000
  C   C89       1.0  0.12981331000000015  0.65391105  0.46793263  1.0000
  C   C90       1.0  0.04566880999999998  0.69469005  0.42700830999999995  1.0000
  C   C91       1.0  0.94495792  0.7534455099999998  0.44395335999999996  1.0000
  C   C92       1.0  0.23222294000000024  0.64029938  0.5718472799999998  1.0000
  C   C93       1.0  0.17434760000000005  0.58594754  0.45511088  1.0000
  C   C94       1.0  0.6050484799999999  0.84013308  0.50466388  1.0000
  C   C95       1.0  0.88103405  0.88251871  0.53504005  1.0000
  C   C96       1.0  0.14556168000000003  0.98419887  0.70138279  1.0000
  C   C97       1.0  0.17103635  0.0024151299999999993  0.76389489  1.0000
  C   C98       1.0  0.25487401  0.9555081600000002  0.80043139  1.0000
  C   C99       1.0  0.27967105000000014  0.96704021  0.8580392499999999  1.0000
  C   C100      1.0  0.2316165300000001  0.028756480000000004  0.8783666499999999  1.0000
  C   C101      1.0  0.14615324000000007  0.07558724999999998  0.84229658  1.0000
  C   C102      1.0  0.11418526000000023  0.06278923000000002  0.7859163499999998  1.0000
  C   C103      1.0  0.3502328900000003  0.91291485  0.8969763899999998  1.0000
  C   C104      1.0  0.2782359000000001  0.04899876000000001  0.9348967099999997  1.0000
  C   C105      1.0  0.10932011000000003  0.91469494  0.70980223  1.0000
  C   C106      1.0  0.9703359  0.9007529  0.76212926  1.0000
  C   C107      1.0  0.9693932100000006  0.84023408  0.78948683  1.0000
  C   C108      1.0  0.1061784600000001  0.79065727  0.7630045399999998  1.0000
  C   C109      1.0  0.22130087999999998  0.80272943  0.70514235  1.0000
  C   C110      1.0  0.22528213999999983  0.8642445600000002  0.67877947  1.0000
  C   C111      1.0  0.82052069  0.8336766599999998  0.84701862  1.0000
  C   C112      1.0  0.15231648000000012  0.7302034499999999  0.79902086  1.0000
  C   C113      1.0  0.33615402000000005  0.9952397599999999  0.65450576  1.0000
  C   C114      1.0  0.9715912700000003  0.024505230000000003  0.67974749  1.0000
  O   O1        1.0  0.83170823  0.50920027  0.25908637  1.0000
  O   O2        1.0  0.6541372700000004  0.48343424  0.34976722  1.0000
  O   O3        1.0  0.57392956  0.53666833  0.45690271  1.0000
  O   O4        1.0  0.7710138499999999  0.59906553  0.47371193  1.0000
  O   O5        1.0  0.51963968  0.79521476  0.98909609  1.0000
  O   O6        1.0  0.6018425200000002  0.69357486  0.9722064999999999  1.0000
  O   O7        1.0  0.9296685300000002  0.8102144200000002  0.96965683  1.0000
  O   O8        1.0  0.18193548999999992  0.7367985  0.9787236199999999  1.0000
  O   O9        1.0  0.53493385  0.38707139999999995  0.29588539  1.0000
  O   O10       1.0  0.28465777000000003  0.41114707  0.3756718399999999  1.0000
  O   O11       1.0  0.3958782199999999  0.31238353  0.17918203999999996  1.0000
  O   O12       1.0  0.16935060000000002  0.37313233  0.24374907999999995  1.0000
  O   O13       1.0  0.8651664800000002  0.35734530000000003  0.3723229799999999  1.0000
  O   O14       1.0  0.5955185900000001  0.38521268  0.44375022  1.0000
  O   O15       1.0  0.7661425399999999  0.43195621  0.599904  1.0000
  O   O16       1.0  0.8471060100000002  0.45432719  0.4993526  1.0000
  O   O17       1.0  0.6401415600000001  0.14300729  0.1199904  1.0000
  O   O18       1.0  0.6037033000000003  0.07441346  0.05424353999999999  1.0000
  O   O19       1.0  0.55419133  0.93298541  0.07051309  1.0000
  O   O20       1.0  0.8507581699999999  0.94471541  0.015397399999999999  1.0000
  O   O21       1.0  0.25354199  0.21734476000000003  0.13982606  1.0000
  O   O22       1.0  0.2313837800000001  0.11714711  0.12178809999999997  1.0000
  O   O23       1.0  0.8584171500000001  0.32202577  0.22129959999999999  1.0000
  O   O24       1.0  0.7915754900000002  0.26394558  0.15242556  1.0000
  O   O25       1.0  0.16829177000000003  0.49079973  0.74091363  1.0000
  O   O26       1.0  0.34586273  0.51656576  0.65023278  1.0000
  O   O27       1.0  0.42607044000000005  0.46333167  0.54309729  1.0000
  O   O28       1.0  0.22898615000000005  0.40093447  0.52628807  1.0000
  O   O29       1.0  0.48036031999999995  0.20478524  0.01090391  1.0000
  O   O30       1.0  0.39815748000000006  0.30642514  0.027793499999999992  1.0000
  O   O31       1.0  0.07033147  0.18978558  0.030343169999999996  1.0000
  O   O32       1.0  0.8180645100000001  0.2632015  0.02127638  1.0000
  O   O33       1.0  0.4650661500000002  0.6129286  0.7041146099999999  1.0000
  O   O34       1.0  0.7153422300000004  0.58885293  0.62432816  1.0000
  O   O35       1.0  0.6041217799999999  0.68761647  0.82081796  1.0000
  O   O36       1.0  0.8306494000000001  0.62686767  0.75625092  1.0000
  O   O37       1.0  0.13483352  0.6426547  0.62767702  1.0000
  O   O38       1.0  0.40448141  0.61478732  0.55624978  1.0000
  O   O39       1.0  0.23385746000000004  0.56804379  0.40009599999999995  1.0000
  O   O40       1.0  0.1528939900000001  0.54567281  0.5006473999999999  1.0000
  O   O41       1.0  0.35985844000000017  0.85699271  0.8800095999999998  1.0000
  O   O42       1.0  0.3962967  0.92558654  0.94575646  1.0000
  O   O43       1.0  0.4458086700000001  0.06701459000000001  0.92948691  1.0000
  O   O44       1.0  0.14924183000000008  0.05528459000000001  0.9846025999999998  1.0000
  O   O45       1.0  0.7464580100000001  0.7826552400000002  0.8601739399999998  1.0000
  O   O46       1.0  0.7686162200000001  0.88285289  0.8782118999999999  1.0000
  O   O47       1.0  0.1415828500000001  0.67797423  0.7787003999999998  1.0000
  O   O48       1.0  0.2084245100000001  0.73605442  0.84757444  1.0000
  F   F1        1.0  0.16209633000000004  0.73203874  0.29147777  1.0000
  F   F2        1.0  0.18683357000000006  0.77397514  0.19879994999999998  1.0000
  F   F3        1.0  0.27558197999999995  0.67242009  0.21385287  1.0000
  F   F4        1.0  0.3324809999999999  0.8350559700000001  0.2902224  1.0000
  F   F5        1.0  0.6478996500000002  0.8258332  0.25631872  1.0000
  F   F6        1.0  0.45616789  0.85103629  0.1927561  1.0000
  F   F7        1.0  0.47709476000000006  0.2121787  0.5009702  1.0000
  F   F8        1.0  0.5377223700000004  0.11950664  0.46250964999999994  1.0000
  F   F9        1.0  0.34514779000000007  0.13229975999999996  0.55241971  1.0000
  F   F10       1.0  0.027922100000000005  0.10118422000000003  0.52297785  1.0000
  F   F11       1.0  0.24110218000000005  0.06614871  0.44253025  1.0000
  F   F12       1.0  0.9797458900000001  0.12935912  0.4314943299999999  1.0000
  F   F13       1.0  0.61837318  0.94575697  0.34358249999999996  1.0000
  F   F14       1.0  0.51244452  0.04547047  0.33186663  1.0000
  F   F15       1.0  0.6719872300000002  0.01295276  0.40394823999999996  1.0000
  F   F16       1.0  0.9936715900000005  0.91554321  0.33975862999999995  1.0000
  F   F17       1.0  0.19120475000000003  0.97107137  0.27425549  1.0000
  F   F18       1.0  0.07187203000000002  0.0018280399999999993  0.36728909  1.0000
  F   F19       1.0  0.8379036700000001  0.26796126  0.7085222299999999  1.0000
  F   F20       1.0  0.81316643  0.22602486  0.80120005  1.0000
  F   F21       1.0  0.72441802  0.32757991  0.78614713  1.0000
  F   F22       1.0  0.6675189999999998  0.16494403  0.7097776  1.0000
  F   F23       1.0  0.35210035  0.17416680000000004  0.74368128  1.0000
  F   F24       1.0  0.5438321099999999  0.14896370999999994  0.8072439  1.0000
  F   F25       1.0  0.5229052400000002  0.7878212999999998  0.4990298  1.0000
  F   F26       1.0  0.46227762999999994  0.88049336  0.53749035  1.0000
  F   F27       1.0  0.6548522100000002  0.86770024  0.4475802899999999  1.0000
  F   F28       1.0  0.9720778999999999  0.89881578  0.47702215  1.0000
  F   F29       1.0  0.7588978200000001  0.93385129  0.55746975  1.0000
  F   F30       1.0  0.020254110000000044  0.87064088  0.56850567  1.0000
  F   F31       1.0  0.3816268199999999  0.054243030000000005  0.6564175  1.0000
  F   F32       1.0  0.48755548000000015  0.9545295299999998  0.66813337  1.0000
  F   F33       1.0  0.32801277000000006  0.98704724  0.59605176  1.0000
  F   F34       1.0  0.006328410000000032  0.08445679  0.66024137  1.0000
  F   F35       1.0  0.8087952500000003  0.028928630000000007  0.72574451  1.0000
  F   F36       1.0  0.9281279699999998  0.99817196  0.63271091  1.0000
