data_image0
_chemical_formula_structural       Cu4H44C44N4O16
_chemical_formula_sum              "Cu4 H44 C44 N4 O16"
_cell_length_a       8.53322466
_cell_length_b       13.315270789999998
_cell_length_c       13.81752127
_cell_angle_alpha    118.64741732
_cell_angle_beta     89.48288761000002
_cell_angle_gamma    90.05483469

_space_group_name_H-M_alt    "P 1"
_space_group_IT_number       1

loop_
  _space_group_symop_operation_xyz
  'x, y, z'

loop_
  _atom_site_type_symbol
  _atom_site_label
  _atom_site_symmetry_multiplicity
  _atom_site_fract_x
  _atom_site_fract_y
  _atom_site_fract_z
  _atom_site_occupancy
  Cu  Cu1       1.0  0.9485532799999999  0.0001890500000000186  0.58795728  1.0000
  Cu  Cu2       1.0  0.05179426  0.9998745400000002  0.41154453000000013  1.0000
  Cu  Cu3       1.0  0.5516524799999998  0.41186268000000004  0.41129673  1.0000
  Cu  Cu4       1.0  0.44855715999999995  0.58779735  0.58840764  1.0000
  H   H1        1.0  0.8945703  0.5781933600000001  0.35289877  1.0000
  H   H2        1.0  0.2649648999999999  0.2583986  0.5963445  1.0000
  H   H3        1.0  0.51648413  0.8687366  0.9362896600000002  1.0000
  H   H4        1.0  0.39406829  0.7736482700000001  0.35294479  1.0000
  H   H5        1.0  0.59221325  0.8420924700000002  0.2617581500000001  1.0000
  H   H6        1.0  0.6398146  0.6527291  0.2772980500000001  1.0000
  H   H7        1.0  0.3125502499999999  0.21032794000000005  0.22038007  1.0000
  H   H8        1.0  0.007511269999999998  0.5840238100000003  0.6263576000000001  1.0000
  H   H9        1.0  0.98295843  0.9325079000000001  0.06415568  1.0000
  H   H10       1.0  0.011910099999999993  0.37291301  0.51884578  1.0000
  H   H11       1.0  0.59760017  0.15495842  0.93844854  1.0000
  H   H12       1.0  0.98810237  0.62709456  0.48115822000000014  1.0000
  H   H13       1.0  0.09626023999999997  0.7841277900000002  0.9394404200000002  1.0000
  H   H14       1.0  0.27570355999999996  0.63724129  0.80094567  1.0000
  H   H15       1.0  0.68746478  0.78966713  0.77961785  1.0000
  H   H16       1.0  0.77714976  0.1631170900000001  0.7992444600000003  1.0000
  H   H17       1.0  0.90374616  0.21586802000000005  0.060558460000000015  1.0000
  H   H18       1.0  0.48785054  0.8530151800000002  0.48097785000000004  1.0000
  H   H19       1.0  0.10544587  0.4217966700000001  0.6471012000000002  1.0000
  H   H20       1.0  0.4023999499999999  0.8450468800000002  0.06155548000000001  1.0000
  H   H21       1.0  0.23500076999999997  0.6623670900000003  0.40365283  1.0000
  H   H22       1.0  0.017050209999999996  0.06749279000000011  0.9358459000000002  1.0000
  H   H23       1.0  0.9924880399999999  0.41597193  0.3736268000000001  1.0000
  H   H24       1.0  0.86245943  0.8153614600000001  0.6483510900000001  1.0000
  H   H25       1.0  0.7242984499999998  0.3627419100000001  0.1990444  1.0000
  H   H26       1.0  0.60593454  0.2263478100000001  0.6470444300000001  1.0000
  H   H27       1.0  0.8122158699999997  0.009910100000000041  0.22075837000000004  1.0000
  H   H28       1.0  0.13753537  0.18463475  0.35164003  1.0000
  H   H29       1.0  0.13965906  0.62506894  0.27735689  1.0000
  H   H30       1.0  0.9071688899999998  0.58033392  0.73761198  1.0000
  H   H31       1.0  0.49050142999999996  0.9561061700000001  0.3720819200000001  1.0000
  H   H32       1.0  0.51215234  0.14695758000000003  0.51901973  1.0000
  H   H33       1.0  0.63749659  0.16625684  0.35139024  1.0000
  H   H34       1.0  0.8603329299999998  0.3749293200000001  0.72266377  1.0000
  H   H35       1.0  0.40777833  0.15793504000000005  0.7382843200000001  1.0000
  H   H36       1.0  0.50948836  0.04387736999999995  0.6279124  1.0000
  H   H37       1.0  0.22284749999999995  0.8368885000000003  0.20074959  1.0000
  H   H38       1.0  0.48352217999999997  0.13126305  0.06371208  1.0000
  H   H39       1.0  0.092788  0.41965966  0.26238667  1.0000
  H   H40       1.0  0.18780441  0.9900872100000004  0.7792400300000002  1.0000
  H   H41       1.0  0.36022114999999993  0.3472886800000001  0.7226850200000002  1.0000
  H   H42       1.0  0.36250317  0.8337346100000003  0.64859596  1.0000
  H   H43       1.0  0.76501401  0.33763224  0.59633927  1.0000
  H   H44       1.0  0.7350480399999998  0.7415859  0.4036461100000001  1.0000
  C   C1        1.0  0.62058253  0.70629048  0.36637299000000006  1.0000
  C   C2        1.0  0.7551568499999998  0.0828076300000001  0.80015856  1.0000
  C   C3        1.0  0.96651744  0.0029434400000000016  0.045751410000000006  1.0000
  C   C4        1.0  0.8457675199999998  0.19957608  0.12219965  1.0000
  C   C5        1.0  0.65520857  0.07716424000000008  0.8770304700000001  1.0000
  C   C6        1.0  0.2947438  0.12487177000000005  0.21053799000000006  1.0000
  C   C7        1.0  0.57252093  0.6293264800000002  0.4143096200000001  1.0000
  C   C8        1.0  0.92826783  0.2152099900000001  0.5858531200000001  1.0000
  C   C9        1.0  0.70527206  0.8751285400000001  0.78947496  1.0000
  C   C10       1.0  0.37941086  0.29372494  0.63362936  1.0000
  C   C11       1.0  0.23112330999999992  0.4691427400000001  0.40598531000000004  1.0000
  C   C12       1.0  0.27005881  0.06280718  0.59424535  1.0000
  C   C13       1.0  0.07166474  0.7847945200000003  0.41425189  1.0000
  C   C14       1.0  0.4665377599999999  0.04266407  0.04568748  1.0000
  C   C15       1.0  0.8796300100000001  0.3397655300000001  0.6335705  1.0000
  C   C16       1.0  0.79475666  0.08535414  0.21049836  1.0000
  C   C17       1.0  0.7688139799999998  0.5309722700000001  0.5941148300000001  1.0000
  C   C18       1.0  0.42740921  0.37077831  0.58579709  1.0000
  C   C19       1.0  0.2448416  0.9171982400000003  0.19984367  1.0000
  C   C20       1.0  0.07538038999999999  0.4658441500000001  0.35222818  1.0000
  C   C21       1.0  0.30260215  0.82751014  0.71557441  1.0000
  C   C22       1.0  0.19725830999999994  0.11175191000000001  0.28472883  1.0000
  C   C23       1.0  0.12985041  0.9034434500000003  0.8746335800000001  1.0000
  C   C24       1.0  0.53345432  0.9573350300000002  0.95430692  1.0000
  C   C25       1.0  0.7298803799999998  0.9371752300000002  0.40586025  1.0000
  C   C26       1.0  0.0334786  0.9970499200000001  0.9542416400000001  1.0000
  C   C27       1.0  0.8701598  0.09655382000000001  0.12536750000000002  1.0000
  C   C28       1.0  0.15424291999999998  0.8004229900000002  0.8778044000000002  1.0000
  C   C29       1.0  0.9245990999999998  0.53418669  0.64779193  1.0000
  C   C30       1.0  0.8027442199999998  0.8882466200000001  0.71527275  1.0000
  C   C31       1.0  0.49168633  0.19470325000000008  0.6083713100000001  1.0000
  C   C32       1.0  0.4254908099999999  0.114132  0.64842889  1.0000
  C   C33       1.0  0.63019917  0.9712786700000003  0.8744339800000002  1.0000
  C   C34       1.0  0.12034214999999998  0.66022328  0.36646838  1.0000
  C   C35       1.0  0.25415898  0.7181477400000003  0.8011835400000002  1.0000
  C   C36       1.0  0.99127126  0.41409903  0.60818108  1.0000
  C   C37       1.0  0.50829636  0.8052800800000001  0.39163435  1.0000
  C   C38       1.0  0.69740315  0.1724896700000001  0.28442055000000005  1.0000
  C   C39       1.0  0.57447197  0.88585554  0.3516319500000001  1.0000
  C   C40       1.0  0.008721650000000004  0.5859003000000003  0.39183088  1.0000
  C   C41       1.0  0.36980847  0.02872437  0.12556935  1.0000
  C   C42       1.0  0.7458428099999997  0.28184222000000003  0.19881509  1.0000
  C   C43       1.0  0.34479601  0.92284241  0.12298091000000003  1.0000
  C   C44       1.0  0.20526482  0.91465085  0.7895101200000002  1.0000
  N   N1        1.0  0.82982648  0.99036622  0.7208530200000001  1.0000
  N   N2        1.0  0.6707405599999998  0.26887093000000006  0.2784021300000001  1.0000
  N   N3        1.0  0.17013548  0.009631299999999997  0.27914262  1.0000
  N   N4        1.0  0.32922339  0.73112382  0.72158953  1.0000
  O   O1        1.0  0.09910007999999997  0.8318204000000002  0.35437339000000007  1.0000
  O   O2        1.0  0.16529775999999996  0.04788783000000008  0.6523593200000001  1.0000
  O   O3        1.0  0.7545682599999998  0.4534359500000001  0.49443732  1.0000
  O   O4        1.0  0.40042421  0.4774698800000002  0.6456951900000001  1.0000
  O   O5        1.0  0.90093223  0.1679184200000001  0.64555321  1.0000
  O   O6        1.0  0.59957585  0.5226796  0.35426967  1.0000
  O   O7        1.0  0.9882686699999998  0.16692180000000004  0.4893153000000001  1.0000
  O   O8        1.0  0.51319655  0.67709029  0.51109401  1.0000
  O   O9        1.0  0.011649039999999998  0.8333252400000002  0.51082472  1.0000
  O   O10       1.0  0.74430273  0.9591250900000003  0.5056328400000001  1.0000
  O   O11       1.0  0.33523231  0.39624293  0.34742096  1.0000
  O   O12       1.0  0.24567063  0.54665701  0.5056746  1.0000
  O   O13       1.0  0.25608018  0.04088631000000004  0.4945038500000001  1.0000
  O   O14       1.0  0.83425357  0.95203967  0.34755132  1.0000
  O   O15       1.0  0.48672811999999993  0.3228579400000002  0.4890166900000001  1.0000
  O   O16       1.0  0.66446973  0.60377879  0.65253968  1.0000
