data_image0
_chemical_formula_structural       Mn8H80C112N16O32
_chemical_formula_sum              "Mn8 H80 C112 N16 O32"
_cell_length_a       14.918
_cell_length_b       15.596
_cell_length_c       16.442
_cell_angle_alpha    90.0
_cell_angle_beta     105.606
_cell_angle_gamma    90.0

_space_group_name_H-M_alt    "P 1"
_space_group_IT_number       1

loop_
  _space_group_symop_operation_xyz
  'x, y, z'

loop_
  _atom_site_type_symbol
  _atom_site_label
  _atom_site_symmetry_multiplicity
  _atom_site_fract_x
  _atom_site_fract_y
  _atom_site_fract_z
  _atom_site_occupancy
  Mn  Mn1       1.0  0.25391000000000014  0.9315999999999998  0.9629100000000003  1.0000
  Mn  Mn2       1.0  0.27588  0.6459399999999997  0.04599000000000002  1.0000
  Mn  Mn3       1.0  0.24609  0.4315999999999999  0.53709  1.0000
  Mn  Mn4       1.0  0.2241200000000001  0.14594  0.45401000000000014  1.0000
  Mn  Mn5       1.0  0.74609  0.0684  0.03709  1.0000
  Mn  Mn6       1.0  0.72412  0.3540599999999999  0.95401  1.0000
  Mn  Mn7       1.0  0.75391  0.5684  0.4629100000000001  1.0000
  Mn  Mn8       1.0  0.7758800000000001  0.85406  0.5459900000000002  1.0000
  H   H1        1.0  0.2765  0.9654999999999998  0.2351  1.0000
  H   H2        1.0  0.3156  0.9052  0.5919  1.0000
  H   H3        1.0  0.26490000000000014  0.6115999999999998  0.7744000000000002  1.0000
  H   H4        1.0  0.2384  0.682  0.42970000000000014  1.0000
  H   H5        1.0  0.2771  0.5957999999999998  0.304  1.0000
  H   H6        1.0  0.2715  0.5552  0.3895  1.0000
  H   H7        1.0  0.27270000000000005  0.8684  0.78  1.0000
  H   H8        1.0  0.2518000000000001  0.8359999999999997  0.43930000000000013  1.0000
  H   H9        1.0  0.23930000000000007  0.9809999999999998  0.7003  1.0000
  H   H10       1.0  0.22669999999999998  0.0157  0.6086  1.0000
  H   H11       1.0  0.28750000000000003  0.7083  0.2398  1.0000
  H   H12       1.0  0.40680000000000016  0.4722999999999999  0.3493  1.0000
  H   H13       1.0  0.2771  0.7409  0.5668  1.0000
  H   H14       1.0  0.1056  0.9002999999999998  0.4992  1.0000
  H   H15       1.0  0.9544  0.8649999999999998  0.4684  1.0000
  H   H16       1.0  0.09450000000000008  0.9684  0.7301000000000002  1.0000
  H   H17       1.0  0.5964000000000003  0.6884  0.4791  1.0000
  H   H18       1.0  0.9424  0.9291  0.6946  1.0000
  H   H19       1.0  0.5627  0.4557  0.3904  1.0000
  H   H20       1.0  0.4394  0.7069  0.4462  1.0000
  H   H21       1.0  0.22350000000000003  0.46549999999999997  0.26490000000000014  1.0000
  H   H22       1.0  0.18440000000000006  0.4052  0.9081000000000002  1.0000
  H   H23       1.0  0.2351  0.1116  0.7256  1.0000
  H   H24       1.0  0.2616  0.18199999999999994  0.07030000000000003  1.0000
  H   H25       1.0  0.22290000000000004  0.09579999999999997  0.19600000000000006  1.0000
  H   H26       1.0  0.22850000000000004  0.055199999999999985  0.11050000000000003  1.0000
  H   H27       1.0  0.2273  0.3684  0.72  1.0000
  H   H28       1.0  0.2482  0.336  0.06070000000000001  1.0000
  H   H29       1.0  0.2607  0.481  0.7997  1.0000
  H   H30       1.0  0.2733000000000001  0.5156999999999998  0.8914000000000002  1.0000
  H   H31       1.0  0.2125  0.2083  0.2602  1.0000
  H   H32       1.0  0.0932  0.9722999999999998  0.1507  1.0000
  H   H33       1.0  0.22290000000000001  0.24089999999999995  0.9332  1.0000
  H   H34       1.0  0.3944  0.4003  0.0008  1.0000
  H   H35       1.0  0.5456  0.365  0.0316  1.0000
  H   H36       1.0  0.4055000000000001  0.4684  0.7699  1.0000
  H   H37       1.0  0.9036  0.1884  0.0209  1.0000
  H   H38       1.0  0.5576  0.42909999999999987  0.8054000000000002  1.0000
  H   H39       1.0  0.9373000000000002  0.9557  0.1096  1.0000
  H   H40       1.0  0.06060000000000001  0.2069  0.053800000000000014  1.0000
  H   H41       1.0  0.7235  0.0345  0.7649000000000002  1.0000
  H   H42       1.0  0.6844  0.0948  0.4081  1.0000
  H   H43       1.0  0.7351000000000002  0.3883999999999999  0.22560000000000005  1.0000
  H   H44       1.0  0.7616000000000002  0.3179999999999999  0.5703000000000003  1.0000
  H   H45       1.0  0.7229  0.4041999999999999  0.696  1.0000
  H   H46       1.0  0.7285  0.4448  0.6105  1.0000
  H   H47       1.0  0.7273  0.1316  0.22  1.0000
  H   H48       1.0  0.7482  0.16399999999999995  0.5607000000000002  1.0000
  H   H49       1.0  0.7607  0.018999999999999993  0.2997  1.0000
  H   H50       1.0  0.7733  0.9843  0.3914  1.0000
  H   H51       1.0  0.7125  0.2917  0.7602000000000002  1.0000
  H   H52       1.0  0.5932000000000002  0.5277  0.6507  1.0000
  H   H53       1.0  0.7229  0.2591  0.4332  1.0000
  H   H54       1.0  0.8944  0.09969999999999997  0.5008  1.0000
  H   H55       1.0  0.04560000000000001  0.135  0.5316  1.0000
  H   H56       1.0  0.9055  0.0316  0.2699  1.0000
  H   H57       1.0  0.4036000000000001  0.3116  0.5209  1.0000
  H   H58       1.0  0.0576  0.07089999999999999  0.3054  1.0000
  H   H59       1.0  0.4373  0.5443  0.6096  1.0000
  H   H60       1.0  0.5606  0.29309999999999997  0.5538  1.0000
  H   H61       1.0  0.7765000000000002  0.5345  0.7351  1.0000
  H   H62       1.0  0.8156  0.5947999999999999  0.0919  1.0000
  H   H63       1.0  0.7649  0.8884  0.2744  1.0000
  H   H64       1.0  0.7384000000000002  0.8179999999999997  0.9297  1.0000
  H   H65       1.0  0.7771000000000002  0.9042  0.8040000000000003  1.0000
  H   H66       1.0  0.7715  0.9448  0.8895000000000002  1.0000
  H   H67       1.0  0.7727  0.6316  0.28  1.0000
  H   H68       1.0  0.7518000000000002  0.664  0.9393  1.0000
  H   H69       1.0  0.7393  0.519  0.2003  1.0000
  H   H70       1.0  0.7267  0.4842999999999999  0.1086  1.0000
  H   H71       1.0  0.7875  0.7916999999999997  0.7398  1.0000
  H   H72       1.0  0.9068  0.027699999999999992  0.8493  1.0000
  H   H73       1.0  0.7771000000000003  0.7590999999999998  0.06680000000000003  1.0000
  H   H74       1.0  0.6056000000000001  0.5997  0.9992  1.0000
  H   H75       1.0  0.4544000000000002  0.635  0.9684000000000003  1.0000
  H   H76       1.0  0.5945  0.5316  0.2301  1.0000
  H   H77       1.0  0.09640000000000006  0.8115999999999998  0.9791000000000002  1.0000
  H   H78       1.0  0.4424  0.5708999999999997  0.1946  1.0000
  H   H79       1.0  0.06269999999999999  0.0443  0.8904  1.0000
  H   H80       1.0  0.9394000000000002  0.7930999999999998  0.9462000000000003  1.0000
  C   C1        1.0  0.2807  0.8364999999999998  0.2233  1.0000
  C   C2        1.0  0.2614000000000001  0.9141  0.34460000000000013  1.0000
  C   C3        1.0  0.2889  0.8341999999999998  0.1333  1.0000
  C   C4        1.0  0.25060000000000004  0.9969  0.3875000000000001  1.0000
  C   C5        1.0  0.2697  0.6644  0.6631  1.0000
  C   C6        1.0  0.27340000000000003  0.9139999999999998  0.2627000000000001  1.0000
  C   C7        1.0  0.2623000000000001  0.5812  0.6147000000000002  1.0000
  C   C8        1.0  0.2677  0.6635999999999997  0.7474  1.0000
  C   C9        1.0  0.2982000000000002  0.602  0.3649000000000001  1.0000
  C   C10       1.0  0.2699  0.7395999999999999  0.791  1.0000
  C   C11       1.0  0.27890000000000004  0.8197999999999998  0.6662000000000002  1.0000
  C   C12       1.0  0.27360000000000007  0.8174  0.7509000000000002  1.0000
  C   C13       1.0  0.2593  0.8359999999999997  0.385  1.0000
  C   C14       1.0  0.21980000000000005  0.9653999999999998  0.6411  1.0000
  C   C15       1.0  0.2799  0.7597  0.2659  1.0000
  C   C16       1.0  0.2680999999999999  0.7581999999999998  0.3469  1.0000
  C   C17       1.0  0.44400000000000006  0.5173  0.3764000000000001  1.0000
  C   C18       1.0  0.2638  0.7398  0.8812  1.0000
  C   C19       1.0  0.403  0.5933  0.3920000000000001  1.0000
  C   C20       1.0  0.27540000000000014  0.7409999999999998  0.6229000000000002  1.0000
  C   C21       1.0  0.11870000000000004  0.9404999999999999  0.6186  1.0000
  C   C22       1.0  0.07340000000000012  0.9074999999999998  0.5399000000000003  1.0000
  C   C23       1.0  0.9823  0.8857  0.5223  1.0000
  C   C24       1.0  0.06710000000000005  0.9473999999999998  0.6762  1.0000
  C   C25       1.0  0.5581  0.6436  0.4533  1.0000
  C   C26       1.0  0.9753  0.9234999999999998  0.6543  1.0000
  C   C27       1.0  0.5379  0.5081  0.40050000000000013  1.0000
  C   C28       1.0  0.4631  0.6554  0.4325  1.0000
  C   C29       1.0  0.2193  0.3365  0.2767  1.0000
  C   C30       1.0  0.2386  0.4141  0.1554  1.0000
  C   C31       1.0  0.2111  0.3342  0.3667  1.0000
  C   C32       1.0  0.2494  0.4969  0.1125  1.0000
  C   C33       1.0  0.23030000000000012  0.1644  0.8369000000000002  1.0000
  C   C34       1.0  0.22660000000000002  0.41399999999999987  0.23730000000000007  1.0000
  C   C35       1.0  0.23770000000000005  0.08119999999999997  0.8853  1.0000
  C   C36       1.0  0.23230000000000006  0.1636  0.7526  1.0000
  C   C37       1.0  0.20180000000000006  0.102  0.1351  1.0000
  C   C38       1.0  0.23010000000000005  0.2396  0.7090000000000002  1.0000
  C   C39       1.0  0.2211  0.3197999999999999  0.8338  1.0000
  C   C40       1.0  0.22640000000000005  0.3174  0.7491  1.0000
  C   C41       1.0  0.2407  0.336  0.115  1.0000
  C   C42       1.0  0.2802000000000001  0.4654  0.8589  1.0000
  C   C43       1.0  0.22010000000000002  0.2597  0.23410000000000006  1.0000
  C   C44       1.0  0.23190000000000005  0.2582  0.1531  1.0000
  C   C45       1.0  0.056  0.0173  0.1236  1.0000
  C   C46       1.0  0.2362000000000001  0.23979999999999996  0.6188000000000002  1.0000
  C   C47       1.0  0.09700000000000003  0.09329999999999997  0.10800000000000003  1.0000
  C   C48       1.0  0.2246  0.241  0.8771  1.0000
  C   C49       1.0  0.3813000000000001  0.4405  0.8814  1.0000
  C   C50       1.0  0.4266  0.4075  0.9601  1.0000
  C   C51       1.0  0.5177000000000002  0.3856999999999999  0.9777000000000002  1.0000
  C   C52       1.0  0.4329000000000001  0.44739999999999996  0.8238000000000002  1.0000
  C   C53       1.0  0.9419  0.1436  0.0467  1.0000
  C   C54       1.0  0.5247000000000002  0.4234999999999999  0.8457000000000002  1.0000
  C   C55       1.0  0.9621000000000002  0.008099999999999996  0.0995  1.0000
  C   C56       1.0  0.0369  0.15539999999999995  0.0675  1.0000
  C   C57       1.0  0.7193  0.1635  0.7767  1.0000
  C   C58       1.0  0.7386  0.08589999999999998  0.6554  1.0000
  C   C59       1.0  0.7111  0.16579999999999995  0.8667  1.0000
  C   C60       1.0  0.7494  0.003099999999999999  0.6125000000000003  1.0000
  C   C61       1.0  0.7303000000000002  0.3356  0.3369  1.0000
  C   C62       1.0  0.7266000000000001  0.086  0.7373  1.0000
  C   C63       1.0  0.7377  0.4188  0.3853000000000001  1.0000
  C   C64       1.0  0.7323  0.3364  0.2526  1.0000
  C   C65       1.0  0.7018000000000002  0.398  0.6351  1.0000
  C   C66       1.0  0.7301  0.2604  0.209  1.0000
  C   C67       1.0  0.7211000000000003  0.1802  0.3338000000000001  1.0000
  C   C68       1.0  0.7264  0.1826  0.24910000000000004  1.0000
  C   C69       1.0  0.7407000000000002  0.16399999999999995  0.6150000000000002  1.0000
  C   C70       1.0  0.7802  0.0346  0.3589  1.0000
  C   C71       1.0  0.7201000000000002  0.2403  0.7341  1.0000
  C   C72       1.0  0.7319000000000003  0.24179999999999996  0.6531000000000002  1.0000
  C   C73       1.0  0.556  0.4826999999999999  0.6236  1.0000
  C   C74       1.0  0.7362000000000002  0.2602  0.11880000000000003  1.0000
  C   C75       1.0  0.5970000000000002  0.4066999999999999  0.608  1.0000
  C   C76       1.0  0.7246000000000002  0.259  0.3771000000000001  1.0000
  C   C77       1.0  0.8813  0.05949999999999998  0.3814  1.0000
  C   C78       1.0  0.9266000000000001  0.0925  0.4601000000000001  1.0000
  C   C79       1.0  0.01769999999999997  0.11429999999999997  0.4777  1.0000
  C   C80       1.0  0.9329  0.05259999999999999  0.3238000000000001  1.0000
  C   C81       1.0  0.4419  0.3564  0.5467  1.0000
  C   C82       1.0  0.024700000000000038  0.07649999999999998  0.3457000000000001  1.0000
  C   C83       1.0  0.4621  0.4919  0.5995  1.0000
  C   C84       1.0  0.5369  0.3446  0.5675  1.0000
  C   C85       1.0  0.7807  0.6635  0.7233  1.0000
  C   C86       1.0  0.7614000000000001  0.5859  0.8446000000000002  1.0000
  C   C87       1.0  0.7889000000000003  0.6658  0.6333000000000002  1.0000
  C   C88       1.0  0.7506  0.5031  0.8875  1.0000
  C   C89       1.0  0.7697  0.8355999999999998  0.1631  1.0000
  C   C90       1.0  0.7734  0.586  0.7627000000000003  1.0000
  C   C91       1.0  0.7623  0.9187999999999997  0.1147  1.0000
  C   C92       1.0  0.7677  0.8364  0.2474  1.0000
  C   C93       1.0  0.7982000000000001  0.8979999999999998  0.8649000000000002  1.0000
  C   C94       1.0  0.7699  0.7604  0.291  1.0000
  C   C95       1.0  0.7789  0.6802  0.16620000000000004  1.0000
  C   C96       1.0  0.7736  0.6825999999999998  0.2509  1.0000
  C   C97       1.0  0.7593000000000002  0.664  0.885  1.0000
  C   C98       1.0  0.7198  0.5346  0.1411  1.0000
  C   C99       1.0  0.7799000000000001  0.7403  0.7659000000000002  1.0000
  C   C100      1.0  0.7681  0.7418  0.8469  1.0000
  C   C101      1.0  0.944  0.9826999999999998  0.8764000000000002  1.0000
  C   C102      1.0  0.7638  0.7602  0.3812000000000001  1.0000
  C   C103      1.0  0.903  0.9066999999999997  0.8920000000000002  1.0000
  C   C104      1.0  0.7754  0.759  0.12290000000000002  1.0000
  C   C105      1.0  0.6187  0.5595  0.1186  1.0000
  C   C106      1.0  0.5734  0.5925  0.0399  1.0000
  C   C107      1.0  0.4823  0.6142999999999997  0.022300000000000007  1.0000
  C   C108      1.0  0.5671  0.5526  0.17620000000000005  1.0000
  C   C109      1.0  0.058100000000000054  0.8563999999999998  0.9533000000000003  1.0000
  C   C110      1.0  0.47530000000000017  0.5765  0.15430000000000005  1.0000
  C   C111      1.0  0.03790000000000008  0.9919  0.9005000000000002  1.0000
  C   C112      1.0  0.9631000000000003  0.8445999999999998  0.9325000000000002  1.0000
  N   N1        1.0  0.9287999999999998  0.8916  0.5764  1.0000
  N   N2        1.0  0.2823  0.897  0.6255  1.0000
  N   N3        1.0  0.2628  0.682  0.3881  1.0000
  N   N4        1.0  0.5976  0.5703999999999998  0.438  1.0000
  N   N5        1.0  0.5712000000000002  0.3915999999999999  0.9236  1.0000
  N   N6        1.0  0.21770000000000006  0.3969999999999999  0.8745000000000003  1.0000
  N   N7        1.0  0.2372  0.18199999999999994  0.1119  1.0000
  N   N8        1.0  0.9024000000000001  0.07039999999999998  0.06200000000000001  1.0000
  N   N9        1.0  0.07120000000000001  0.10839999999999998  0.4236  1.0000
  N   N10       1.0  0.7177000000000002  0.103  0.3745000000000001  1.0000
  N   N11       1.0  0.7372  0.3179999999999999  0.6119  1.0000
  N   N12       1.0  0.4024  0.42959999999999987  0.562  1.0000
  N   N13       1.0  0.4288  0.6083999999999998  0.0764  1.0000
  N   N14       1.0  0.7823  0.6029999999999998  0.1255  1.0000
  N   N15       1.0  0.7628  0.8179999999999997  0.8881000000000002  1.0000
  N   N16       1.0  0.09760000000000009  0.9296  0.9380000000000002  1.0000
  O   O1        1.0  0.23710000000000003  0.0651  0.3457000000000001  1.0000
  O   O2        1.0  0.2621000000000001  0.511  0.6536000000000002  1.0000
  O   O3        1.0  0.2559  0.5825  0.5367  1.0000
  O   O4        1.0  0.27470000000000006  0.6694999999999998  0.9188000000000002  1.0000
  O   O5        1.0  0.2546  0.9964  0.4649000000000001  1.0000
  O   O6        1.0  0.2776  0.9047999999999998  0.0932  1.0000
  O   O7        1.0  0.30680000000000013  0.7645999999999997  0.10520000000000003  1.0000
  O   O8        1.0  0.245  0.8078  0.9102  1.0000
  O   O9        1.0  0.2629  0.5651  0.15430000000000005  1.0000
  O   O10       1.0  0.2379  0.010999999999999996  0.8464  1.0000
  O   O11       1.0  0.24409999999999996  0.08249999999999998  0.9633  1.0000
  O   O12       1.0  0.22530000000000006  0.1695  0.5812  1.0000
  O   O13       1.0  0.2454  0.4964  0.0351  1.0000
  O   O14       1.0  0.22240000000000004  0.4048  0.4068000000000001  1.0000
  O   O15       1.0  0.19320000000000004  0.2645999999999999  0.3948  1.0000
  O   O16       1.0  0.2550000000000001  0.3078  0.5898000000000002  1.0000
  O   O17       1.0  0.7629  0.9349  0.6543  1.0000
  O   O18       1.0  0.7379000000000001  0.489  0.3464000000000001  1.0000
  O   O19       1.0  0.7441  0.4175  0.4633  1.0000
  O   O20       1.0  0.7253  0.3304999999999999  0.0812  1.0000
  O   O21       1.0  0.7454000000000002  0.003599999999999999  0.5351  1.0000
  O   O22       1.0  0.7224000000000002  0.0952  0.9068000000000003  1.0000
  O   O23       1.0  0.6932000000000003  0.23539999999999994  0.8948  1.0000
  O   O24       1.0  0.7550000000000002  0.1922  0.0898  1.0000
  O   O25       1.0  0.7371  0.4349  0.8457000000000002  1.0000
  O   O26       1.0  0.7621  0.9889999999999998  0.15360000000000004  1.0000
  O   O27       1.0  0.7559  0.9174999999999998  0.0367  1.0000
  O   O28       1.0  0.7747  0.8305  0.4188  1.0000
  O   O29       1.0  0.7546000000000002  0.5036  0.9649000000000002  1.0000
  O   O30       1.0  0.7776000000000002  0.5952  0.5932  1.0000
  O   O31       1.0  0.8068  0.7354  0.6052  1.0000
  O   O32       1.0  0.745  0.6921999999999998  0.4102  1.0000
