data_image0
_chemical_formula_structural       Sr4H16C32O16
_chemical_formula_sum              "Sr4 H16 C32 O16"
_cell_length_a       6.897
_cell_length_b       12.1864
_cell_length_c       18.516
_cell_angle_alpha    90.0
_cell_angle_beta     90.0
_cell_angle_gamma    90.0

_space_group_name_H-M_alt    "P 1"
_space_group_IT_number       1

loop_
  _space_group_symop_operation_xyz
  'x, y, z'

loop_
  _atom_site_type_symbol
  _atom_site_label
  _atom_site_symmetry_multiplicity
  _atom_site_fract_x
  _atom_site_fract_y
  _atom_site_fract_z
  _atom_site_occupancy
  Sr  Sr1       1.0  0.25  0.08463999999999998  0.5176399999999998  1.0000
  Sr  Sr2       1.0  0.7500000000000001  0.41536  0.01764  1.0000
  Sr  Sr3       1.0  0.7500000000000001  0.91536  0.48236  1.0000
  Sr  Sr4       1.0  0.25  0.58464  0.98236  1.0000
  H   H1        1.0  0.9573000000000002  0.8378999999999998  0.3257  1.0000
  H   H2        1.0  0.9581000000000002  0.7568  0.2119  1.0000
  H   H3        1.0  0.042700000000000016  0.6620999999999999  0.8257  1.0000
  H   H4        1.0  0.041900000000000014  0.7432  0.7118999999999998  1.0000
  H   H5        1.0  0.4573  0.1621  0.6743  1.0000
  H   H6        1.0  0.4581  0.24319999999999997  0.7881  1.0000
  H   H7        1.0  0.5427  0.3378999999999999  0.1743  1.0000
  H   H8        1.0  0.5419000000000002  0.2568  0.2881  1.0000
  H   H9        1.0  0.042700000000000016  0.1621  0.6743  1.0000
  H   H10       1.0  0.041900000000000014  0.24319999999999997  0.7881  1.0000
  H   H11       1.0  0.9573000000000002  0.3378999999999999  0.1743  1.0000
  H   H12       1.0  0.9581000000000002  0.2568  0.2881  1.0000
  H   H13       1.0  0.5427  0.8378999999999998  0.3257  1.0000
  H   H14       1.0  0.5419000000000002  0.7568  0.2119  1.0000
  H   H15       1.0  0.4573  0.6620999999999999  0.8257  1.0000
  H   H16       1.0  0.4581  0.7432  0.7118999999999998  1.0000
  C   C1        1.0  0.0771  0.8212  0.3028  1.0000
  C   C2        1.0  0.07780000000000001  0.7730999999999998  0.2349  1.0000
  C   C3        1.0  0.9229000000000002  0.6788  0.8027999999999997  1.0000
  C   C4        1.0  0.9222000000000002  0.7268999999999999  0.7349  1.0000
  C   C5        1.0  0.5771  0.17879999999999996  0.6972  1.0000
  C   C6        1.0  0.5778  0.22689999999999996  0.7651  1.0000
  C   C7        1.0  0.4229  0.3212  0.1972  1.0000
  C   C8        1.0  0.4222000000000001  0.2731  0.2651  1.0000
  C   C9        1.0  0.9229000000000002  0.17879999999999996  0.6972  1.0000
  C   C10       1.0  0.9222000000000002  0.22689999999999996  0.7651  1.0000
  C   C11       1.0  0.0771  0.3212  0.1972  1.0000
  C   C12       1.0  0.07780000000000001  0.2731  0.2651  1.0000
  C   C13       1.0  0.4229  0.8212  0.3028  1.0000
  C   C14       1.0  0.4222000000000001  0.7730999999999998  0.2349  1.0000
  C   C15       1.0  0.5771  0.6788  0.8027999999999997  1.0000
  C   C16       1.0  0.5778  0.7268999999999999  0.7349  1.0000
  C   C17       1.0  0.25  0.8992  0.4107  1.0000
  C   C18       1.0  0.25  0.8450999999999997  0.3375  1.0000
  C   C19       1.0  0.25  0.6994  0.1256  1.0000
  C   C20       1.0  0.25  0.7485  0.2  1.0000
  C   C21       1.0  0.7500000000000001  0.6008  0.9106999999999998  1.0000
  C   C22       1.0  0.7500000000000001  0.6549  0.8375  1.0000
  C   C23       1.0  0.7500000000000001  0.8006  0.6255999999999999  1.0000
  C   C24       1.0  0.7500000000000001  0.7515  0.7  1.0000
  C   C25       1.0  0.7500000000000001  0.1008  0.5892999999999999  1.0000
  C   C26       1.0  0.7500000000000001  0.15489999999999998  0.6624999999999999  1.0000
  C   C27       1.0  0.7500000000000001  0.3006  0.8744  1.0000
  C   C28       1.0  0.7500000000000001  0.2515  0.8  1.0000
  C   C29       1.0  0.25  0.3991999999999999  0.0893  1.0000
  C   C30       1.0  0.25  0.3451  0.1625  1.0000
  C   C31       1.0  0.25  0.19939999999999994  0.3743999999999999  1.0000
  C   C32       1.0  0.25  0.24849999999999994  0.3  1.0000
  O   O1        1.0  0.0906  0.9234  0.43946  1.0000
  O   O2        1.0  0.0904  0.6803  0.09549999999999999  1.0000
  O   O3        1.0  0.9094000000000002  0.5766  0.9394599999999999  1.0000
  O   O4        1.0  0.9096  0.8197  0.5955  1.0000
  O   O5        1.0  0.5906  0.0766  0.56054  1.0000
  O   O6        1.0  0.5904000000000003  0.3197  0.9045  1.0000
  O   O7        1.0  0.4094  0.42339999999999994  0.06053999999999999  1.0000
  O   O8        1.0  0.4096  0.18029999999999996  0.40449999999999997  1.0000
  O   O9        1.0  0.9094000000000002  0.0766  0.56054  1.0000
  O   O10       1.0  0.9096  0.3197  0.9045  1.0000
  O   O11       1.0  0.0906  0.42339999999999994  0.06053999999999999  1.0000
  O   O12       1.0  0.0904  0.18029999999999996  0.40449999999999997  1.0000
  O   O13       1.0  0.4094  0.9234  0.43946  1.0000
  O   O14       1.0  0.4096  0.6803  0.09549999999999999  1.0000
  O   O15       1.0  0.5906  0.5766  0.9394599999999999  1.0000
  O   O16       1.0  0.5904000000000003  0.8197  0.5955  1.0000
