data_image0
_chemical_formula_structural       O3HC3HCO3HC3HCO3HC3HCO3HC3HCO3HC3HCO3HC3HCO3HC3HCO3HC3HCMg4
_chemical_formula_sum              "O24 H16 C32 Mg4"
_cell_length_a       13.5104
_cell_length_b       14.1107
_cell_length_c       8.8
_cell_angle_alpha    90.0
_cell_angle_beta     114.61699999999999
_cell_angle_gamma    90.0

_space_group_name_H-M_alt    "P 1"
_space_group_IT_number       1

loop_
  _space_group_symop_operation_xyz
  'x, y, z'

loop_
  _atom_site_type_symbol
  _atom_site_label
  _atom_site_symmetry_multiplicity
  _atom_site_fract_x
  _atom_site_fract_y
  _atom_site_fract_z
  _atom_site_occupancy
  O   O1        1.0  0.09186000000000001  0.57597  0.11542  1.0000
  O   O2        1.0  0.10515000000000001  0.52447  0.8854  1.0000
  O   O3        1.0  0.19328  0.62481  0.73495  1.0000
  H   H1        1.0  0.151  0.5845  0.7398  1.0000
  C   C1        1.0  0.12247  0.5846  0.00145  1.0000
  C   C2        1.0  0.18796  0.6699  0.99866  1.0000
  C   C3        1.0  0.21846  0.73508  0.12985  1.0000
  H   H2        1.0  0.1971  0.7253  0.2164  1.0000
  C   C4        1.0  0.21985  0.6856900000000001  0.8672  1.0000
  O   O4        1.0  0.59186  0.07597  0.11542  1.0000
  O   O5        1.0  0.60515  0.02447  0.8854  1.0000
  O   O6        1.0  0.6932800000000002  0.12481  0.73495  1.0000
  H   H3        1.0  0.6510000000000001  0.0845  0.7398  1.0000
  C   C5        1.0  0.62247  0.0846  0.00145  1.0000
  C   C6        1.0  0.68796  0.1699  0.99866  1.0000
  C   C7        1.0  0.7184600000000001  0.23508  0.12985  1.0000
  H   H4        1.0  0.6971000000000002  0.2253  0.2164  1.0000
  C   C8        1.0  0.71985  0.18569  0.8672  1.0000
  O   O7        1.0  0.90814  0.57597  0.38458  1.0000
  O   O8        1.0  0.8948499999999999  0.52447  0.6146  1.0000
  O   O9        1.0  0.80672  0.62481  0.76505  1.0000
  H   H5        1.0  0.849  0.5845  0.7602  1.0000
  C   C9        1.0  0.8775300000000003  0.5846  0.4985500000000001  1.0000
  C   C10       1.0  0.8120400000000002  0.6699  0.50134  1.0000
  C   C11       1.0  0.78154  0.73508  0.37015  1.0000
  H   H6        1.0  0.8029  0.7253  0.2836  1.0000
  C   C12       1.0  0.7801500000000002  0.6856900000000001  0.6328000000000003  1.0000
  O   O10       1.0  0.40814  0.07597  0.38458  1.0000
  O   O11       1.0  0.39485  0.02447  0.6146  1.0000
  O   O12       1.0  0.30672000000000005  0.12481  0.76505  1.0000
  H   H7        1.0  0.349  0.0845  0.7602  1.0000
  C   C13       1.0  0.37753  0.0846  0.4985500000000001  1.0000
  C   C14       1.0  0.31204  0.1699  0.50134  1.0000
  C   C15       1.0  0.28154  0.23508  0.37015  1.0000
  H   H8        1.0  0.30290000000000006  0.2253  0.2836  1.0000
  C   C16       1.0  0.2801500000000001  0.18569  0.6328000000000003  1.0000
  O   O13       1.0  0.9081399999999998  0.4240300000000001  0.88458  1.0000
  O   O14       1.0  0.89485  0.47553  0.1146  1.0000
  O   O15       1.0  0.80672  0.37519  0.26505  1.0000
  H   H9        1.0  0.849  0.41550000000000004  0.2602  1.0000
  C   C17       1.0  0.8775300000000003  0.4154  0.99855  1.0000
  C   C18       1.0  0.8120400000000002  0.3301  0.00134  1.0000
  C   C19       1.0  0.78154  0.26492  0.87015  1.0000
  H   H10       1.0  0.8029  0.2747  0.7836  1.0000
  C   C20       1.0  0.7801500000000005  0.31431  0.1328  1.0000
  O   O16       1.0  0.40814  0.92403  0.88458  1.0000
  O   O17       1.0  0.39485  0.97553  0.1146  1.0000
  O   O18       1.0  0.30672000000000005  0.87519  0.26505  1.0000
  H   H11       1.0  0.349  0.9155  0.2602  1.0000
  C   C21       1.0  0.37753  0.9154  0.99855  1.0000
  C   C22       1.0  0.31204  0.8301000000000001  0.00134  1.0000
  C   C23       1.0  0.28154  0.76492  0.87015  1.0000
  H   H12       1.0  0.30290000000000006  0.7747  0.7836  1.0000
  C   C24       1.0  0.28015  0.81431  0.1328  1.0000
  O   O19       1.0  0.09186000000000001  0.4240300000000001  0.61542  1.0000
  O   O20       1.0  0.10515000000000001  0.47553  0.3854  1.0000
  O   O21       1.0  0.19328  0.37519  0.23495  1.0000
  H   H13       1.0  0.151  0.41550000000000004  0.2398  1.0000
  C   C25       1.0  0.12247  0.4154  0.50145  1.0000
  C   C26       1.0  0.18796  0.3301  0.49866  1.0000
  C   C27       1.0  0.21846  0.26492  0.62985  1.0000
  H   H14       1.0  0.1971  0.2747  0.7164  1.0000
  C   C28       1.0  0.21985  0.31431  0.3672  1.0000
  O   O22       1.0  0.59186  0.92403  0.61542  1.0000
  O   O23       1.0  0.60515  0.97553  0.3854  1.0000
  O   O24       1.0  0.6932800000000002  0.87519  0.23495  1.0000
  H   H15       1.0  0.6510000000000001  0.9155  0.2398  1.0000
  C   C29       1.0  0.62247  0.9154  0.50145  1.0000
  C   C30       1.0  0.68796  0.8301000000000001  0.49866  1.0000
  C   C31       1.0  0.7184600000000001  0.76492  0.62985  1.0000
  H   H16       1.0  0.6971000000000002  0.7747  0.7164  1.0000
  C   C32       1.0  0.71985  0.81431  0.3672  1.0000
  Mg  Mg1       1.0  0.0  0.57867  0.25  1.0000
  Mg  Mg2       1.0  0.5  0.07867  0.25  1.0000
  Mg  Mg3       1.0  0.0  0.42133000000000004  0.75  1.0000
  Mg  Mg4       1.0  0.5  0.92133  0.75  1.0000
