data_image0
_chemical_formula_structural       Zn8H120C168N16O40
_chemical_formula_sum              "Zn8 H120 C168 N16 O40"
_cell_length_a       26.9539345
_cell_length_b       8.057649779999998
_cell_length_c       23.819973610000005
_cell_angle_alpha    90.00000695
_cell_angle_beta     99.78403791
_cell_angle_gamma    90.00000088000002

_space_group_name_H-M_alt    "P 1"
_space_group_IT_number       1

loop_
  _space_group_symop_operation_xyz
  'x, y, z'

loop_
  _atom_site_type_symbol
  _atom_site_label
  _atom_site_symmetry_multiplicity
  _atom_site_fract_x
  _atom_site_fract_y
  _atom_site_fract_z
  _atom_site_occupancy
  Zn  Zn1       1.0  0.03872317  0.12149129  0.00198921  1.0000
  Zn  Zn2       1.0  0.53872316  0.62149093  0.00198933  1.0000
  Zn  Zn3       1.0  0.9612768400000001  0.12149111  0.49801068  1.0000
  Zn  Zn4       1.0  0.46127685  0.62149101  0.49801072  1.0000
  Zn  Zn5       1.0  0.96127684  0.87850902  0.99801065  1.0000
  Zn  Zn6       1.0  0.4612768300000001  0.37850866  0.99801078  1.0000
  Zn  Zn7       1.0  0.0387232  0.87850907  0.50198928  1.0000
  Zn  Zn8       1.0  0.53872316  0.37850888  0.50198935  1.0000
  H   H1        1.0  0.8628805500000002  0.12153759  0.10397977  1.0000
  H   H2        1.0  0.82237002  0.31103712  0.16694378  1.0000
  H   H3        1.0  0.93032891  0.69192662  0.1465482  1.0000
  H   H4        1.0  0.96941947  0.50389051  0.08393795  1.0000
  H   H5        1.0  0.8276305700000001  0.87822338  0.24386308  1.0000
  H   H6        1.0  0.87429718  0.9958188599999999  0.33549344  1.0000
  H   H7        1.0  0.9823554  0.60158178  0.34394202  1.0000
  H   H8        1.0  0.9366237800000002  0.48290517  0.25385294  1.0000
  H   H9        1.0  0.13820681000000004  0.17564049  0.9661285100000001  1.0000
  H   H10       1.0  0.20232384  0.40501829  0.97302552  1.0000
  H   H11       1.0  0.11312415000000002  0.67043476  0.07827036  1.0000
  H   H12       1.0  0.05261801000000001  0.43565562  0.06484734  1.0000
  H   H13       1.0  0.19648014999999996  0.82249354  0.10824788  1.0000
  H   H14       1.0  0.1489304  0.8907619  0.05283876  1.0000
  H   H15       1.0  0.21287849  0.95377067  0.05384519  1.0000
  H   H16       1.0  0.36288032  0.62153713  0.10397986  1.0000
  H   H17       1.0  0.32236987000000006  0.81103705  0.1669438  1.0000
  H   H18       1.0  0.43032886000000004  0.19192594  0.14654823  1.0000
  H   H19       1.0  0.46941943  0.0038896000000000004  0.0839381  1.0000
  H   H20       1.0  0.32763055  0.37822352  0.24386314000000003  1.0000
  H   H21       1.0  0.3742971900000001  0.49581897  0.33549348  1.0000
  H   H22       1.0  0.48235528  0.10158188  0.34394191  1.0000
  H   H23       1.0  0.43662371  0.98290519  0.25385291  1.0000
  H   H24       1.0  0.6382068300000001  0.67564039  0.96612856  1.0000
  H   H25       1.0  0.7023238400000001  0.90501823  0.97302557  1.0000
  H   H26       1.0  0.61312409  0.17043469  0.07827034  1.0000
  H   H27       1.0  0.55261796  0.93565557  0.06484732  1.0000
  H   H28       1.0  0.69648015  0.32249364  0.10824787  1.0000
  H   H29       1.0  0.64893039  0.39076196  0.05283875  1.0000
  H   H30       1.0  0.71287848  0.45377069  0.05384517  1.0000
  H   H31       1.0  0.13711959  0.1215374  0.39602019000000005  1.0000
  H   H32       1.0  0.17763009  0.31103704  0.3330562  1.0000
  H   H33       1.0  0.06967113000000001  0.6919264  0.35345170000000004  1.0000
  H   H34       1.0  0.030580549999999995  0.50388992  0.41606189  1.0000
  H   H35       1.0  0.17236941  0.87822344  0.25613684  1.0000
  H   H36       1.0  0.12570284  0.99581884  0.16450648  1.0000
  H   H37       1.0  0.01764462  0.60158187  0.15605805  1.0000
  H   H38       1.0  0.06337621  0.48290516  0.24614706  1.0000
  H   H39       1.0  0.86179317  0.17564042  0.53387145  1.0000
  H   H40       1.0  0.79767617  0.40501821  0.52697446  1.0000
  H   H41       1.0  0.8868759100000001  0.67043473  0.42172969  1.0000
  H   H42       1.0  0.94738202  0.43565555  0.43515269  1.0000
  H   H43       1.0  0.8035198300000002  0.82249354  0.39175213  1.0000
  H   H44       1.0  0.8510696  0.89076197  0.44716124  1.0000
  H   H45       1.0  0.7871215  0.95377068  0.44615482  1.0000
  H   H46       1.0  0.63711966  0.62153747  0.39602018  1.0000
  H   H47       1.0  0.6776301600000001  0.81103714  0.33305623  1.0000
  H   H48       1.0  0.5696711699999999  0.19192632  0.35345174  1.0000
  H   H49       1.0  0.53058056  0.00388985  0.41606189  1.0000
  H   H50       1.0  0.67236947  0.37822359  0.25613686  1.0000
  H   H51       1.0  0.62570278  0.49581888  0.16450652  1.0000
  H   H52       1.0  0.51764459  0.10158172  0.15605805  1.0000
  H   H53       1.0  0.56337629  0.98290526  0.24614708  1.0000
  H   H54       1.0  0.36179317  0.67564039  0.53387149  1.0000
  H   H55       1.0  0.29767618  0.90501823  0.52697449  1.0000
  H   H56       1.0  0.38687591  0.17043467  0.42172969  1.0000
  H   H57       1.0  0.44738202  0.93565547  0.43515272  1.0000
  H   H58       1.0  0.30351986  0.32249356  0.3917521400000001  1.0000
  H   H59       1.0  0.3510696  0.39076196  0.44716126  1.0000
  H   H60       1.0  0.28712151  0.45377066  0.44615484000000005  1.0000
  H   H61       1.0  0.13711967  0.87846282  0.89602017  1.0000
  H   H62       1.0  0.17763011  0.68896291  0.8330562300000001  1.0000
  H   H63       1.0  0.06967112999999998  0.30807402  0.8534518  1.0000
  H   H64       1.0  0.030580569999999994  0.49611038  0.91606191  1.0000
  H   H65       1.0  0.17236944  0.12177658  0.75613689  1.0000
  H   H66       1.0  0.12570282  0.00418104  0.66450654  1.0000
  H   H67       1.0  0.017644679999999992  0.39841811  0.65605809  1.0000
  H   H68       1.0  0.06337624999999997  0.51709481  0.7461471  1.0000
  H   H69       1.0  0.86179314  0.82435966  0.03387149  1.0000
  H   H70       1.0  0.79767614  0.59498181  0.02697446  1.0000
  H   H71       1.0  0.8868759  0.32956541  0.92172968  1.0000
  H   H72       1.0  0.9473820300000001  0.56434457  0.93515273  1.0000
  H   H73       1.0  0.8035198300000003  0.17750643  0.8917521300000001  1.0000
  H   H74       1.0  0.8510695900000002  0.10923808  0.94716124  1.0000
  H   H75       1.0  0.78712149  0.04622935  0.94615483  1.0000
  H   H76       1.0  0.6371196000000001  0.37846259  0.89602017  1.0000
  H   H77       1.0  0.6776301300000002  0.18896301  0.8330562300000001  1.0000
  H   H78       1.0  0.56967117  0.80807369  0.85345175  1.0000
  H   H79       1.0  0.53058053  0.99611012  0.9160619  1.0000
  H   H80       1.0  0.67236943  0.62177651  0.75613688  1.0000
  H   H81       1.0  0.62570277  0.50418121  0.66450653  1.0000
  H   H82       1.0  0.5176445999999999  0.89841833  0.65605806  1.0000
  H   H83       1.0  0.56337626  0.01709485  0.74614711  1.0000
  H   H84       1.0  0.36179309  0.32435961  0.03387143  1.0000
  H   H85       1.0  0.2976761  0.09498168  0.02697444  1.0000
  H   H86       1.0  0.38687586  0.82956532  0.9217296400000001  1.0000
  H   H87       1.0  0.44738196000000013  0.06434455  0.9351526800000001  1.0000
  H   H88       1.0  0.30351984  0.67750638  0.8917521200000001  1.0000
  H   H89       1.0  0.35106959  0.60923803  0.94716124  1.0000
  H   H90       1.0  0.2871215  0.54622929  0.94615481  1.0000
  H   H91       1.0  0.86288054  0.87846238  0.60397978  1.0000
  H   H92       1.0  0.82237  0.68896278  0.66694378  1.0000
  H   H93       1.0  0.93032892  0.30807334  0.64654816  1.0000
  H   H94       1.0  0.9694194600000001  0.49610958  0.58393795  1.0000
  H   H95       1.0  0.8276305400000001  0.12177648  0.74386306  1.0000
  H   H96       1.0  0.87429716  0.00418111  0.8354934200000002  1.0000
  H   H97       1.0  0.98235539  0.39841816  0.84394203  1.0000
  H   H98       1.0  0.93662377  0.51709473  0.75385294  1.0000
  H   H99       1.0  0.13820683  0.8243596  0.46612856  1.0000
  H   H100      1.0  0.20232383  0.5949818  0.4730255300000001  1.0000
  H   H101      1.0  0.11312412  0.3295653  0.57827034  1.0000
  H   H102      1.0  0.05261798999999999  0.56434443  0.56484731  1.0000
  H   H103      1.0  0.19648015  0.1775064  0.60824789  1.0000
  H   H104      1.0  0.14893041  0.10923803  0.55283876  1.0000
  H   H105      1.0  0.2128785  0.04622935  0.55384519  1.0000
  H   H106      1.0  0.36288036  0.37846272  0.60397983  1.0000
  H   H107      1.0  0.32236987000000006  0.18896302  0.66694379  1.0000
  H   H108      1.0  0.43032882  0.80807364  0.64654828  1.0000
  H   H109      1.0  0.4694194  0.9961101999999998  0.58393814  1.0000
  H   H110      1.0  0.32763055  0.62177651  0.74386314  1.0000
  H   H111      1.0  0.37429717  0.5041809  0.83549345  1.0000
  H   H112      1.0  0.48235531  0.89841807  0.84394197  1.0000
  H   H113      1.0  0.43662373000000004  0.01709483  0.75385296  1.0000
  H   H114      1.0  0.63820682  0.32435962  0.4661285700000001  1.0000
  H   H115      1.0  0.70232382  0.0949818  0.47302554  1.0000
  H   H116      1.0  0.61312409  0.8295653  0.57827032  1.0000
  H   H117      1.0  0.55261798  0.06434444  0.56484733  1.0000
  H   H118      1.0  0.69648015  0.67750643  0.60824788  1.0000
  H   H119      1.0  0.64893038  0.60923806  0.55283876  1.0000
  H   H120      1.0  0.71287848  0.54622931  0.55384517  1.0000
  C   C1        1.0  0.94502318  0.18754728  0.05518141  1.0000
  C   C2        1.0  0.91936187  0.29986687  0.09119741000000002  1.0000
  C   C3        1.0  0.87735324  0.246284  0.11368621  1.0000
  C   C4        1.0  0.8548058  0.35083556  0.14858437  1.0000
  C   C5        1.0  0.87457437  0.50945586  0.16067751  1.0000
  C   C6        1.0  0.91586002  0.56642582  0.13779824  1.0000
  C   C7        1.0  0.93797846  0.46061875  0.10321182  1.0000
  C   C8        1.0  0.87940462  0.67482098  0.24366575  1.0000
  C   C9        1.0  0.8616303500000001  0.81899854  0.26642781  1.0000
  C   C10       1.0  0.88756004  0.88373052  0.31714592  1.0000
  C   C11       1.0  0.9313692800000001  0.80617432  0.34564663  1.0000
  C   C12       1.0  0.94863211  0.66261404  0.32194018  1.0000
  C   C13       1.0  0.9230629900000001  0.59580392  0.2713863  1.0000
  C   C14       1.0  0.95813242  0.87308754  0.40128483000000004  1.0000
  C   C15       1.0  0.13477528  0.28852549  0.99043743  1.0000
  C   C16       1.0  0.17007429  0.41464746  0.99478053  1.0000
  C   C17       1.0  0.16295199000000002  0.55885004  0.02582749  1.0000
  C   C18       1.0  0.12070355  0.56432025  0.05291096  1.0000
  C   C19       1.0  0.08678978  0.4334984  0.04614291  1.0000
  C   C20       1.0  0.19765548  0.70167787  0.02838052  1.0000
  C   C21       1.0  0.18852785000000002  0.85168907  0.06239894  1.0000
  C   C22       1.0  0.44502389  0.68754875  0.05518164  1.0000
  C   C23       1.0  0.41936157  0.79986574  0.09119751  1.0000
  C   C24       1.0  0.37735302  0.74628376  0.11368635000000002  1.0000
  C   C25       1.0  0.35480562000000004  0.85083515  0.14858444  1.0000
  C   C26       1.0  0.37457437  0.00945566  0.16067748  1.0000
  C   C27       1.0  0.41585986  0.06642502  0.13779825  1.0000
  C   C28       1.0  0.43797853  0.96061858  0.10321182  1.0000
  C   C29       1.0  0.3794046  0.17482082  0.24366574  1.0000
  C   C30       1.0  0.36163025  0.31899873  0.26642781  1.0000
  C   C31       1.0  0.38756006  0.38373032  0.31714591  1.0000
  C   C32       1.0  0.4313691400000001  0.30617463  0.34564662000000007  1.0000
  C   C33       1.0  0.44863207  0.16261379  0.3219402  1.0000
  C   C34       1.0  0.42306285000000005  0.09580403  0.27138626  1.0000
  C   C35       1.0  0.45813296  0.37308588  0.4012848500000001  1.0000
  C   C36       1.0  0.63477526  0.78852539  0.99043745  1.0000
  C   C37       1.0  0.67007427  0.91464749  0.99478057  1.0000
  C   C38       1.0  0.6629519900000002  0.05884999  0.025827480000000003  1.0000
  C   C39       1.0  0.6207034800000001  0.06432023  0.05291097  1.0000
  C   C40       1.0  0.58678977  0.93349824  0.04614285  1.0000
  C   C41       1.0  0.69765547  0.20167793  0.02838054  1.0000
  C   C42       1.0  0.68852785  0.3516891  0.06239894  1.0000
  C   C43       1.0  0.05497611  0.18754935  0.44481843  1.0000
  C   C44       1.0  0.08063832000000001  0.29986625  0.40880246000000003  1.0000
  C   C45       1.0  0.12264679000000002  0.24628433  0.3863137  1.0000
  C   C46       1.0  0.1451943  0.35083516  0.35141558000000006  1.0000
  C   C47       1.0  0.12542559  0.50945577  0.33932246  1.0000
  C   C48       1.0  0.08414012000000001  0.56642536  0.36220169  1.0000
  C   C49       1.0  0.062021440000000004  0.46061895  0.3967881200000001  1.0000
  C   C50       1.0  0.12059534000000001  0.67482063  0.2563342  1.0000
  C   C51       1.0  0.13836973  0.81899858  0.23357212  1.0000
  C   C52       1.0  0.11243989  0.88373011  0.18285405000000002  1.0000
  C   C53       1.0  0.06863082  0.80617459  0.15435326  1.0000
  C   C54       1.0  0.05136783  0.66261364  0.17805973  1.0000
  C   C55       1.0  0.07693709  0.595804  0.2286137  1.0000
  C   C56       1.0  0.041866860000000006  0.87308558  0.09871502000000001  1.0000
  C   C57       1.0  0.8652247400000002  0.28852541  0.50956255  1.0000
  C   C58       1.0  0.82992572  0.41464746  0.50521945  1.0000
  C   C59       1.0  0.83704802  0.55884999  0.47417253000000004  1.0000
  C   C60       1.0  0.8792965  0.56432024  0.44708906  1.0000
  C   C61       1.0  0.9132102200000001  0.43349829  0.45385713  1.0000
  C   C62       1.0  0.8023445300000001  0.70167789  0.47161949  1.0000
  C   C63       1.0  0.81147214  0.85168906  0.43760107  1.0000
  C   C64       1.0  0.55497676  0.68754744  0.44481854  1.0000
  C   C65       1.0  0.58063828  0.79986639  0.40880252  1.0000
  C   C66       1.0  0.6226469  0.74628406  0.38631373  1.0000
  C   C67       1.0  0.64519432  0.8508354  0.35141559  1.0000
  C   C68       1.0  0.6254257000000001  0.00945563  0.33932247  1.0000
  C   C69       1.0  0.58414011  0.06642538  0.36220172  1.0000
  C   C70       1.0  0.56202154  0.96061854  0.39678813  1.0000
  C   C71       1.0  0.62059543  0.17482104  0.25633423  1.0000
  C   C72       1.0  0.6383697  0.31899855  0.23357220000000004  1.0000
  C   C73       1.0  0.61244  0.38373058  0.1828541  1.0000
  C   C74       1.0  0.56863072  0.30617428  0.15435338  1.0000
  C   C75       1.0  0.55136792  0.16261409  0.17805984  1.0000
  C   C76       1.0  0.57693705  0.0958039  0.22861371000000003  1.0000
  C   C77       1.0  0.54186776  0.37308783  0.09871523000000001  1.0000
  C   C78       1.0  0.36522474  0.78852541  0.50956258  1.0000
  C   C79       1.0  0.32992573  0.91464742  0.50521949  1.0000
  C   C80       1.0  0.33704804000000005  0.05885002  0.47417254  1.0000
  C   C81       1.0  0.37929649  0.06432016  0.44708909  1.0000
  C   C82       1.0  0.41321025  0.93349827  0.45385713  1.0000
  C   C83       1.0  0.30234454  0.20167786  0.4716195100000001  1.0000
  C   C84       1.0  0.31147215  0.35168907  0.43760109  1.0000
  C   C85       1.0  0.05497598  0.81245084  0.94481838  1.0000
  C   C86       1.0  0.08063843000000001  0.70013405  0.9088024700000001  1.0000
  C   C87       1.0  0.12264698000000002  0.75371623  0.88631367  1.0000
  C   C88       1.0  0.14519436000000002  0.64916486  0.8514155900000001  1.0000
  C   C89       1.0  0.12542561000000002  0.49054434  0.8393225300000001  1.0000
  C   C90       1.0  0.08414013000000001  0.43357493  0.8622017600000002  1.0000
  C   C91       1.0  0.06202145000000002  0.53938128  0.89678817  1.0000
  C   C92       1.0  0.12059537000000001  0.32517919  0.7563342500000001  1.0000
  C   C93       1.0  0.13836973  0.18100133  0.7335722  1.0000
  C   C94       1.0  0.11243993  0.11626966  0.68285411  1.0000
  C   C95       1.0  0.06863084  0.19382536  0.6543534  1.0000
  C   C96       1.0  0.05136788999999998  0.33738618  0.67805981  1.0000
  C   C97       1.0  0.07693711000000002  0.40419599  0.7286137400000001  1.0000
  C   C98       1.0  0.04186704999999998  0.12691404  0.59871515  1.0000
  C   C99       1.0  0.8652247100000002  0.7114747  0.00956258  1.0000
  C   C100      1.0  0.8299257  0.58535255  0.00521945  1.0000
  C   C101      1.0  0.83704799  0.44115009  0.97417253  1.0000
  C   C102      1.0  0.87929649  0.43567984  0.94708905  1.0000
  C   C103      1.0  0.91321021  0.56650187  0.95385717  1.0000
  C   C104      1.0  0.80234452  0.29832213  0.97161947  1.0000
  C   C105      1.0  0.81147213  0.14831096  0.93760107  1.0000
  C   C106      1.0  0.55497686  0.31245295  0.94481856  1.0000
  C   C107      1.0  0.58063822  0.20013351  0.9088025400000002  1.0000
  C   C108      1.0  0.62264687  0.25371609  0.88631373  1.0000
  C   C109      1.0  0.64519428  0.14916467  0.8514155900000001  1.0000
  C   C110      1.0  0.6254257000000001  0.99054449  0.83932249  1.0000
  C   C111      1.0  0.5841400799999998  0.93357461  0.86220174  1.0000
  C   C112      1.0  0.56202153  0.03938151  0.89678812  1.0000
  C   C113      1.0  0.62059542  0.82517913  0.7563342400000002  1.0000
  C   C114      1.0  0.6383696700000001  0.68100153  0.73357219  1.0000
  C   C115      1.0  0.61243995  0.61626953  0.68285409  1.0000
  C   C116      1.0  0.5686307  0.69382577  0.65435339  1.0000
  C   C117      1.0  0.55136791  0.83738602  0.67805986  1.0000
  C   C118      1.0  0.57693704  0.90419617  0.72861372  1.0000
  C   C119      1.0  0.54186758  0.62691251  0.59871519  1.0000
  C   C120      1.0  0.36522465  0.21147459  0.00956255  1.0000
  C   C121      1.0  0.32992567000000006  0.08535256  0.00521944  1.0000
  C   C122      1.0  0.337048  0.94114997  0.97417251  1.0000
  C   C123      1.0  0.37929644  0.93567975  0.94708908  1.0000
  C   C124      1.0  0.41321020000000014  0.06650167  0.9538571  1.0000
  C   C125      1.0  0.30234452  0.79832208  0.97161948  1.0000
  C   C126      1.0  0.31147214  0.64831088  0.93760106  1.0000
  C   C127      1.0  0.94502336  0.81245229  0.55518144  1.0000
  C   C128      1.0  0.91936182  0.70013328  0.59119745  1.0000
  C   C129      1.0  0.87735325  0.75371582  0.61368623  1.0000
  C   C130      1.0  0.85480577  0.64916442  0.64858436  1.0000
  C   C131      1.0  0.87457439  0.49054398  0.66067749  1.0000
  C   C132      1.0  0.91585999  0.43357418  0.63779822  1.0000
  C   C133      1.0  0.93797849  0.53938118  0.60321181  1.0000
  C   C134      1.0  0.8794046100000001  0.32517887  0.7436657400000001  1.0000
  C   C135      1.0  0.86163032  0.18100143  0.7664277600000001  1.0000
  C   C136      1.0  0.8875599800000001  0.11626936  0.81714587  1.0000
  C   C137      1.0  0.9313692500000001  0.1938257  0.8456466000000001  1.0000
  C   C138      1.0  0.94863207  0.33738586  0.82194018  1.0000
  C   C139      1.0  0.9230629900000001  0.40419605  0.7713862900000001  1.0000
  C   C140      1.0  0.9581322000000001  0.126912  0.9012847600000001  1.0000
  C   C141      1.0  0.13477527  0.71147457  0.49043746000000005  1.0000
  C   C142      1.0  0.17007428000000002  0.58535259  0.49478054  1.0000
  C   C143      1.0  0.16295197  0.44115  0.52582749  1.0000
  C   C144      1.0  0.12070353  0.43567979  0.55291095  1.0000
  C   C145      1.0  0.08678975000000001  0.56650169  0.5461429  1.0000
  C   C146      1.0  0.19765548  0.29832213  0.52838054  1.0000
  C   C147      1.0  0.18852785000000002  0.14831093  0.56239894  1.0000
  C   C148      1.0  0.4450239  0.31245064  0.55518161  1.0000
  C   C149      1.0  0.41936164000000004  0.20013388  0.59119756  1.0000
  C   C150      1.0  0.3773531  0.25371617  0.61368634  1.0000
  C   C151      1.0  0.35480565000000003  0.14916491  0.64858444  1.0000
  C   C152      1.0  0.37457435  0.99054426  0.66067756  1.0000
  C   C153      1.0  0.4158598200000001  0.93357474  0.63779832  1.0000
  C   C154      1.0  0.43797852  0.03938113  0.60321191  1.0000
  C   C155      1.0  0.37940463  0.82517925  0.74366579  1.0000
  C   C156      1.0  0.3616302600000001  0.68100122  0.7664278300000001  1.0000
  C   C157      1.0  0.38756010000000013  0.61626966  0.8171459300000001  1.0000
  C   C158      1.0  0.43136919000000007  0.69382519  0.84564669  1.0000
  C   C159      1.0  0.44863212  0.83738621  0.82194025  1.0000
  C   C160      1.0  0.42306286  0.90419594  0.7713863100000001  1.0000
  C   C161      1.0  0.4581331300000001  0.62691423  0.90128496  1.0000
  C   C162      1.0  0.63477526  0.2114746  0.49043747000000004  1.0000
  C   C163      1.0  0.6700742700000001  0.08535253  0.49478055  1.0000
  C   C164      1.0  0.66295198  0.94115001  0.52582747  1.0000
  C   C165      1.0  0.6207035  0.93567976  0.55291095  1.0000
  C   C166      1.0  0.58678977  0.06650173  0.54614288  1.0000
  C   C167      1.0  0.6976554600000002  0.7983221  0.52838053  1.0000
  C   C168      1.0  0.6885278399999999  0.64831092  0.56239893  1.0000
  N   N1        1.0  0.09332213000000002  0.29863213  0.01501052  1.0000
  N   N2        1.0  0.23410171000000005  0.68323229  0.9991265400000001  1.0000
  N   N3        1.0  0.5933221  0.79863214  0.015010540000000001  1.0000
  N   N4        1.0  0.7341017300000001  0.18323233  0.9991265500000001  1.0000
  N   N5        1.0  0.90667787  0.29863211  0.48498946  1.0000
  N   N6        1.0  0.76589828  0.68323232  0.50087348  1.0000
  N   N7        1.0  0.40667787000000005  0.79863198  0.48498951000000007  1.0000
  N   N8        1.0  0.26589829  0.18323234  0.50087348  1.0000
  N   N9        1.0  0.90667787  0.70136797  0.98498949  1.0000
  N   N10       1.0  0.7658982600000002  0.31676772  0.00087347  1.0000
  N   N11       1.0  0.40667782  0.20136797  0.98498948  1.0000
  N   N12       1.0  0.26589828  0.81676766  0.00087346  1.0000
  N   N13       1.0  0.09332214000000001  0.70136798  0.51501053  1.0000
  N   N14       1.0  0.23410174000000003  0.31676767  0.49912657000000005  1.0000
  N   N15       1.0  0.59332213  0.20136787  0.51501056  1.0000
  N   N16       1.0  0.7341017300000001  0.81676769  0.49912656  1.0000
  O   O1        1.0  0.98617505  0.23932926  0.04187991  1.0000
  O   O2        1.0  0.92418816  0.04840741  0.04078764  1.0000
  O   O3        1.0  0.85078848  0.61301647  0.19457621  1.0000
  O   O4        1.0  0.93684956  0.9927461  0.42290269  1.0000
  O   O5        1.0  0.99942143  0.80398605  0.42353340000000006  1.0000
  O   O6        1.0  0.48617421  0.73932703  0.04187994  1.0000
  O   O7        1.0  0.42418765  0.54840439  0.04078789  1.0000
  O   O8        1.0  0.35078841  0.11301641  0.19457617  1.0000
  O   O9        1.0  0.43684938000000006  0.49274717  0.42290284  1.0000
  O   O10       1.0  0.49942104  0.30398645  0.42353327  1.0000
  O   O11       1.0  0.013825380000000002  0.23932889  0.45811984  1.0000
  O   O12       1.0  0.07581209  0.04840612  0.45921243  1.0000
  O   O13       1.0  0.14921156000000002  0.61301636  0.30542375  1.0000
  O   O14       1.0  0.06315067  0.99274721  0.07709705  1.0000
  O   O15       1.0  0.0005788800000000001  0.8039872  0.07646664  1.0000
  O   O16       1.0  0.51382516  0.73932886  0.45812001  1.0000
  O   O17       1.0  0.57581195  0.54840684  0.45921235  1.0000
  O   O18       1.0  0.64921157  0.1130164  0.30542375  1.0000
  O   O19       1.0  0.56315048  0.49274596  0.07709737  1.0000
  O   O20       1.0  0.50057855  0.30398567  0.07646657  1.0000
  O   O21       1.0  0.013825739999999998  0.76067245  0.95812005  1.0000
  O   O22       1.0  0.07581216  0.95159535  0.95921215  1.0000
  O   O23       1.0  0.14921156000000005  0.38698364  0.8054238200000001  1.0000
  O   O24       1.0  0.06315062  0.00725296  0.57709716  1.0000
  O   O25       1.0  0.0005789299999999894  0.19601352  0.57646677  1.0000
  O   O26       1.0  0.51382505  0.26067107  0.95812005  1.0000
  O   O27       1.0  0.57581193  0.45159287  0.95921234  1.0000
  O   O28       1.0  0.64921157  0.88698363  0.8054237700000001  1.0000
  O   O29       1.0  0.5631504  0.50725396  0.57709734  1.0000
  O   O30       1.0  0.50057855  0.69601416  0.57646657  1.0000
  O   O31       1.0  0.98617493  0.76067099  0.54187998  1.0000
  O   O32       1.0  0.9241881  0.95159303  0.54078762  1.0000
  O   O33       1.0  0.85078848  0.38698344  0.69457618  1.0000
  O   O34       1.0  0.9368495  0.00725394  0.92290261  1.0000
  O   O35       1.0  0.99942144  0.19601422  0.9235334  1.0000
  O   O36       1.0  0.4861745900000001  0.26067129  0.54188024  1.0000
  O   O37       1.0  0.42418788  0.45159396  0.54078756  1.0000
  O   O38       1.0  0.35078839  0.88698366  0.69457625  1.0000
  O   O39       1.0  0.43684934  0.50725274  0.92290295  1.0000
  O   O40       1.0  0.49942112000000005  0.69601285  0.92353335  1.0000
