data_image0
_chemical_formula_structural       Ca2H8C16O12
_chemical_formula_sum              "Ca2 H8 C16 O12"
_cell_length_a       8.3328
_cell_length_b       8.6794
_cell_length_c       9.9393
_cell_angle_alpha    70.52
_cell_angle_beta     84.45899999999999
_cell_angle_gamma    73.72200000000001

_space_group_name_H-M_alt    "P 1"
_space_group_IT_number       1

loop_
  _space_group_symop_operation_xyz
  'x, y, z'

loop_
  _atom_site_type_symbol
  _atom_site_label
  _atom_site_symmetry_multiplicity
  _atom_site_fract_x
  _atom_site_fract_y
  _atom_site_fract_z
  _atom_site_occupancy
  Ca  Ca1       1.0  0.32648  0.36337  0.04249  1.0000
  Ca  Ca2       1.0  0.6735200000000001  0.63663  0.95751  1.0000
  H   H1        1.0  0.22390000000000002  0.4426  0.3542  1.0000
  H   H2        1.0  0.6757999999999997  0.5576  0.3332  1.0000
  H   H3        1.0  0.6545  0.9766000000000002  0.9207  1.0000
  H   H4        1.0  0.9551  0.2649  0.0251  1.0000
  H   H5        1.0  0.7761  0.5574  0.6458  1.0000
  H   H6        1.0  0.32419999999999993  0.44240000000000007  0.6668  1.0000
  H   H7        1.0  0.3455  0.0234  0.0793  1.0000
  H   H8        1.0  0.04489999999999989  0.7351000000000001  0.9749  1.0000
  C   C1        1.0  0.9511000000000001  0.4764999999999999  0.22410000000000002  1.0000
  C   C2        1.0  0.9736  0.4917  0.3658  1.0000
  C   C3        1.0  0.1332  0.4652  0.41350000000000003  1.0000
  C   C4        1.0  0.8377  0.5287  0.4546  1.0000
  C   C5        1.0  0.6692  0.23209999999999997  0.9574000000000001  1.0000
  C   C6        1.0  0.8414999999999999  0.11310000000000005  0.9760999999999999  1.0000
  C   C7        1.0  0.9732999999999999  0.15859999999999994  0.014900000000000002  1.0000
  C   C8        1.0  0.8691999999999999  0.9526999999999999  0.9617  1.0000
  C   C9        1.0  0.04890000000000001  0.5235  0.7759  1.0000
  C   C10       1.0  0.026400000000000003  0.5083  0.6342000000000001  1.0000
  C   C11       1.0  0.8668  0.5348  0.5865  1.0000
  C   C12       1.0  0.16230000000000006  0.47129999999999983  0.5454  1.0000
  C   C13       1.0  0.33080000000000004  0.7678999999999998  0.0426  1.0000
  C   C14       1.0  0.15849999999999997  0.8869  0.0239  1.0000
  C   C15       1.0  0.02670000000000006  0.8413999999999997  0.9851000000000001  1.0000
  C   C16       1.0  0.1308  0.0473  0.0383  1.0000
  O   O1        1.0  0.07639999999999998  0.41890000000000005  0.1596  1.0000
  O   O2        1.0  0.803  0.5239  0.1772  1.0000
  O   O3        1.0  0.5497  0.17909999999999993  0.9385000000000001  1.0000
  O   O4        1.0  0.6459  0.3771999999999998  0.9654  1.0000
  O   O5        1.0  0.6771  0.5608  0.4147  1.0000
  O   O6        1.0  0.7424999999999997  0.9031999999999997  0.9248000000000001  1.0000
  O   O7        1.0  0.9236  0.5811  0.8404  1.0000
  O   O8        1.0  0.19699999999999998  0.4761000000000001  0.8228  1.0000
  O   O9        1.0  0.45030000000000003  0.8209  0.0615  1.0000
  O   O10       1.0  0.35409999999999986  0.6228  0.0346  1.0000
  O   O11       1.0  0.3229  0.4392  0.5853  1.0000
  O   O12       1.0  0.2574999999999999  0.0968  0.0752  1.0000
