data_image0
_chemical_formula_structural       Zn8H144C144N32O32
_chemical_formula_sum              "Zn8 H144 C144 N32 O32"
_cell_length_a       16.33907672
_cell_length_b       17.70142538
_cell_length_c       17.85293472
_cell_angle_alpha    90.0
_cell_angle_beta     90.0
_cell_angle_gamma    90.0

_space_group_name_H-M_alt    "P 1"
_space_group_IT_number       1

loop_
  _space_group_symop_operation_xyz
  'x, y, z'

loop_
  _atom_site_type_symbol
  _atom_site_label
  _atom_site_symmetry_multiplicity
  _atom_site_fract_x
  _atom_site_fract_y
  _atom_site_fract_z
  _atom_site_occupancy
  Zn  Zn1       1.0  0.27515898  0.89655469  0.61881195  1.0000
  Zn  Zn2       1.0  0.77515898  0.6034453100000002  0.38118805  1.0000
  Zn  Zn3       1.0  0.77515898  0.39655469  0.88118805  1.0000
  Zn  Zn4       1.0  0.27515898  0.10344531  0.11881194999999999  1.0000
  Zn  Zn5       1.0  0.22484102  0.6034453100000002  0.11881194999999999  1.0000
  Zn  Zn6       1.0  0.72484102  0.89655469  0.88118805  1.0000
  Zn  Zn7       1.0  0.72484102  0.10344531  0.38118805  1.0000
  Zn  Zn8       1.0  0.22484102  0.39655469  0.61881195  1.0000
  H   H1        1.0  0.28490866  0.07633236  0.58919433  1.0000
  H   H2        1.0  0.14424068  0.018082970000000007  0.18341583  1.0000
  H   H3        1.0  0.21851699  0.84778867  0.44720333  1.0000
  H   H4        1.0  0.32653513  0.84703067  0.4571655399999999  1.0000
  H   H5        1.0  0.28123069  0.87828454  0.37143432  1.0000
  H   H6        1.0  0.26029939  0.19541467000000007  0.5170287  1.0000
  H   H7        1.0  0.20270864999999993  0.18104793  0.43360436  1.0000
  H   H8        1.0  0.31095969  0.18890359  0.42898274  1.0000
  H   H9        1.0  0.09420444  0.9059954899999999  0.30689841  1.0000
  H   H10       1.0  0.04456744  0.99488222  0.31758228  1.0000
  H   H11       1.0  0.10366665  0.9577920100000001  0.39182388  1.0000
  H   H12       1.0  0.41532442  0.09010142000000003  0.24730737999999997  1.0000
  H   H13       1.0  0.40033947  0.09289826  0.3464229  1.0000
  H   H14       1.0  0.36218183  0.16656671  0.28785749  1.0000
  H   H15       1.0  0.09193018  0.73613295  0.55715983  1.0000
  H   H16       1.0  0.9898747799999998  0.6695665700000001  0.4747054700000001  1.0000
  H   H17       1.0  0.88899529  0.88352478  0.40996265  1.0000
  H   H18       1.0  0.9843245099999999  0.94913168  0.49713066  1.0000
  H   H19       1.0  0.78490866  0.4236676400000001  0.41080567  1.0000
  H   H20       1.0  0.64424068  0.4819170300000001  0.81658417  1.0000
  H   H21       1.0  0.71851699  0.65221133  0.55279667  1.0000
  H   H22       1.0  0.82653513  0.65296933  0.54283446  1.0000
  H   H23       1.0  0.78123069  0.62171546  0.62856568  1.0000
  H   H24       1.0  0.76029939  0.30458533  0.48297130000000005  1.0000
  H   H25       1.0  0.70270865  0.3189520700000001  0.56639564  1.0000
  H   H26       1.0  0.81095969  0.3110964100000001  0.57101726  1.0000
  H   H27       1.0  0.59420444  0.59400451  0.69310159  1.0000
  H   H28       1.0  0.54456744  0.50511778  0.68241772  1.0000
  H   H29       1.0  0.60366665  0.54220799  0.60817612  1.0000
  H   H30       1.0  0.91532442  0.40989858  0.75269262  1.0000
  H   H31       1.0  0.90033947  0.40710174  0.6535771  1.0000
  H   H32       1.0  0.86218183  0.33343329  0.71214251  1.0000
  H   H33       1.0  0.59193018  0.76386705  0.44284017  1.0000
  H   H34       1.0  0.48987477999999995  0.83043343  0.52529453  1.0000
  H   H35       1.0  0.38899529  0.6164752200000002  0.59003735  1.0000
  H   H36       1.0  0.4843245099999999  0.55086832  0.50286934  1.0000
  H   H37       1.0  0.78490866  0.57633236  0.91080567  1.0000
  H   H38       1.0  0.64424068  0.51808297  0.31658417  1.0000
  H   H39       1.0  0.71851699  0.34778867  0.05279667  1.0000
  H   H40       1.0  0.82653513  0.34703067  0.04283446  1.0000
  H   H41       1.0  0.78123069  0.37828454  0.12856568  1.0000
  H   H42       1.0  0.76029939  0.69541467  0.9829712999999999  1.0000
  H   H43       1.0  0.70270865  0.68104793  0.06639564  1.0000
  H   H44       1.0  0.81095969  0.68890359  0.07101726  1.0000
  H   H45       1.0  0.59420444  0.40599549  0.19310159  1.0000
  H   H46       1.0  0.54456744  0.49488222  0.18241772  1.0000
  H   H47       1.0  0.60366665  0.4577920100000001  0.10817612  1.0000
  H   H48       1.0  0.91532442  0.59010142  0.25269262  1.0000
  H   H49       1.0  0.90033947  0.59289826  0.1535771  1.0000
  H   H50       1.0  0.86218183  0.6665667100000002  0.21214251  1.0000
  H   H51       1.0  0.59193018  0.23613295000000004  0.9428401700000001  1.0000
  H   H52       1.0  0.48987477999999995  0.16956657  0.02529453  1.0000
  H   H53       1.0  0.38899529  0.38352478  0.09003735  1.0000
  H   H54       1.0  0.4843245099999999  0.44913168  0.00286934  1.0000
  H   H55       1.0  0.28490866  0.9236676400000001  0.08919433  1.0000
  H   H56       1.0  0.14424068  0.98191703  0.68341583  1.0000
  H   H57       1.0  0.21851699  0.15221133  0.9472033300000001  1.0000
  H   H58       1.0  0.32653513  0.15296933  0.95716554  1.0000
  H   H59       1.0  0.28123069  0.12171546000000001  0.87143432  1.0000
  H   H60       1.0  0.26029939  0.8045853300000002  0.0170287  1.0000
  H   H61       1.0  0.20270864999999993  0.81895207  0.93360436  1.0000
  H   H62       1.0  0.31095969  0.8110964100000001  0.92898274  1.0000
  H   H63       1.0  0.09420444  0.09400451  0.80689841  1.0000
  H   H64       1.0  0.04456744  0.005117780000000001  0.81758228  1.0000
  H   H65       1.0  0.10366665  0.042207990000000015  0.89182388  1.0000
  H   H66       1.0  0.41532442  0.9098985799999999  0.74730738  1.0000
  H   H67       1.0  0.40033947  0.90710174  0.8464229  1.0000
  H   H68       1.0  0.36218183  0.83343329  0.78785749  1.0000
  H   H69       1.0  0.09193018  0.26386705  0.05715983  1.0000
  H   H70       1.0  0.9898747799999998  0.3304334300000001  0.97470547  1.0000
  H   H71       1.0  0.88899529  0.11647522000000002  0.90996265  1.0000
  H   H72       1.0  0.9843245099999999  0.05086832000000001  0.9971306600000001  1.0000
  H   H73       1.0  0.21509134  0.4236676400000001  0.08919433  1.0000
  H   H74       1.0  0.35575932  0.4819170300000001  0.68341583  1.0000
  H   H75       1.0  0.28148301  0.65221133  0.9472033300000001  1.0000
  H   H76       1.0  0.17346487  0.65296933  0.95716554  1.0000
  H   H77       1.0  0.21876930999999994  0.62171546  0.87143432  1.0000
  H   H78       1.0  0.23970061  0.30458533  0.0170287  1.0000
  H   H79       1.0  0.29729135  0.3189520700000001  0.93360436  1.0000
  H   H80       1.0  0.18904031  0.3110964100000001  0.92898274  1.0000
  H   H81       1.0  0.40579556  0.59400451  0.80689841  1.0000
  H   H82       1.0  0.45543256  0.50511778  0.81758228  1.0000
  H   H83       1.0  0.39633335  0.54220799  0.89182388  1.0000
  H   H84       1.0  0.08467558  0.40989858  0.74730738  1.0000
  H   H85       1.0  0.09966053  0.40710174  0.8464229  1.0000
  H   H86       1.0  0.13781817  0.33343329  0.78785749  1.0000
  H   H87       1.0  0.40806981999999997  0.76386705  0.05715983  1.0000
  H   H88       1.0  0.51012522  0.83043343  0.97470547  1.0000
  H   H89       1.0  0.61100471  0.6164752200000002  0.90996265  1.0000
  H   H90       1.0  0.51567549  0.55086832  0.9971306600000001  1.0000
  H   H91       1.0  0.71509134  0.07633236  0.91080567  1.0000
  H   H92       1.0  0.85575932  0.018082970000000007  0.31658417  1.0000
  H   H93       1.0  0.78148301  0.84778867  0.05279667  1.0000
  H   H94       1.0  0.67346487  0.84703067  0.04283446  1.0000
  H   H95       1.0  0.71876931  0.87828454  0.12856568  1.0000
  H   H96       1.0  0.73970061  0.19541467000000007  0.9829712999999999  1.0000
  H   H97       1.0  0.79729135  0.18104793  0.06639564  1.0000
  H   H98       1.0  0.68904031  0.18890359  0.07101726  1.0000
  H   H99       1.0  0.90579556  0.9059954899999999  0.19310159  1.0000
  H   H100      1.0  0.9554325599999998  0.99488222  0.18241772  1.0000
  H   H101      1.0  0.89633335  0.9577920100000001  0.10817612  1.0000
  H   H102      1.0  0.58467558  0.09010142000000003  0.25269262  1.0000
  H   H103      1.0  0.5996605299999997  0.09289826  0.1535771  1.0000
  H   H104      1.0  0.63781817  0.16656671  0.21214251  1.0000
  H   H105      1.0  0.90806982  0.73613295  0.9428401700000001  1.0000
  H   H106      1.0  0.010125219999999997  0.6695665700000001  0.02529453  1.0000
  H   H107      1.0  0.11100471  0.88352478  0.09003735  1.0000
  H   H108      1.0  0.015675489999999993  0.94913168  0.00286934  1.0000
  H   H109      1.0  0.71509134  0.9236676400000001  0.41080567  1.0000
  H   H110      1.0  0.85575932  0.98191703  0.81658417  1.0000
  H   H111      1.0  0.78148301  0.15221133  0.55279667  1.0000
  H   H112      1.0  0.67346487  0.15296933  0.54283446  1.0000
  H   H113      1.0  0.71876931  0.12171546000000001  0.62856568  1.0000
  H   H114      1.0  0.73970061  0.8045853300000002  0.48297130000000005  1.0000
  H   H115      1.0  0.79729135  0.81895207  0.56639564  1.0000
  H   H116      1.0  0.68904031  0.8110964100000001  0.57101726  1.0000
  H   H117      1.0  0.90579556  0.09400451  0.69310159  1.0000
  H   H118      1.0  0.9554325599999998  0.005117780000000001  0.68241772  1.0000
  H   H119      1.0  0.89633335  0.042207990000000015  0.60817612  1.0000
  H   H120      1.0  0.58467558  0.9098985799999999  0.75269262  1.0000
  H   H121      1.0  0.5996605299999997  0.90710174  0.6535771  1.0000
  H   H122      1.0  0.63781817  0.83343329  0.71214251  1.0000
  H   H123      1.0  0.90806982  0.26386705  0.44284017  1.0000
  H   H124      1.0  0.010125219999999997  0.3304334300000001  0.52529453  1.0000
  H   H125      1.0  0.11100471  0.11647522000000002  0.59003735  1.0000
  H   H126      1.0  0.015675489999999993  0.05086832000000001  0.50286934  1.0000
  H   H127      1.0  0.21509134  0.57633236  0.58919433  1.0000
  H   H128      1.0  0.35575932  0.51808297  0.18341583  1.0000
  H   H129      1.0  0.28148301  0.34778867  0.44720333  1.0000
  H   H130      1.0  0.17346487  0.34703067  0.4571655399999999  1.0000
  H   H131      1.0  0.21876930999999994  0.37828454  0.37143432  1.0000
  H   H132      1.0  0.23970061  0.69541467  0.5170287  1.0000
  H   H133      1.0  0.29729135  0.68104793  0.43360436  1.0000
  H   H134      1.0  0.18904031  0.68890359  0.42898274  1.0000
  H   H135      1.0  0.40579556  0.40599549  0.30689841  1.0000
  H   H136      1.0  0.45543256  0.49488222  0.31758228  1.0000
  H   H137      1.0  0.39633335  0.4577920100000001  0.39182388  1.0000
  H   H138      1.0  0.08467558  0.59010142  0.24730737999999997  1.0000
  H   H139      1.0  0.09966053  0.59289826  0.3464229  1.0000
  H   H140      1.0  0.13781817  0.6665667100000002  0.28785749  1.0000
  H   H141      1.0  0.40806981999999997  0.23613295000000004  0.55715983  1.0000
  H   H142      1.0  0.51012522  0.16956657  0.4747054700000001  1.0000
  H   H143      1.0  0.61100471  0.38352478  0.40996265  1.0000
  H   H144      1.0  0.51567549  0.44913168  0.49713066  1.0000
  C   C1        1.0  0.27497398  0.87821775  0.43260452  1.0000
  C   C2        1.0  0.27314764  0.95726919  0.46098553  1.0000
  C   C3        1.0  0.26085878  0.02447968  0.41963268  1.0000
  C   C4        1.0  0.26661627  0.08358404  0.47160935  1.0000
  C   C5        1.0  0.25993251  0.16672232  0.46257348000000004  1.0000
  C   C6        1.0  0.10043422  0.96294943  0.33078698  1.0000
  C   C7        1.0  0.17459095  0.0018535600000000002  0.30191867  1.0000
  C   C8        1.0  0.24384601  0.0299996  0.33958352  1.0000
  C   C9        1.0  0.2933024999999999  0.06381833  0.28393343  1.0000
  C   C10       1.0  0.37216484  0.10519059  0.29199062  1.0000
  C   C11       1.0  0.10737503  0.88566907  0.5794071  1.0000
  C   C12       1.0  0.04453007  0.84656952  0.53215884  1.0000
  C   C13       1.0  0.04644941  0.7676341800000003  0.5253081  1.0000
  C   C14       1.0  0.9907256800000002  0.73095132  0.47912872  1.0000
  C   C15       1.0  0.93290005  0.85156185  0.44318944  1.0000
  C   C16       1.0  0.98649686  0.88803781  0.49167552  1.0000
  C   C17       1.0  0.87172073  0.73355029  0.38903788  1.0000
  C   C18       1.0  0.9341129399999998  0.7728093200000001  0.43698927  1.0000
  C   C19       1.0  0.77497398  0.62178225  0.56739548  1.0000
  C   C20       1.0  0.77314764  0.5427308100000002  0.53901447  1.0000
  C   C21       1.0  0.76085878  0.47552032  0.58036732  1.0000
  C   C22       1.0  0.76661627  0.41641596  0.52839065  1.0000
  C   C23       1.0  0.75993251  0.33327768000000013  0.53742652  1.0000
  C   C24       1.0  0.60043422  0.53705057  0.66921302  1.0000
  C   C25       1.0  0.67459095  0.49814644  0.69808133  1.0000
  C   C26       1.0  0.74384601  0.4700004  0.66041648  1.0000
  C   C27       1.0  0.7933025  0.43618167000000013  0.71606657  1.0000
  C   C28       1.0  0.8721648399999998  0.39480941  0.70800938  1.0000
  C   C29       1.0  0.60737503  0.61433093  0.4205929  1.0000
  C   C30       1.0  0.54453007  0.6534304800000001  0.4678411599999999  1.0000
  C   C31       1.0  0.54644941  0.73236582  0.4746919  1.0000
  C   C32       1.0  0.49072568000000005  0.76904868  0.52087128  1.0000
  C   C33       1.0  0.43290005  0.64843815  0.55681056  1.0000
  C   C34       1.0  0.48649686  0.61196219  0.50832448  1.0000
  C   C35       1.0  0.37172073  0.76644971  0.61096212  1.0000
  C   C36       1.0  0.43411294  0.72719068  0.56301073  1.0000
  C   C37       1.0  0.77497398  0.37821775  0.06739548  1.0000
  C   C38       1.0  0.77314764  0.45726918999999994  0.03901447  1.0000
  C   C39       1.0  0.76085878  0.52447968  0.08036732  1.0000
  C   C40       1.0  0.76661627  0.58358404  0.02839065  1.0000
  C   C41       1.0  0.75993251  0.66672232  0.03742652  1.0000
  C   C42       1.0  0.60043422  0.46294943  0.16921302  1.0000
  C   C43       1.0  0.67459095  0.50185356  0.19808133  1.0000
  C   C44       1.0  0.74384601  0.5299996  0.16041648  1.0000
  C   C45       1.0  0.7933025  0.56381833  0.21606657  1.0000
  C   C46       1.0  0.8721648399999998  0.6051905900000001  0.20800938  1.0000
  C   C47       1.0  0.60737503  0.38566907000000006  0.9205928999999999  1.0000
  C   C48       1.0  0.54453007  0.34656952  0.96784116  1.0000
  C   C49       1.0  0.54644941  0.26763418  0.9746918999999999  1.0000
  C   C50       1.0  0.49072568000000005  0.23095132  0.02087128  1.0000
  C   C51       1.0  0.43290005  0.35156185  0.05681056  1.0000
  C   C52       1.0  0.48649686  0.3880378100000001  0.00832448  1.0000
  C   C53       1.0  0.37172073  0.23355029000000002  0.11096212  1.0000
  C   C54       1.0  0.43411294  0.27280932  0.06301073  1.0000
  C   C55       1.0  0.27497398  0.12178225000000001  0.93260452  1.0000
  C   C56       1.0  0.27314764  0.04273081  0.96098553  1.0000
  C   C57       1.0  0.26085878  0.97552032  0.91963268  1.0000
  C   C58       1.0  0.26661627  0.91641596  0.97160935  1.0000
  C   C59       1.0  0.25993251  0.8332776800000001  0.96257348  1.0000
  C   C60       1.0  0.10043422  0.03705057  0.83078698  1.0000
  C   C61       1.0  0.17459095  0.99814644  0.80191867  1.0000
  C   C62       1.0  0.24384601  0.9700004  0.83958352  1.0000
  C   C63       1.0  0.2933024999999999  0.93618167  0.78393343  1.0000
  C   C64       1.0  0.37216484  0.89480941  0.79199062  1.0000
  C   C65       1.0  0.10737503  0.11433093000000001  0.0794071  1.0000
  C   C66       1.0  0.04453007  0.15343048  0.03215884  1.0000
  C   C67       1.0  0.04644941  0.23236582  0.0253081  1.0000
  C   C68       1.0  0.9907256800000002  0.26904868  0.97912872  1.0000
  C   C69       1.0  0.93290005  0.14843815  0.94318944  1.0000
  C   C70       1.0  0.98649686  0.11196219  0.9916755199999999  1.0000
  C   C71       1.0  0.87172073  0.26644971  0.88903788  1.0000
  C   C72       1.0  0.9341129399999998  0.22719068  0.9369892700000001  1.0000
  C   C73       1.0  0.22502602  0.62178225  0.93260452  1.0000
  C   C74       1.0  0.22685236  0.5427308100000002  0.96098553  1.0000
  C   C75       1.0  0.23914122  0.47552032  0.91963268  1.0000
  C   C76       1.0  0.23338373  0.41641596  0.97160935  1.0000
  C   C77       1.0  0.24006749  0.33327768000000013  0.96257348  1.0000
  C   C78       1.0  0.39956578  0.53705057  0.83078698  1.0000
  C   C79       1.0  0.32540905  0.49814644  0.80191867  1.0000
  C   C80       1.0  0.2561539899999999  0.4700004  0.83958352  1.0000
  C   C81       1.0  0.2066975  0.43618167000000013  0.78393343  1.0000
  C   C82       1.0  0.12783516  0.39480941  0.79199062  1.0000
  C   C83       1.0  0.39262497  0.61433093  0.0794071  1.0000
  C   C84       1.0  0.4554699299999999  0.6534304800000001  0.03215884  1.0000
  C   C85       1.0  0.45355059  0.73236582  0.0253081  1.0000
  C   C86       1.0  0.50927432  0.76904868  0.97912872  1.0000
  C   C87       1.0  0.56709995  0.64843815  0.94318944  1.0000
  C   C88       1.0  0.51350314  0.61196219  0.9916755199999999  1.0000
  C   C89       1.0  0.6282792699999998  0.76644971  0.88903788  1.0000
  C   C90       1.0  0.56588706  0.72719068  0.9369892700000001  1.0000
  C   C91       1.0  0.72502602  0.87821775  0.06739548  1.0000
  C   C92       1.0  0.72685236  0.95726919  0.03901447  1.0000
  C   C93       1.0  0.7391412199999998  0.02447968  0.08036732  1.0000
  C   C94       1.0  0.73338373  0.08358404  0.02839065  1.0000
  C   C95       1.0  0.74006749  0.16672232  0.03742652  1.0000
  C   C96       1.0  0.89956578  0.96294943  0.16921302  1.0000
  C   C97       1.0  0.82540905  0.0018535600000000002  0.19808133  1.0000
  C   C98       1.0  0.75615399  0.0299996  0.16041648  1.0000
  C   C99       1.0  0.7066975  0.06381833  0.21606657  1.0000
  C   C100      1.0  0.62783516  0.10519059  0.20800938  1.0000
  C   C101      1.0  0.8926249699999997  0.88566907  0.9205928999999999  1.0000
  C   C102      1.0  0.95546993  0.84656952  0.96784116  1.0000
  C   C103      1.0  0.95355059  0.7676341800000003  0.9746918999999999  1.0000
  C   C104      1.0  0.00927432  0.73095132  0.02087128  1.0000
  C   C105      1.0  0.06709995  0.85156185  0.05681056  1.0000
  C   C106      1.0  0.01350314  0.88803781  0.00832448  1.0000
  C   C107      1.0  0.12827927  0.73355029  0.11096212  1.0000
  C   C108      1.0  0.06588706  0.7728093200000001  0.06301073  1.0000
  C   C109      1.0  0.72502602  0.12178225000000001  0.56739548  1.0000
  C   C110      1.0  0.72685236  0.04273081  0.53901447  1.0000
  C   C111      1.0  0.7391412199999998  0.97552032  0.58036732  1.0000
  C   C112      1.0  0.73338373  0.91641596  0.52839065  1.0000
  C   C113      1.0  0.74006749  0.8332776800000001  0.53742652  1.0000
  C   C114      1.0  0.89956578  0.03705057  0.66921302  1.0000
  C   C115      1.0  0.82540905  0.99814644  0.69808133  1.0000
  C   C116      1.0  0.75615399  0.9700004  0.66041648  1.0000
  C   C117      1.0  0.7066975  0.93618167  0.71606657  1.0000
  C   C118      1.0  0.62783516  0.89480941  0.70800938  1.0000
  C   C119      1.0  0.8926249699999997  0.11433093000000001  0.4205929  1.0000
  C   C120      1.0  0.95546993  0.15343048  0.4678411599999999  1.0000
  C   C121      1.0  0.95355059  0.23236582  0.4746919  1.0000
  C   C122      1.0  0.00927432  0.26904868  0.52087128  1.0000
  C   C123      1.0  0.06709995  0.14843815  0.55681056  1.0000
  C   C124      1.0  0.01350314  0.11196219  0.50832448  1.0000
  C   C125      1.0  0.12827927  0.26644971  0.61096212  1.0000
  C   C126      1.0  0.06588706  0.22719068  0.56301073  1.0000
  C   C127      1.0  0.22502602  0.37821775  0.43260452  1.0000
  C   C128      1.0  0.22685236  0.45726918999999994  0.46098553  1.0000
  C   C129      1.0  0.23914122  0.52447968  0.41963268  1.0000
  C   C130      1.0  0.23338373  0.58358404  0.47160935  1.0000
  C   C131      1.0  0.24006749  0.66672232  0.46257348000000004  1.0000
  C   C132      1.0  0.39956578  0.46294943  0.33078698  1.0000
  C   C133      1.0  0.32540905  0.50185356  0.30191867  1.0000
  C   C134      1.0  0.2561539899999999  0.5299996  0.33958352  1.0000
  C   C135      1.0  0.2066975  0.56381833  0.28393343  1.0000
  C   C136      1.0  0.12783516  0.6051905900000001  0.29199062  1.0000
  C   C137      1.0  0.39262497  0.38566907000000006  0.5794071  1.0000
  C   C138      1.0  0.4554699299999999  0.34656952  0.53215884  1.0000
  C   C139      1.0  0.45355059  0.26763418  0.5253081  1.0000
  C   C140      1.0  0.50927432  0.23095132  0.47912872  1.0000
  C   C141      1.0  0.56709995  0.35156185  0.44318944  1.0000
  C   C142      1.0  0.51350314  0.3880378100000001  0.49167552  1.0000
  C   C143      1.0  0.6282792699999998  0.23355029000000002  0.38903788  1.0000
  C   C144      1.0  0.56588706  0.27280932  0.43698927  1.0000
  N   N1        1.0  0.28464328  0.9740147900000001  0.53378133  1.0000
  N   N2        1.0  0.28059794  0.05041747  0.53866488  1.0000
  N   N3        1.0  0.25655161  0.05561462  0.2171275  1.0000
  N   N4        1.0  0.18522387999999995  0.017986930000000005  0.22872605000000001  1.0000
  N   N5        1.0  0.78464328  0.5259852100000002  0.46621867  1.0000
  N   N6        1.0  0.78059794  0.44958253  0.46133512  1.0000
  N   N7        1.0  0.7565516099999999  0.44438538  0.7828725  1.0000
  N   N8        1.0  0.68522388  0.48201307000000004  0.77127395  1.0000
  N   N9        1.0  0.78464328  0.47401478999999996  0.9662186699999998  1.0000
  N   N10       1.0  0.78059794  0.55041747  0.9613351200000001  1.0000
  N   N11       1.0  0.7565516099999999  0.55561462  0.2828725  1.0000
  N   N12       1.0  0.68522388  0.51798693  0.27127395  1.0000
  N   N13       1.0  0.28464328  0.02598521  0.03378133  1.0000
  N   N14       1.0  0.28059794  0.9495825300000001  0.03866488  1.0000
  N   N15       1.0  0.25655161  0.94438538  0.7171275  1.0000
  N   N16       1.0  0.18522387999999995  0.98201307  0.72872605  1.0000
  N   N17       1.0  0.21535672  0.5259852100000002  0.03378133  1.0000
  N   N18       1.0  0.21940206  0.44958253  0.03866488  1.0000
  N   N19       1.0  0.24344839  0.44438538  0.7171275  1.0000
  N   N20       1.0  0.31477612  0.48201307000000004  0.72872605  1.0000
  N   N21       1.0  0.71535672  0.9740147900000001  0.9662186699999998  1.0000
  N   N22       1.0  0.71940206  0.05041747  0.9613351200000001  1.0000
  N   N23       1.0  0.74344839  0.05561462  0.2828725  1.0000
  N   N24       1.0  0.81477612  0.017986930000000005  0.27127395  1.0000
  N   N25       1.0  0.71535672  0.02598521  0.46621867  1.0000
  N   N26       1.0  0.71940206  0.9495825300000001  0.46133512  1.0000
  N   N27       1.0  0.74344839  0.94438538  0.7828725  1.0000
  N   N28       1.0  0.81477612  0.98201307  0.77127395  1.0000
  N   N29       1.0  0.21535672  0.47401478999999996  0.53378133  1.0000
  N   N30       1.0  0.21940206  0.55041747  0.53866488  1.0000
  N   N31       1.0  0.24344839  0.55561462  0.2171275  1.0000
  N   N32       1.0  0.31477612  0.51798693  0.22872605000000001  1.0000
  O   O1        1.0  0.17276929  0.84612691  0.59054717  1.0000
  O   O2        1.0  0.09504971  0.9519565200000001  0.60302982  1.0000
  O   O3        1.0  0.87363813  0.65996963  0.39629994  1.0000
  O   O4        1.0  0.82273537  0.76969548  0.34946861  1.0000
  O   O5        1.0  0.67276929  0.65387309  0.40945283  1.0000
  O   O6        1.0  0.59504971  0.54804348  0.39697018  1.0000
  O   O7        1.0  0.37363813  0.84003037  0.60370006  1.0000
  O   O8        1.0  0.32273537  0.7303045200000001  0.65053139  1.0000
  O   O9        1.0  0.67276929  0.34612691  0.90945283  1.0000
  O   O10       1.0  0.59504971  0.45195652  0.8969701799999998  1.0000
  O   O11       1.0  0.37363813  0.15996963  0.10370006  1.0000
  O   O12       1.0  0.32273537  0.26969548  0.15053139  1.0000
  O   O13       1.0  0.17276929  0.15387309  0.09054717  1.0000
  O   O14       1.0  0.09504971  0.04804348  0.10302982  1.0000
  O   O15       1.0  0.87363813  0.34003037000000014  0.89629994  1.0000
  O   O16       1.0  0.82273537  0.23030452  0.84946861  1.0000
  O   O17       1.0  0.32723070999999987  0.65387309  0.09054717  1.0000
  O   O18       1.0  0.40495029  0.54804348  0.10302982  1.0000
  O   O19       1.0  0.62636187  0.84003037  0.89629994  1.0000
  O   O20       1.0  0.67726463  0.7303045200000001  0.84946861  1.0000
  O   O21       1.0  0.82723071  0.84612691  0.90945283  1.0000
  O   O22       1.0  0.9049502899999998  0.9519565200000001  0.8969701799999998  1.0000
  O   O23       1.0  0.12636187  0.65996963  0.10370006  1.0000
  O   O24       1.0  0.17726462999999998  0.76969548  0.15053139  1.0000
  O   O25       1.0  0.82723071  0.15387309  0.40945283  1.0000
  O   O26       1.0  0.9049502899999998  0.04804348  0.39697018  1.0000
  O   O27       1.0  0.12636187  0.34003037000000014  0.60370006  1.0000
  O   O28       1.0  0.17726462999999998  0.23030452  0.65053139  1.0000
  O   O29       1.0  0.32723070999999987  0.34612691  0.59054717  1.0000
  O   O30       1.0  0.40495029  0.45195652  0.60302982  1.0000
  O   O31       1.0  0.62636187  0.15996963  0.39629994  1.0000
  O   O32       1.0  0.67726463  0.26969548  0.34946861  1.0000
