data_image0
_chemical_formula_structural       Ag24C96N72F144
_chemical_formula_sum              "Ag24 C96 N72 F144"
_cell_length_a       13.63866
_cell_length_b       13.56474
_cell_length_c       39.593289999999996
_cell_angle_alpha    89.87519
_cell_angle_beta     89.83919
_cell_angle_gamma    89.89405

_space_group_name_H-M_alt    "P 1"
_space_group_IT_number       1

loop_
  _space_group_symop_operation_xyz
  'x, y, z'

loop_
  _atom_site_type_symbol
  _atom_site_label
  _atom_site_symmetry_multiplicity
  _atom_site_fract_x
  _atom_site_fract_y
  _atom_site_fract_z
  _atom_site_occupancy
  Ag  Ag1       1.0  0.9917500000000002  0.49194  0.09589  1.0000
  Ag  Ag2       1.0  0.5009400000000002  0.99633  0.9028099999999999  1.0000
  Ag  Ag3       1.0  0.50232  0.50438  0.6527699999999999  1.0000
  Ag  Ag4       1.0  0.9997500000000001  0.00136  0.84781  1.0000
  Ag  Ag5       1.0  0.49839  0.0002000000000000005  0.5967799999999999  1.0000
  Ag  Ag6       1.0  0.0004899999999999997  0.49994  0.40417  1.0000
  Ag  Ag7       1.0  0.0011200000000000006  0.0007900000000000002  0.15412999999999996  1.0000
  Ag  Ag8       1.0  0.50411  0.49991  0.34673  1.0000
  Ag  Ag9       1.0  0.86336  0.39377000000000006  0.24418  1.0000
  Ag  Ag10      1.0  0.1394  0.61065  0.24531999999999998  1.0000
  Ag  Ag11      1.0  0.38285000000000013  0.13462  0.75342  1.0000
  Ag  Ag12      1.0  0.6205200000000002  0.86421  0.75556  1.0000
  Ag  Ag13      1.0  0.6387000000000002  0.37852  0.50491  1.0000
  Ag  Ag14      1.0  0.36229  0.6164  0.50603  1.0000
  Ag  Ag15      1.0  0.12222  0.13367  0.99561  1.0000
  Ag  Ag16      1.0  0.8786500000000003  0.85963  0.9952499999999999  1.0000
  Ag  Ag17      1.0  0.3622  0.8802  0.74679  1.0000
  Ag  Ag18      1.0  0.6355900000000001  0.1214  0.7457699999999999  1.0000
  Ag  Ag19      1.0  0.8867400000000002  0.64231  0.25747  1.0000
  Ag  Ag20      1.0  0.11997  0.36049  0.25548  1.0000
  Ag  Ag21      1.0  0.13904000000000002  0.8834700000000001  0.00636  1.0000
  Ag  Ag22      1.0  0.86083  0.10466  0.00504  1.0000
  Ag  Ag23      1.0  0.61097  0.6325000000000001  0.49398999999999993  1.0000
  Ag  Ag24      1.0  0.38248000000000004  0.36214  0.49464  1.0000
  C   C1        1.0  0.9243400000000003  0.52836  0.17517  1.0000
  C   C2        1.0  0.06811  0.47151  0.1733  1.0000
  C   C3        1.0  0.5194100000000001  0.07142999999999998  0.82531  1.0000
  C   C4        1.0  0.46924000000000016  0.92435  0.8249099999999999  1.0000
  C   C5        1.0  0.56774  0.53566  0.5743  1.0000
  C   C6        1.0  0.42461  0.47769999999999996  0.57538  1.0000
  C   C7        1.0  0.9711300000000004  0.07519  0.9252599999999999  1.0000
  C   C8        1.0  0.03514000000000001  0.93447  0.9267699999999999  1.0000
  C   C9        1.0  0.4292700000000001  0.03395  0.67451  1.0000
  C   C10       1.0  0.57075  0.9720800000000002  0.67505  1.0000
  C   C11       1.0  0.02197  0.57365  0.32678  1.0000
  C   C12       1.0  0.9648500000000001  0.42923  0.3258  1.0000
  C   C13       1.0  0.08015  0.02271  0.07583  1.0000
  C   C14       1.0  0.93524  0.9706  0.07557  1.0000
  C   C15       1.0  0.46561  0.56695  0.42367999999999995  1.0000
  C   C16       1.0  0.53016  0.42599  0.42431  1.0000
  C   C17       1.0  0.8259000000000001  0.57136  0.16646  1.0000
  C   C18       1.0  0.16101  0.42357999999999996  0.1612  1.0000
  C   C19       1.0  0.56307  0.16902  0.83534  1.0000
  C   C20       1.0  0.43354000000000004  0.82365  0.8351299999999999  1.0000
  C   C21       1.0  0.66502  0.57776  0.58449  1.0000
  C   C22       1.0  0.33126000000000005  0.42934  0.58686  1.0000
  C   C23       1.0  0.9194900000000001  0.16615  0.91328  1.0000
  C   C24       1.0  0.08367  0.8395200000000002  0.9173499999999999  1.0000
  C   C25       1.0  0.33480000000000004  0.07727  0.66214  1.0000
  C   C26       1.0  0.66289  0.92121  0.66382  1.0000
  C   C27       1.0  0.07270000000000003  0.66441  0.33977  1.0000
  C   C28       1.0  0.92843  0.32881  0.33612  1.0000
  C   C29       1.0  0.17454  0.06862  0.08697  1.0000
  C   C30       1.0  0.8392500000000003  0.93033  0.08747  1.0000
  C   C31       1.0  0.4186200000000001  0.66073  0.41179  1.0000
  C   C32       1.0  0.58209  0.33348999999999995  0.41384999999999994  1.0000
  C   C33       1.0  0.93434  0.66564  0.04067  1.0000
  C   C34       1.0  0.05758  0.32416  0.0401  1.0000
  C   C35       1.0  0.65835  0.06118  0.96304  1.0000
  C   C36       1.0  0.3291900000000001  0.92854  0.95705  1.0000
  C   C37       1.0  0.57204  0.67351  0.70868  1.0000
  C   C38       1.0  0.43716  0.34276  0.71092  1.0000
  C   C39       1.0  0.8275600000000002  0.06828  0.7927699999999999  1.0000
  C   C40       1.0  0.1624  0.9307699999999999  0.79057  1.0000
  C   C41       1.0  0.4293000000000001  0.1668  0.53944  1.0000
  C   C42       1.0  0.5678  0.82592  0.54336  1.0000
  C   C43       1.0  0.17382  0.5661  0.45752  1.0000
  C   C44       1.0  0.8380200000000001  0.43495999999999996  0.46147  1.0000
  C   C45       1.0  0.06214  0.1734  0.2079  1.0000
  C   C46       1.0  0.9380600000000002  0.82777  0.20929  1.0000
  C   C47       1.0  0.3339400000000001  0.5607  0.29093  1.0000
  C   C48       1.0  0.6619300000000001  0.44602  0.28689  1.0000
  C   C49       1.0  0.08176000000000003  0.69309  0.052469999999999996  1.0000
  C   C50       1.0  0.9101300000000002  0.29464  0.05149  1.0000
  C   C51       1.0  0.6860000000000002  0.91379  0.94937  1.0000
  C   C52       1.0  0.30238  0.07754  0.94475  1.0000
  C   C53       1.0  0.4232400000000001  0.70046  0.6976999999999999  1.0000
  C   C54       1.0  0.58411  0.31149  0.6983599999999999  1.0000
  C   C55       1.0  0.8024000000000002  0.91855  0.80358  1.0000
  C   C56       1.0  0.18653  0.08201  0.79909  1.0000
  C   C57       1.0  0.5771200000000001  0.19104  0.55166  1.0000
  C   C58       1.0  0.42009000000000013  0.7999000000000002  0.55647  1.0000
  C   C59       1.0  0.19780000000000006  0.41652000000000006  0.44653  1.0000
  C   C60       1.0  0.8026500000000002  0.58042  0.44734999999999997  1.0000
  C   C61       1.0  0.9158  0.2036  0.1948  1.0000
  C   C62       1.0  0.08606  0.80334  0.19739  1.0000
  C   C63       1.0  0.3135800000000001  0.41063  0.30272999999999994  1.0000
  C   C64       1.0  0.68914  0.59243  0.30163  1.0000
  C   C65       1.0  0.18208000000000005  0.6882  0.06778  1.0000
  C   C66       1.0  0.8046700000000002  0.30268  0.06206  1.0000
  C   C67       1.0  0.6857400000000002  0.8151999999999999  0.93233  1.0000
  C   C68       1.0  0.30629  0.18069  0.93055  1.0000
  C   C69       1.0  0.32045  0.69484  0.68424  1.0000
  C   C70       1.0  0.6833800000000002  0.30783  0.68171  1.0000
  C   C71       1.0  0.8057600000000003  0.81528  0.8173399999999998  1.0000
  C   C72       1.0  0.18869000000000005  0.18368  0.81398  1.0000
  C   C73       1.0  0.6753800000000002  0.19168  0.56838  1.0000
  C   C74       1.0  0.31773  0.80761  0.5706  1.0000
  C   C75       1.0  0.19299  0.31592  0.43086  1.0000
  C   C76       1.0  0.80497  0.68196  0.43213  1.0000
  C   C77       1.0  0.8152500000000003  0.19848  0.17945  1.0000
  C   C78       1.0  0.18556  0.8065299999999999  0.18137  1.0000
  C   C79       1.0  0.32042  0.31184  0.32001  1.0000
  C   C80       1.0  0.6825  0.69239  0.3179  1.0000
  C   C81       1.0  0.83561  0.6171900000000001  0.04105  1.0000
  C   C82       1.0  0.1535  0.37675  0.0375  1.0000
  C   C83       1.0  0.6184000000000002  0.16455000000000003  0.9627699999999999  1.0000
  C   C84       1.0  0.37336  0.82662  0.9579700000000001  1.0000
  C   C85       1.0  0.67249  0.62671  0.7085  1.0000
  C   C86       1.0  0.33806  0.39146  0.71163  1.0000
  C   C87       1.0  0.8667700000000003  0.17144  0.79427  1.0000
  C   C88       1.0  0.11987000000000002  0.82858  0.79317  1.0000
  C   C89       1.0  0.32789000000000007  0.12416  0.5374899999999999  1.0000
  C   C90       1.0  0.66794  0.87211  0.54096  1.0000
  C   C91       1.0  0.12829  0.66654  0.45855000000000007  1.0000
  C   C92       1.0  0.89662  0.34114  0.46396  1.0000
  C   C93       1.0  0.16219  0.12735  0.20834999999999998  1.0000
  C   C94       1.0  0.83634  0.86918  0.20873999999999998  1.0000
  C   C95       1.0  0.37465000000000004  0.66357  0.29093  1.0000
  C   C96       1.0  0.6128500000000002  0.34795000000000004  0.28295  1.0000
  N   N1        1.0  0.99298  0.49749  0.15264  1.0000
  N   N2        1.0  0.4975600000000001  0.9962  0.84668  1.0000
  N   N3        1.0  0.49580000000000013  0.51034  0.59643  1.0000
  N   N4        1.0  0.006839999999999999  0.0047  0.90438  1.0000
  N   N5        1.0  0.49969  0.00042000000000000034  0.65322  1.0000
  N   N6        1.0  0.9926100000000002  0.50024  0.34782  1.0000
  N   N7        1.0  0.006850000000000001  0.99793  0.09731  1.0000
  N   N8        1.0  0.4980300000000001  0.49572  0.40243  1.0000
  N   N9        1.0  0.95436  0.52178  0.20734999999999998  1.0000
  N   N10       1.0  0.0483  0.48565  0.20614999999999997  1.0000
  N   N11       1.0  0.50594  0.04826  0.7926799999999999  1.0000
  N   N12       1.0  0.47435000000000005  0.9523699999999999  0.79247  1.0000
  N   N13       1.0  0.54414  0.51811  0.54202  1.0000
  N   N14       1.0  0.45044000000000006  0.4814300000000001  0.5426799999999999  1.0000
  N   N15       1.0  0.9764500000000003  0.0508  0.9580699999999999  1.0000
  N   N16       1.0  0.01724  0.95836  0.959  1.0000
  N   N17       1.0  0.4540900000000001  0.02669  0.70714  1.0000
  N   N18       1.0  0.5469800000000001  0.98729  0.70753  1.0000
  N   N19       1.0  0.013350000000000004  0.55033  0.29398  1.0000
  N   N20       1.0  0.97692  0.45578  0.29335  1.0000
  N   N21       1.0  0.056110000000000014  0.01172  0.04318  1.0000
  N   N22       1.0  0.96101  0.97839  0.04307  1.0000
  N   N23       1.0  0.47794  0.54417  0.45638000000000006  1.0000
  N   N24       1.0  0.5188300000000001  0.45155  0.4568  1.0000
  N   N25       1.0  0.00762  0.6312899999999999  0.06034  1.0000
  N   N26       1.0  0.9820700000000003  0.35953  0.058769999999999996  1.0000
  N   N27       1.0  0.6250600000000002  0.98953  0.94227  1.0000
  N   N28       1.0  0.36167  0.0013899999999999993  0.93645  1.0000
  N   N29       1.0  0.4980600000000001  0.6399100000000001  0.68913  1.0000
  N   N30       1.0  0.51085  0.37468  0.69065  1.0000
  N   N31       1.0  0.8628900000000003  0.9934  0.8118899999999999  1.0000
  N   N32       1.0  0.12762  0.0072900000000000005  0.8089899999999999  1.0000
  N   N33       1.0  0.5012000000000001  0.13154  0.55964  1.0000
  N   N34       1.0  0.49569  0.86032  0.56379  1.0000
  N   N35       1.0  0.13923000000000002  0.49287  0.43787999999999994  1.0000
  N   N36       1.0  0.8692  0.509  0.44119  1.0000
  N   N37       1.0  0.9896800000000001  0.14029  0.18771  1.0000
  N   N38       1.0  0.01003  0.86224  0.18895  1.0000
  N   N39       1.0  0.3714000000000001  0.4879  0.31031  1.0000
  N   N40       1.0  0.62636  0.51738  0.30736  1.0000
  N   N41       1.0  0.96075  0.7432399999999999  0.02167  1.0000
  N   N42       1.0  0.03467  0.24352  0.02255  1.0000
  N   N43       1.0  0.7354800000000002  0.032250000000000015  0.98151  1.0000
  N   N44       1.0  0.255  0.95745  0.9769899999999999  1.0000
  N   N45       1.0  0.54489  0.74985  0.72806  1.0000
  N   N46       1.0  0.46229  0.2646  0.72987  1.0000
  N   N47       1.0  0.7505500000000003  0.04208  0.77386  1.0000
  N   N48       1.0  0.23794  0.95645  0.77054  1.0000
  N   N49       1.0  0.45878  0.24282  0.52026  1.0000
  N   N50       1.0  0.53877  0.74953  0.52441  1.0000
  N   N51       1.0  0.24852  0.53782  0.47719999999999996  1.0000
  N   N52       1.0  0.75716  0.45858  0.47908000000000006  1.0000
  N   N53       1.0  0.03546  0.25153  0.22646  1.0000
  N   N54       1.0  0.9672800000000003  0.75363  0.22916  1.0000
  N   N55       1.0  0.25705  0.53129  0.27251  1.0000
  N   N56       1.0  0.74208  0.47394  0.26981  1.0000
  N   N57       1.0  0.05677  0.76074  0.029369999999999997  1.0000
  N   N58       1.0  0.9390100000000001  0.22433  0.02997  1.0000
  N   N59       1.0  0.7532400000000002  0.93658  0.97266  1.0000
  N   N60       1.0  0.23782000000000006  0.053869999999999994  0.9690300000000001  1.0000
  N   N61       1.0  0.4485800000000001  0.76715  0.72088  1.0000
  N   N62       1.0  0.5577  0.24473  0.7217  1.0000
  N   N63       1.0  0.73458  0.94509  0.78089  1.0000
  N   N64       1.0  0.25351  0.05454  0.77616  1.0000
  N   N65       1.0  0.5545  0.25857  0.52826  1.0000
  N   N66       1.0  0.44313  0.7328000000000001  0.53291  1.0000
  N   N67       1.0  0.26413000000000003  0.44081000000000004  0.46992999999999996  1.0000
  N   N68       1.0  0.7344800000000001  0.55322  0.46988  1.0000
  N   N69       1.0  0.94029  0.271  0.21802  1.0000
  N   N70       1.0  0.06345  0.73736  0.22142  1.0000
  N   N71       1.0  0.24355000000000002  0.43388  0.28021  1.0000
  N   N72       1.0  0.7596400000000002  0.5689  0.27939  1.0000
  F   F1        1.0  0.8334  0.6694399999999999  0.15826  1.0000
  F   F2        1.0  0.14335  0.32995  0.14987999999999999  1.0000
  F   F3        1.0  0.6617500000000002  0.15992  0.8416  1.0000
  F   F4        1.0  0.33869  0.82535  0.8467  1.0000
  F   F5        1.0  0.65674  0.66489  0.60157  1.0000
  F   F6        1.0  0.35156  0.33451  0.59672  1.0000
  F   F7        1.0  0.8330500000000001  0.14017  0.8982599999999998  1.0000
  F   F8        1.0  0.181  0.85048  0.90988  1.0000
  F   F9        1.0  0.35178  0.16065  0.64352  1.0000
  F   F10       1.0  0.64312  0.82919  0.65166  1.0000
  F   F11       1.0  0.158  0.63538  0.35508  1.0000
  F   F12       1.0  0.83839  0.33066  0.3515  1.0000
  F   F13       1.0  0.15780000000000005  0.1645  0.09671  1.0000
  F   F14       1.0  0.85175  0.8393  0.10171  1.0000
  F   F15       1.0  0.33276  0.64445  0.39506  1.0000
  F   F16       1.0  0.67579  0.35483  0.40333  1.0000
  F   F17       1.0  0.7828  0.52496  0.14  1.0000
  F   F18       1.0  0.20354000000000005  0.47453  0.13533  1.0000
  F   F19       1.0  0.52275  0.20927  0.8634799999999999  1.0000
  F   F20       1.0  0.4904100000000001  0.78488  0.85997  1.0000
  F   F21       1.0  0.71374  0.51448  0.60513  1.0000
  F   F22       1.0  0.28759000000000007  0.47524999999999995  0.61335  1.0000
  F   F23       1.0  0.97201  0.21946  0.8902699999999999  1.0000
  F   F24       1.0  0.04097000000000001  0.7992100000000001  0.88983  1.0000
  F   F25       1.0  0.28638  0.01424  0.64157  1.0000
  F   F26       1.0  0.7087100000000002  0.97049  0.6384099999999999  1.0000
  F   F27       1.0  0.01863  0.7145  0.36314  1.0000
  F   F28       1.0  0.99089  0.2849  0.35831  1.0000
  F   F29       1.0  0.21690000000000006  0.02036  0.11332  1.0000
  F   F30       1.0  0.7995500000000001  0.98972  0.11157  1.0000
  F   F31       1.0  0.4775700000000001  0.71057  0.39001  1.0000
  F   F32       1.0  0.53702  0.28533  0.38823  1.0000
  F   F33       1.0  0.76371  0.56503  0.19337  1.0000
  F   F34       1.0  0.22721  0.41529000000000005  0.18669  1.0000
  F   F35       1.0  0.55131  0.23536  0.80986  1.0000
  F   F36       1.0  0.43539  0.76023  0.80838  1.0000
  F   F37       1.0  0.7223400000000002  0.59489  0.55678  1.0000
  F   F38       1.0  0.26408  0.42495  0.56155  1.0000
  F   F39       1.0  0.89805  0.22568  0.9399  1.0000
  F   F40       1.0  0.0784  0.77409  0.94337  1.0000
  F   F41       1.0  0.27347000000000005  0.10029000000000002  0.68823  1.0000
  F   F42       1.0  0.7270000000000001  0.91021  0.68993  1.0000
  F   F43       1.0  0.09686000000000002  0.7294  0.3149  1.0000
  F   F44       1.0  0.92118  0.26979  0.30839  1.0000
  F   F45       1.0  0.24113  0.07024  0.061419999999999995  1.0000
  F   F46       1.0  0.77346  0.9203  0.06183  1.0000
  F   F47       1.0  0.3981300000000001  0.72056  0.43841  1.0000
  F   F48       1.0  0.58839  0.26949  0.4402  1.0000
  F   F49       1.0  0.21273  0.77924  0.07835  1.0000
  F   F50       1.0  0.7686400000000002  0.21482  0.07336  1.0000
  F   F51       1.0  0.7687400000000001  0.8048  0.9131999999999999  1.0000
  F   F52       1.0  0.21706  0.20989  0.9184499999999999  1.0000
  F   F53       1.0  0.2921700000000001  0.77989  0.6683599999999998  1.0000
  F   F54       1.0  0.6996  0.21451  0.66993  1.0000
  F   F55       1.0  0.71381  0.7850800000000001  0.82675  1.0000
  F   F56       1.0  0.27337  0.19517999999999996  0.832  1.0000
  F   F57       1.0  0.6856400000000002  0.27595  0.5867799999999999  1.0000
  F   F58       1.0  0.28739  0.7207  0.58487  1.0000
  F   F59       1.0  0.28438  0.28505  0.42145000000000005  1.0000
  F   F60       1.0  0.71345  0.71011  0.42174999999999996  1.0000
  F   F61       1.0  0.7825  0.28982  0.17007  1.0000
  F   F62       1.0  0.21338  0.7142699999999998  0.17159  1.0000
  F   F63       1.0  0.23449  0.29407  0.33666  1.0000
  F   F64       1.0  0.76892  0.71528  0.33331  1.0000
  F   F65       1.0  0.24997  0.65496  0.04514  1.0000
  F   F66       1.0  0.74941  0.3302  0.03501  1.0000
  F   F67       1.0  0.68509  0.73989  0.9550499999999998  1.0000
  F   F68       1.0  0.33294000000000007  0.24553  0.95508  1.0000
  F   F69       1.0  0.25475  0.67973  0.70982  1.0000
  F   F70       1.0  0.75791  0.32979  0.70333  1.0000
  F   F71       1.0  0.8380600000000002  0.75013  0.7935499999999999  1.0000
  F   F72       1.0  0.18937  0.2551  0.78988  1.0000
  F   F73       1.0  0.74969  0.18975  0.54522  1.0000
  F   F74       1.0  0.25414  0.8299199999999999  0.54515  1.0000
  F   F75       1.0  0.1571  0.24521  0.45186  1.0000
  F   F76       1.0  0.8374700000000003  0.74989  0.4549  1.0000
  F   F77       1.0  0.7494500000000002  0.16018  0.20177  1.0000
  F   F78       1.0  0.25476  0.84007  0.20324999999999996  1.0000
  F   F79       1.0  0.33728  0.23580000000000004  0.2983  1.0000
  F   F80       1.0  0.6624200000000002  0.7647700000000001  0.29499  1.0000
  F   F81       1.0  0.18132000000000006  0.62629  0.09485999999999999  1.0000
  F   F82       1.0  0.7917100000000002  0.37028  0.08679999999999999  1.0000
  F   F83       1.0  0.6070400000000002  0.80491  0.91172  1.0000
  F   F84       1.0  0.37092  0.18955  0.90483  1.0000
  F   F85       1.0  0.31365  0.62006  0.66167  1.0000
  F   F86       1.0  0.6896300000000001  0.37032  0.65503  1.0000
  F   F87       1.0  0.86541  0.80973  0.84476  1.0000
  F   F88       1.0  0.11146000000000003  0.19998  0.8349799999999999  1.0000
  F   F89       1.0  0.68568  0.11465  0.58994  1.0000
  F   F90       1.0  0.3104  0.87899  0.59457  1.0000
  F   F91       1.0  0.13456  0.31953  0.40318  1.0000
  F   F92       1.0  0.8656800000000002  0.68507  0.40497  1.0000
  F   F93       1.0  0.8149400000000002  0.14019  0.15164  1.0000
  F   F94       1.0  0.18545  0.8650100000000001  0.15346  1.0000
  F   F95       1.0  0.39343  0.31016  0.34329  1.0000
  F   F96       1.0  0.6110000000000002  0.69492  0.34172  1.0000
  F   F97       1.0  0.8098200000000001  0.59475  0.07346  1.0000
  F   F98       1.0  0.19035000000000005  0.39542  0.06865  1.0000
  F   F99       1.0  0.6576100000000002  0.21578  0.93644  1.0000
  F   F100      1.0  0.37934  0.78527  0.9267200000000001  1.0000
  F   F101      1.0  0.71269  0.62968  0.67688  1.0000
  F   F102      1.0  0.30099  0.40016  0.67986  1.0000
  F   F103      1.0  0.87515  0.20044  0.82692  1.0000
  F   F104      1.0  0.10215000000000003  0.80498  0.82622  1.0000
  F   F105      1.0  0.28736  0.10996  0.56851  1.0000
  F   F106      1.0  0.71256  0.87963  0.57159  1.0000
  F   F107      1.0  0.11574  0.70487  0.42699  1.0000
  F   F108      1.0  0.90275  0.29507000000000005  0.43338  1.0000
  F   F109      1.0  0.20368  0.12974  0.17695  1.0000
  F   F110      1.0  0.8006300000000002  0.87031  0.17668  1.0000
  F   F111      1.0  0.38866000000000006  0.69517  0.32324  1.0000
  F   F112      1.0  0.6067000000000002  0.29977  0.31319  1.0000
  F   F113      1.0  0.8376800000000001  0.53054  0.02333  1.0000
  F   F114      1.0  0.13950000000000004  0.4653  0.02161  1.0000
  F   F115      1.0  0.51903  0.16487  0.95844  1.0000
  F   F116      1.0  0.46729  0.8299599999999999  0.97014  1.0000
  F   F117      1.0  0.66657  0.52993  0.7182  1.0000
  F   F118      1.0  0.3428  0.48459  0.72496  1.0000
  F   F119      1.0  0.95782  0.17979999999999996  0.77993  1.0000
  F   F120      1.0  0.03242000000000001  0.82043  0.77663  1.0000
  F   F121      1.0  0.32878  0.034790000000000015  0.52163  1.0000
  F   F122      1.0  0.66178  0.96569  0.52825  1.0000
  F   F123      1.0  0.03743000000000002  0.66063  0.4733399999999999  1.0000
  F   F124      1.0  0.99047  0.36451  0.47339999999999993  1.0000
  F   F125      1.0  0.1575  0.030550000000000004  0.21827  1.0000
  F   F126      1.0  0.8372400000000002  0.9646300000000001  0.22004  1.0000
  F   F127      1.0  0.46334  0.66961  0.27496  1.0000
  F   F128      1.0  0.51882  0.35982  0.2716  1.0000
  F   F129      1.0  0.76398  0.67513  0.02814  1.0000
  F   F130      1.0  0.22196000000000002  0.32506  0.01996  1.0000
  F   F131      1.0  0.63884  0.21445  0.99157  1.0000
  F   F132      1.0  0.32008  0.7654200000000001  0.9782  1.0000
  F   F133      1.0  0.73576  0.6707100000000001  0.73001  1.0000
  F   F134      1.0  0.27287  0.33957  0.73022  1.0000
  F   F135      1.0  0.8057600000000003  0.2353  0.77826  1.0000
  F   F136      1.0  0.18099  0.7598299999999999  0.77998  1.0000
  F   F137      1.0  0.26783000000000007  0.18509  0.51987  1.0000
  F   F138      1.0  0.72711  0.8198  0.52001  1.0000
  F   F139      1.0  0.18432  0.73009  0.47664  1.0000
  F   F140      1.0  0.8607100000000002  0.27562  0.48665  1.0000
  F   F141      1.0  0.22257000000000002  0.17496  0.23001999999999997  1.0000
  F   F142      1.0  0.7735200000000002  0.8158600000000001  0.22827999999999998  1.0000
  F   F143      1.0  0.3133700000000001  0.72718  0.27503  1.0000
  F   F144      1.0  0.6615800000000002  0.29005  0.26044  1.0000
