data_image0
_chemical_formula_structural       Ca6H24C48O24
_chemical_formula_sum              "Ca6 H24 C48 O24"
_cell_length_a       10.112
_cell_length_b       13.7528
_cell_length_c       15.043399999999998
_cell_angle_alpha    77.55800000000002
_cell_angle_beta     70.3608
_cell_angle_gamma    68.4301

_space_group_name_H-M_alt    "P 1"
_space_group_IT_number       1

loop_
  _space_group_symop_operation_xyz
  'x, y, z'

loop_
  _atom_site_type_symbol
  _atom_site_label
  _atom_site_symmetry_multiplicity
  _atom_site_fract_x
  _atom_site_fract_y
  _atom_site_fract_z
  _atom_site_occupancy
  Ca  Ca1       1.0  0.4907699999999997  0.52717  0.11977  1.0000
  Ca  Ca2       1.0  0.50923  0.47283  0.88023  1.0000
  Ca  Ca3       1.0  0.13770999999999992  0.97283  0.38023  1.0000
  Ca  Ca4       1.0  0.21517000000000003  0.75  0.25  1.0000
  Ca  Ca5       1.0  0.8622900000000001  0.027169999999999993  0.61977  1.0000
  Ca  Ca6       1.0  0.7848300000000001  0.25  0.75  1.0000
  H   H1        1.0  0.5842999999999998  0.3541  0.4193  1.0000
  H   H2        1.0  0.5039  0.8342  0.076  1.0000
  H   H3        1.0  0.8275  0.1717  0.2487  1.0000
  H   H4        1.0  0.4157000000000001  0.6459  0.5807  1.0000
  H   H5        1.0  0.2479  0.3283  0.2513  1.0000
  H   H6        1.0  0.8386999999999999  0.8039000000000002  0.6551  1.0000
  H   H7        1.0  0.22779999999999995  0.9049000000000001  0.0181  1.0000
  H   H8        1.0  0.15079999999999985  0.5951000000000002  0.48189999999999994  1.0000
  H   H9        1.0  0.17249999999999993  0.8283000000000004  0.7513  1.0000
  H   H10       1.0  0.6422999999999999  0.8541000000000002  0.9192999999999999  1.0000
  H   H11       1.0  0.3577  0.1459  0.0807  1.0000
  H   H12       1.0  0.7521000000000001  0.6717  0.7487  1.0000
  H   H13       1.0  0.11399999999999993  0.03830000000000001  0.9189  1.0000
  H   H14       1.0  0.9288000000000001  0.5383  0.41889999999999994  1.0000
  H   H15       1.0  0.7722  0.0951  0.9819  1.0000
  H   H16       1.0  0.886  0.9617000000000001  0.0811  1.0000
  H   H17       1.0  0.5859000000000002  0.33420000000000005  0.576  1.0000
  H   H18       1.0  0.7023  0.3039000000000001  0.1551  1.0000
  H   H19       1.0  0.4961000000000001  0.16579999999999998  0.924  1.0000
  H   H20       1.0  0.2977000000000001  0.6961  0.8449  1.0000
  H   H21       1.0  0.07119999999999999  0.4617  0.5811  1.0000
  H   H22       1.0  0.8492000000000001  0.4049  0.5181  1.0000
  H   H23       1.0  0.41409999999999997  0.6658000000000002  0.424  1.0000
  H   H24       1.0  0.1613  0.19610000000000005  0.3449  1.0000
  C   C1        1.0  0.07161  0.61069  0.53629  1.0000
  C   C2        1.0  0.09838000000000001  0.44704  0.32539999999999997  1.0000
  C   C3        1.0  0.87082  0.052960000000000014  0.1746  1.0000
  C   C4        1.0  0.65355  0.3008200000000001  0.9944799999999998  1.0000
  C   C5        1.0  0.8151  0.15584  0.19556  1.0000
  C   C6        1.0  0.9776599999999998  0.46907  0.40481  1.0000
  C   C7        1.0  0.92839  0.38931  0.4637099999999999  1.0000
  C   C8        1.0  0.02234  0.53093  0.59519  1.0000
  C   C9        1.0  0.44974999999999965  0.58692  0.54838  1.0000
  C   C10       1.0  0.32528999999999986  0.9765500000000003  0.19467  1.0000
  C   C11       1.0  0.04504999999999996  0.03225000000000001  0.76425  1.0000
  C   C12       1.0  0.85154  0.030930000000000006  0.09519  1.0000
  C   C13       1.0  0.5034899999999999  0.4765499999999999  0.69467  1.0000
  C   C14       1.0  0.8335  0.6558400000000001  0.69556  1.0000
  C   C15       1.0  0.05114999999999998  0.8008200000000002  0.49448  1.0000
  C   C16       1.0  0.5850499999999997  0.91308  0.95162  1.0000
  C   C17       1.0  0.4965100000000001  0.52345  0.30533  1.0000
  C   C18       1.0  0.9488500000000002  0.19918000000000002  0.50552  1.0000
  C   C19       1.0  0.16649999999999993  0.34416000000000013  0.30444  1.0000
  C   C20       1.0  0.1848999999999999  0.8441600000000002  0.8044399999999999  1.0000
  C   C21       1.0  0.99666  0.28672  0.44175999999999993  1.0000
  C   C22       1.0  0.84155  0.46775000000000005  0.7357499999999998  1.0000
  C   C23       1.0  0.15845000000000004  0.53225  0.26425  1.0000
  C   C24       1.0  0.34645  0.69918  0.00552  1.0000
  C   C25       1.0  0.11563000000000007  0.26479  0.36095  1.0000
  C   C26       1.0  0.12918000000000002  0.9470400000000001  0.8254  1.0000
  C   C27       1.0  0.9549500000000001  0.96775  0.23575  1.0000
  C   C28       1.0  0.67471  0.02345  0.80533  1.0000
  C   C29       1.0  0.5019600000000002  0.90111  0.045769999999999984  1.0000
  C   C30       1.0  0.41495  0.08692  0.04837999999999999  1.0000
  C   C31       1.0  0.21858999999999995  0.8893100000000002  0.96371  1.0000
  C   C32       1.0  0.2586300000000001  0.76479  0.86095  1.0000
  C   C33       1.0  0.49804  0.09889  0.95423  1.0000
  C   C34       1.0  0.0033399999999999272  0.71328  0.55824  1.0000
  C   C35       1.0  0.5511600000000001  0.40111  0.54577  1.0000
  C   C36       1.0  0.44884000000000013  0.59889  0.45422999999999997  1.0000
  C   C37       1.0  0.583  0.012209999999999995  0.90599  1.0000
  C   C38       1.0  0.8843699999999999  0.7352100000000001  0.63905  1.0000
  C   C39       1.0  0.7251400000000001  0.21328  0.05824  1.0000
  C   C40       1.0  0.4169999999999999  0.9877900000000001  0.09401  1.0000
  C   C41       1.0  0.9016200000000001  0.5529600000000001  0.6746  1.0000
  C   C42       1.0  0.74137  0.23521000000000006  0.13905  1.0000
  C   C43       1.0  0.4988  0.51221  0.40599  1.0000
  C   C44       1.0  0.1484599999999998  0.9690700000000004  0.90481  1.0000
  C   C45       1.0  0.7814100000000002  0.11069  0.03629  1.0000
  C   C46       1.0  0.5012000000000001  0.4877900000000001  0.59401  1.0000
  C   C47       1.0  0.27486000000000005  0.78672  0.94176  1.0000
  C   C48       1.0  0.55025  0.41308  0.45162  1.0000
  O   O1        1.0  0.43882999999999994  0.55639  0.73975  1.0000
  O   O2        1.0  0.42976000000000003  0.61288  0.26782  1.0000
  O   O3        1.0  0.73497  0.9436100000000002  0.76025  1.0000
  O   O4        1.0  0.56117  0.44361  0.26025  1.0000
  O   O5        1.0  0.26502999999999993  0.05639000000000002  0.23974999999999996  1.0000
  O   O6        1.0  0.58349  0.39025  0.02437  1.0000
  O   O7        1.0  0.8990500000000002  0.37768  0.70962  1.0000
  O   O8        1.0  0.9625000000000001  0.99382  0.30838  1.0000
  O   O9        1.0  0.7353  0.49382  0.8083799999999998  1.0000
  O   O10       1.0  0.41650999999999994  0.60975  0.97563  1.0000
  O   O11       1.0  0.8610099999999999  0.2142700000000001  0.58749  1.0000
  O   O12       1.0  0.33723000000000003  0.71427  0.08749  1.0000
  O   O13       1.0  0.0018899999999999965  0.89025  0.52437  1.0000
  O   O14       1.0  0.03749999999999998  0.006180000000000005  0.69162  1.0000
  O   O15       1.0  0.26470000000000005  0.50618  0.19162  1.0000
  O   O16       1.0  0.10094999999999997  0.62232  0.29038  1.0000
  O   O17       1.0  0.3104599999999999  0.8871200000000001  0.23218  1.0000
  O   O18       1.0  0.13898999999999997  0.78573  0.41251  1.0000
  O   O19       1.0  0.99811  0.10975000000000003  0.47563  1.0000
  O   O20       1.0  0.66277  0.2857300000000001  0.9125099999999999  1.0000
  O   O21       1.0  0.6895400000000002  0.11288  0.76782  1.0000
  O   O22       1.0  0.98635  0.12232  0.79038  1.0000
  O   O23       1.0  0.5702399999999999  0.38712  0.73218  1.0000
  O   O24       1.0  0.013650000000000072  0.87768  0.20962  1.0000
