data_image0
_chemical_formula_structural       Cu12H24C48N24
_chemical_formula_sum              "Cu12 H24 C48 N24"
_cell_length_a       32.75892245
_cell_length_b       32.79723761
_cell_length_c       32.76189636
_cell_angle_alpha    109.51840972
_cell_angle_beta     109.44554255
_cell_angle_gamma    109.39895116

_space_group_name_H-M_alt    "P 1"
_space_group_IT_number       1

loop_
  _space_group_symop_operation_xyz
  'x, y, z'

loop_
  _atom_site_type_symbol
  _atom_site_label
  _atom_site_symmetry_multiplicity
  _atom_site_fract_x
  _atom_site_fract_y
  _atom_site_fract_z
  _atom_site_occupancy
  Cu  Cu1       1.0  0.9319387100000001  0.96579417  0.71541958  1.0000
  Cu  Cu2       1.0  0.034262509999999934  0.9650945899999999  0.74963265  1.0000
  Cu  Cu3       1.0  0.034140719999999986  0.06852198000000001  0.78454956  1.0000
  Cu  Cu4       1.0  0.75108337  0.5341264  0.46620582  1.0000
  Cu  Cu5       1.0  0.7843964  0.53479313  0.56925544  1.0000
  Cu  Cu6       1.0  0.71593048  0.43138001  0.46567776  1.0000
  Cu  Cu7       1.0  0.56756619  0.28390008  0.03388281  1.0000
  Cu  Cu8       1.0  0.46526078  0.21502134  0.93094032  1.0000
  Cu  Cu9       1.0  0.46524273  0.25017743  0.03455212  1.0000
  Cu  Cu10      1.0  0.75037301  0.21653381999999993  0.7842552399999999  1.0000
  Cu  Cu11      1.0  0.71582832  0.2849262900000001  0.75036029  1.0000
  Cu  Cu12      1.0  0.7842293100000001  0.24973298000000002  0.7151747500000001  1.0000
  H   H1        1.0  0.8543118100000001  0.8498083000000001  0.65021673  1.0000
  H   H2        1.0  0.99342557  0.84746365  0.69674314  1.0000
  H   H3        1.0  0.99321886  0.14536560999999998  0.7972533899999998  1.0000
  H   H4        1.0  0.8541645400000001  0.00425625000000002  0.70245975  1.0000
  H   H5        1.0  0.15099454  0.0050366299999999925  0.80192055  1.0000
  H   H6        1.0  0.15076454000000006  0.14513402000000009  0.8491675000000001  1.0000
  H   H7        1.0  0.8024325699999999  0.65019759  0.5046878  1.0000
  H   H8        1.0  0.8478025499999999  0.6523392899999998  0.64602097  1.0000
  H   H9        1.0  0.65057722  0.35456941  0.34790263000000005  1.0000
  H   H10       1.0  0.7002281499999999  0.4956895399999998  0.34997716  1.0000
  H   H11       1.0  0.79654425  0.4948833999999999  0.6460264899999999  1.0000
  H   H12       1.0  0.70376206  0.35473402  0.50579068  1.0000
  H   H13       1.0  0.64525695  0.29650203  0.99518351  1.0000
  H   H14       1.0  0.50605254  0.20252123999999994  0.85399852  1.0000
  H   H15       1.0  0.5060495  0.30369559  0.1523044  1.0000
  H   H16       1.0  0.6452141  0.3492226099999999  0.15011246  1.0000
  H   H17       1.0  0.34862881  0.15029987  0.85425216  1.0000
  H   H18       1.0  0.34845476  0.19781438  0.99451723  1.0000
  H   H19       1.0  0.69931681  0.20407397999999993  0.84944204  1.0000
  H   H20       1.0  0.6509108999999998  0.29695168999999993  0.80318241  1.0000
  H   H21       1.0  0.84800016  0.19570696999999995  0.7019890699999999  1.0000
  H   H22       1.0  0.80143404  0.15135198  0.79677208  1.0000
  H   H23       1.0  0.70381176  0.34963467000000004  0.6984261700000001  1.0000
  H   H24       1.0  0.7965380099999999  0.3020135199999999  0.65074909  1.0000
  C   C1        1.0  0.8928463799999999  0.8581877899999999  0.66607649  1.0000
  C   C2        1.0  0.91194888  0.8252607199999997  0.66166519  1.0000
  C   C3        1.0  0.9641410699999999  0.85711424  0.6899904799999999  1.0000
  C   C4        1.0  0.96395786  0.10651252  0.77415958  1.0000
  C   C5        1.0  0.9117577200000001  0.08629130000000004  0.7498114800000001  1.0000
  C   C6        1.0  0.8926867299999999  0.03432596999999997  0.7256646  1.0000
  C   C7        1.0  0.14194158999999998  0.03473024999999997  0.8089187299999999  1.0000
  C   C8        1.0  0.17431957  0.08679606999999999  0.83727183  1.0000
  C   C9        1.0  0.14182799  0.10645031999999997  0.83315879  1.0000
  C   C10       1.0  0.80909286  0.64173902  0.53478696  1.0000
  C   C11       1.0  0.83653161  0.6746144199999998  0.58680764  1.0000
  C   C12       1.0  0.83231773  0.64272609  0.60710793  1.0000
  C   C13       1.0  0.66721  0.39342133  0.35749368  1.0000
  C   C14       1.0  0.66373427  0.41364167999999996  0.32551511  1.0000
  C   C15       1.0  0.6925912  0.46560797  0.35841563  1.0000
  C   C16       1.0  0.7738744  0.46517756  0.60729109  1.0000
  C   C17       1.0  0.75016822  0.41311542  0.58762761  1.0000
  C   C18       1.0  0.72640646  0.39344215  0.53548432  1.0000
  C   C19       1.0  0.6066899999999998  0.2734972399999999  0.9651443699999999  1.0000
  C   C20       1.0  0.58754924  0.24956021  0.91309634  1.0000
  C   C21       1.0  0.53536089  0.22541157999999994  0.89289482  1.0000
  C   C22       1.0  0.53535601  0.3101721  0.14268868  1.0000
  C   C23       1.0  0.58754842  0.3383814  0.17462816  1.0000
  C   C24       1.0  0.60666776  0.33357578999999987  0.14168222  1.0000
  C   C25       1.0  0.35759551999999994  0.1664060399999999  0.89299185  1.0000
  C   C26       1.0  0.32512637999999994  0.1623197299999999  0.91267321  1.0000
  C   C27       1.0  0.35752692999999997  0.19076886  0.96480952  1.0000
  C   C28       1.0  0.69198185  0.2268387  0.83367176  1.0000
  C   C29       1.0  0.66350073  0.25040813  0.83813106  1.0000
  C   C30       1.0  0.66721777  0.27435595  0.809889  1.0000
  C   C31       1.0  0.832217  0.18956737000000007  0.72513284  1.0000
  C   C32       1.0  0.83617804  0.16158891999999997  0.74935059  1.0000
  C   C33       1.0  0.8083919  0.16674754  0.77362052  1.0000
  C   C34       1.0  0.72644462  0.3335171099999999  0.69129127  1.0000
  C   C35       1.0  0.75019736  0.33756612  0.66288993  1.0000
  C   C36       1.0  0.7738770299999999  0.3091000299999999  0.66685011  1.0000
  C   C37       1.0  0.8624802299999998  0.7271589799999999  0.6126500299999998  1.0000
  C   C38       1.0  0.88526454  0.7727164899999999  0.63529684  1.0000
  C   C39       1.0  0.6372154100000001  0.25005768999999994  0.8644894800000001  1.0000
  C   C40       1.0  0.61426777  0.24983976  0.8871771  1.0000
  C   C41       1.0  0.8621925800000001  0.13497869000000007  0.74945039  1.0000
  C   C42       1.0  0.88503242  0.11219196999999999  0.74957753  1.0000
  C   C43       1.0  0.61429685  0.36493122  0.22726433  1.0000
  C   C44       1.0  0.63735663  0.38773569  0.2728807  1.0000
  C   C45       1.0  0.27251502  0.13594661999999988  0.88635901  1.0000
  C   C46       1.0  0.22692704000000005  0.11310089999999999  0.8635816700000001  1.0000
  C   C47       1.0  0.75021506  0.38679748  0.61392124  1.0000
  C   C48       1.0  0.75023016  0.36394383  0.63665438  1.0000
  N   N1        1.0  0.9749728799999999  0.9050402199999998  0.70958617  1.0000
  N   N2        1.0  0.93077559  0.9056613999999998  0.6947176899999999  1.0000
  N   N3        1.0  0.93064138  0.02470688000000002  0.73504306  1.0000
  N   N4        1.0  0.97481927  0.06941189000000005  0.7650662800000001  1.0000
  N   N5        1.0  0.09409743000000008  0.06895589000000003  0.8046668000000001  1.0000
  N   N6        1.0  0.09416622000000004  0.02449677  0.78961643  1.0000
  N   N7        1.0  0.80462991  0.59482425  0.56999274  1.0000
  N   N8        1.0  0.7902265099999999  0.5942488899999998  0.52520288  1.0000
  N   N9        1.0  0.71156441  0.47521791999999985  0.40598456  1.0000
  N   N10       1.0  0.69583287  0.43051256  0.40545834  1.0000
  N   N11       1.0  0.73540091  0.43091652  0.52521229  1.0000
  N   N12       1.0  0.76479923  0.47538480000000005  0.56973119  1.0000
  N   N13       1.0  0.5245693499999999  0.23442182999999994  0.9300833699999999  1.0000
  N   N14       1.0  0.56878617  0.26419391  0.97483742  1.0000
  N   N15       1.0  0.56875787  0.30483544  0.09412799  1.0000
  N   N16       1.0  0.524548  0.29027904  0.09470981  1.0000
  N   N17       1.0  0.40530014  0.21011065  0.97505688  1.0000
  N   N18       1.0  0.40533524  0.19497014999999993  0.9305306  1.0000
  N   N19       1.0  0.69562173  0.26558836999999996  0.7903073499999999  1.0000
  N   N20       1.0  0.71096941  0.23616986  0.80508327  1.0000
  N   N21       1.0  0.78956812  0.19548225999999994  0.76443332  1.0000
  N   N22       1.0  0.80433758  0.20967134  0.7344148000000001  1.0000
  N   N23       1.0  0.7647818899999999  0.28977827999999983  0.6952864499999999  1.0000
  N   N24       1.0  0.73540904  0.30494554  0.71046174  1.0000
