data_image0
_chemical_formula_structural       Mg8H28C52O32
_chemical_formula_sum              "Mg8 H28 C52 O32"
_cell_length_a       8.869
_cell_length_b       12.083099999999998
_cell_length_c       19.6129
_cell_angle_alpha    85.2402
_cell_angle_beta     76.93259999999998
_cell_angle_gamma    68.4698

_space_group_name_H-M_alt    "P 1"
_space_group_IT_number       1

loop_
  _space_group_symop_operation_xyz
  'x, y, z'

loop_
  _atom_site_type_symbol
  _atom_site_label
  _atom_site_symmetry_multiplicity
  _atom_site_fract_x
  _atom_site_fract_y
  _atom_site_fract_z
  _atom_site_occupancy
  Mg  Mg1       1.0  0.60808  0.5286  0.9122200000000001  1.0000
  Mg  Mg2       1.0  0.86181  0.65654  0.97538  1.0000
  Mg  Mg3       1.0  0.048899999999999985  0.47140000000000004  0.08778  1.0000
  Mg  Mg4       1.0  0.49373  0.34346  0.02462  1.0000
  Mg  Mg5       1.0  0.7703  0.0286  0.58778  1.0000
  Mg  Mg6       1.0  0.08718999999999993  0.15654  0.5246200000000001  1.0000
  Mg  Mg7       1.0  0.38668  0.9714000000000002  0.41222  1.0000
  Mg  Mg8       1.0  0.7683499999999999  0.8434600000000001  0.47538  1.0000
  H   H1        1.0  0.9047  0.7568  0.738  1.0000
  H   H2        1.0  0.7398  0.4112  0.0914  1.0000
  H   H3        1.0  0.9608  0.4182  0.7848  1.0000
  H   H4        1.0  0.9436  0.5354  0.5894  1.0000
  H   H5        1.0  0.17129999999999987  0.8278  0.9742000000000002  1.0000
  H   H6        1.0  0.9836  0.3814  0.6686  1.0000
  H   H7        1.0  0.39949999999999997  0.24320000000000003  0.262  1.0000
  H   H8        1.0  0.24239999999999995  0.5888  0.9086  1.0000
  H   H9        1.0  0.16380000000000003  0.5818  0.21520000000000003  1.0000
  H   H10       1.0  0.06840000000000003  0.4646  0.4106  1.0000
  H   H11       1.0  0.9733  0.1722  0.025800000000000003  1.0000
  H   H12       1.0  0.0336  0.6186  0.3314  1.0000
  H   H13       1.0  0.8927  0.2568  0.762  1.0000
  H   H14       1.0  0.08119999999999998  0.9112000000000001  0.40860000000000013  1.0000
  H   H15       1.0  0.9955999999999998  0.9181999999999999  0.7152000000000002  1.0000
  H   H16       1.0  0.783  0.0354  0.9106  1.0000
  H   H17       1.0  0.3955  0.3278  0.5258  1.0000
  H   H18       1.0  0.9021999999999997  0.8814  0.8314000000000002  1.0000
  H   H19       1.0  0.9115  0.7432  0.23800000000000002  1.0000
  H   H20       1.0  0.401  0.0888  0.5914000000000001  1.0000
  H   H21       1.0  0.629  0.0818  0.2848  1.0000
  H   H22       1.0  0.7290000000000001  0.9646  0.08940000000000002  1.0000
  H   H23       1.0  0.2491  0.6722  0.47420000000000007  1.0000
  H   H24       1.0  0.615  0.1186  0.1686  1.0000
  H   H25       1.0  0.9409999999999998  0.0  0.0  1.0000
  H   H26       1.0  0.4695  0.0  0.0  1.0000
  H   H27       1.0  0.191  0.5  0.5  1.0000
  H   H28       1.0  0.7195  0.5  0.5  1.0000
  C   C1        1.0  0.9084  0.61438  0.84842  1.0000
  C   C2        1.0  0.3449600000000001  0.89522  0.98406  1.0000
  C   C3        1.0  0.8950000000000001  0.76122  0.60318  1.0000
  C   C4        1.0  0.92232  0.66064  0.65532  1.0000
  C   C5        1.0  0.4921899999999999  0.7821800000000001  0.9684400000000001  1.0000
  C   C6        1.0  0.9168700000000001  0.68146  0.7244  1.0000
  C   C7        1.0  0.7313299999999999  0.46476  0.05438  1.0000
  C   C8        1.0  0.9522999999999995  0.47974  0.7522600000000003  1.0000
  C   C9        1.0  0.92925  0.5909  0.7736  1.0000
  C   C10       1.0  0.94301  0.54924  0.63534  1.0000
  C   C11       1.0  0.1842899999999999  0.89708  0.9845400000000001  1.0000
  C   C12       1.0  0.96291  0.45798  0.683  1.0000
  C   C13       1.0  0.37119999999999986  0.3856200000000001  0.15158  1.0000
  C   C14       1.0  0.22424  0.10478  0.015940000000000006  1.0000
  C   C15       1.0  0.2594  0.23877999999999996  0.3968200000000001  1.0000
  C   C16       1.0  0.23827999999999983  0.33936  0.3446800000000001  1.0000
  C   C17       1.0  0.24281000000000003  0.21782  0.03156  1.0000
  C   C18       1.0  0.3227300000000001  0.31854  0.2756  1.0000
  C   C19       1.0  0.25046999999999997  0.53524  0.9456200000000002  1.0000
  C   C20       1.0  0.1842999999999999  0.52026  0.24774  1.0000
  C   C21       1.0  0.29375000000000007  0.4091000000000001  0.22640000000000002  1.0000
  C   C22       1.0  0.12759000000000004  0.45076  0.36466  1.0000
  C   C23       1.0  0.06591  0.10292  0.015460000000000002  1.0000
  C   C24       1.0  0.10388999999999994  0.54202  0.317  1.0000
  C   C25       1.0  0.0068200000000000205  0.11437999999999998  0.65158  1.0000
  C   C26       1.0  0.5790200000000001  0.39521999999999996  0.51594  1.0000
  C   C27       1.0  0.7481800000000003  0.26122  0.89682  1.0000
  C   C28       1.0  0.8276399999999999  0.16064  0.8446800000000001  1.0000
  C   C29       1.0  0.7106299999999998  0.28218  0.53156  1.0000
  C   C30       1.0  0.89127  0.18146  0.7756000000000001  1.0000
  C   C31       1.0  0.03570999999999999  0.9647600000000001  0.4456200000000001  1.0000
  C   C32       1.0  0.95456  0.97974  0.74774  1.0000
  C   C33       1.0  0.95285  0.0909  0.7264  1.0000
  C   C34       1.0  0.82835  0.04924  0.86466  1.0000
  C   C35       1.0  0.41882999999999987  0.39708000000000004  0.5154600000000001  1.0000
  C   C36       1.0  0.8959099999999998  0.95798  0.8170000000000002  1.0000
  C   C37       1.0  0.77278  0.88562  0.34842  1.0000
  C   C38       1.0  0.49018000000000006  0.60478  0.48406000000000005  1.0000
  C   C39       1.0  0.90622  0.73878  0.10318  1.0000
  C   C40       1.0  0.8329599999999999  0.83936  0.15532000000000004  1.0000
  C   C41       1.0  0.5243700000000001  0.7178199999999999  0.46844  1.0000
  C   C42       1.0  0.8483300000000001  0.8185399999999999  0.2244  1.0000
  C   C43       1.0  0.44609  0.03524  0.55438  1.0000
  C   C44       1.0  0.6820400000000001  0.02026  0.25226  1.0000
  C   C45       1.0  0.7701500000000001  0.9091  0.2736  1.0000
  C   C46       1.0  0.7422499999999997  0.95076  0.13534  1.0000
  C   C47       1.0  0.3313699999999999  0.60292  0.48454000000000014  1.0000
  C   C48       1.0  0.6708900000000001  0.04202  0.183  1.0000
  C   C49       1.0  0.0459  0.0  0.0  1.0000
  C   C50       1.0  0.3647  0.0  0.0  1.0000
  C   C51       1.0  0.2959  0.5  0.5  1.0000
  C   C52       1.0  0.6147  0.5  0.5  1.0000
  O   O1        1.0  0.63245  0.46486  0.01644  1.0000
  O   O2        1.0  0.90071  0.73726  0.54152  1.0000
  O   O3        1.0  0.83103  0.56114  0.8940000000000001  1.0000
  O   O4        1.0  0.96376  0.68688  0.8686  1.0000
  O   O5        1.0  0.8187899999999999  0.5279  0.04812  1.0000
  O   O6        1.0  0.8599799999999999  0.86384  0.6264000000000001  1.0000
  O   O7        1.0  0.4675699999999999  0.69642  0.9462400000000001  1.0000
  O   O8        1.0  0.6313400000000001  0.77924  0.97868  1.0000
  O   O9        1.0  0.11375000000000009  0.53514  0.98356  1.0000
  O   O10       1.0  0.17948999999999996  0.26274  0.45848000000000005  1.0000
  O   O11       1.0  0.28617  0.4388599999999999  0.10600000000000001  1.0000
  O   O12       1.0  0.51924  0.31312  0.1314  1.0000
  O   O13       1.0  0.3948099999999998  0.4721  0.9518800000000001  1.0000
  O   O14       1.0  0.35022  0.13616  0.3736  1.0000
  O   O15       1.0  0.11023000000000001  0.30358  0.05376  1.0000
  O   O16       1.0  0.38926  0.22076  0.021320000000000006  1.0000
  O   O17       1.0  0.89889  0.96486  0.48356  1.0000
  O   O18       1.0  0.6922299999999999  0.23726  0.9584800000000001  1.0000
  O   O19       1.0  0.97503  0.06114  0.606  1.0000
  O   O20       1.0  0.08236000000000006  0.18687999999999996  0.6314  1.0000
  O   O21       1.0  0.11690999999999994  0.0279  0.45188000000000006  1.0000
  O   O22       1.0  0.73638  0.36384000000000005  0.8736000000000002  1.0000
  O   O23       1.0  0.6638099999999998  0.19642  0.5537600000000003  1.0000
  O   O24       1.0  0.86002  0.27924  0.52132  1.0000
  O   O25       1.0  0.34730999999999995  0.03514  0.51644  1.0000
  O   O26       1.0  0.8879700000000001  0.76274  0.04152  1.0000
  O   O27       1.0  0.6421699999999999  0.9388600000000001  0.394  1.0000
  O   O28       1.0  0.9006400000000001  0.81312  0.3686  1.0000
  O   O29       1.0  0.5966900000000002  0.9721  0.54812  1.0000
  O   O30       1.0  0.9738199999999999  0.63616  0.12640000000000004  1.0000
  O   O31       1.0  0.41398999999999997  0.80358  0.44624  1.0000
  O   O32       1.0  0.6605799999999998  0.72076  0.47868  1.0000
