data_image0
_chemical_formula_structural       Co3H26C40N10O8
_chemical_formula_sum              "Co3 H26 C40 N10 O8"
_cell_length_a       11.4482
_cell_length_b       11.5408
_cell_length_c       11.766299999999998
_cell_angle_alpha    65.37
_cell_angle_beta     80.54
_cell_angle_gamma    72.75899999999999

_space_group_name_H-M_alt    "P 1"
_space_group_IT_number       1

loop_
  _space_group_symop_operation_xyz
  'x, y, z'

loop_
  _atom_site_type_symbol
  _atom_site_label
  _atom_site_symmetry_multiplicity
  _atom_site_fract_x
  _atom_site_fract_y
  _atom_site_fract_z
  _atom_site_occupancy
  Co  Co1       1.0  0.5000000000000001  4.0290317359127286e-17  0.4999999999999999  1.0000
  Co  Co2       1.0  0.5  0.5  0.0  1.0000
  Co  Co3       1.0  0.5000000000000002  0.5  0.4999999999999999  1.0000
  H   H1        1.0  0.545  0.16179999999999997  0.17789999999999997  1.0000
  H   H2        1.0  0.7016  0.8743  0.7039  1.0000
  H   H3        1.0  0.9096000000000002  0.7799  0.7200999999999999  1.0000
  H   H4        1.0  0.9457000000000002  0.9417999999999999  0.34129999999999994  1.0000
  H   H5        1.0  0.7369000000000002  0.03  0.3377  1.0000
  H   H6        1.0  0.07670000000000006  0.6186  0.7037999999999998  1.0000
  H   H7        1.0  0.2782999999999999  0.5032  0.693  1.0000
  H   H8        1.0  0.3397000000000001  0.777  0.3691999999999999  1.0000
  H   H9        1.0  0.14100000000000004  0.9030999999999999  0.371  1.0000
  H   H10       1.0  0.6576000000000004  0.6846000000000001  0.9775999999999998  1.0000
  H   H11       1.0  0.8569000000000001  0.6918999999999998  0.9742  1.0000
  H   H12       1.0  0.9619  0.3061  0.03769999999999999  1.0000
  H   H13       1.0  0.7588  0.3086  0.0433  1.0000
  H   H14       1.0  0.455  0.8381999999999998  0.8221  1.0000
  H   H15       1.0  0.2984000000000001  0.1257  0.2960999999999999  1.0000
  H   H16       1.0  0.09040000000000001  0.2201  0.2798999999999999  1.0000
  H   H17       1.0  0.054299999999999994  0.05820000000000008  0.6586999999999998  1.0000
  H   H18       1.0  0.2631  0.9699999999999999  0.6623  1.0000
  H   H19       1.0  0.9233000000000002  0.3814  0.2962  1.0000
  H   H20       1.0  0.7217000000000001  0.49679999999999996  0.307  1.0000
  H   H21       1.0  0.6603  0.223  0.6308  1.0000
  H   H22       1.0  0.859  0.09689999999999999  0.629  1.0000
  H   H23       1.0  0.3424  0.31539999999999996  0.022399999999999993  1.0000
  H   H24       1.0  0.1431  0.3081  0.0258  1.0000
  H   H25       1.0  0.03810000000000002  0.6938999999999999  0.9623  1.0000
  H   H26       1.0  0.2412  0.6914  0.9566999999999999  1.0000
  C   C1        1.0  0.5242000000000001  0.2164  0.2241  1.0000
  C   C2        1.0  0.4778000000000001  0.2787  0.3781  1.0000
  C   C3        1.0  0.4810000000000001  0.3877999999999999  0.26839999999999997  1.0000
  C   C4        1.0  0.44700000000000006  0.2566  0.5116  1.0000
  C   C5        1.0  0.4615  0.5316  0.2346  1.0000
  C   C6        1.0  0.7519  0.8859  0.6291999999999999  1.0000
  C   C7        1.0  0.8762  0.8288000000000001  0.6399  1.0000
  C   C8        1.0  0.9521000000000002  0.8438  0.5317999999999999  1.0000
  C   C9        1.0  0.8973  0.9238  0.4174999999999999  1.0000
  C   C10       1.0  0.7726  0.9764  0.4163  1.0000
  C   C11       1.0  0.08380000000000004  0.7741  0.5352999999999999  1.0000
  C   C12       1.0  0.12859999999999996  0.653  0.6332  1.0000
  C   C13       1.0  0.249  0.5845000000000001  0.6256  1.0000
  C   C14       1.0  0.2850000000000001  0.7440999999999999  0.4373999999999999  1.0000
  C   C15       1.0  0.16610000000000005  0.8199  0.43759999999999993  1.0000
  C   C16       1.0  0.7207000000000001  0.6061  0.9896  1.0000
  C   C17       1.0  0.8399000000000002  0.6115999999999999  0.9867  1.0000
  C   C18       1.0  0.9344  0.5  0.0022  1.0000
  C   C19       1.0  0.9007000000000001  0.3863  0.024299999999999995  1.0000
  C   C20       1.0  0.7792000000000001  0.38829999999999987  0.0271  1.0000
  C   C21       1.0  0.4758000000000002  0.7835999999999999  0.7758999999999999  1.0000
  C   C22       1.0  0.5222  0.7213  0.6219  1.0000
  C   C23       1.0  0.519  0.6122  0.7315999999999999  1.0000
  C   C24       1.0  0.553  0.7433999999999998  0.4884  1.0000
  C   C25       1.0  0.5385  0.4684  0.7654  1.0000
  C   C26       1.0  0.24810000000000004  0.11409999999999997  0.3708  1.0000
  C   C27       1.0  0.12380000000000004  0.17119999999999996  0.3601  1.0000
  C   C28       1.0  0.047900000000000005  0.1562  0.46819999999999995  1.0000
  C   C29       1.0  0.10269999999999999  0.07619999999999999  0.5825  1.0000
  C   C30       1.0  0.22740000000000002  0.023600000000000065  0.5836999999999999  1.0000
  C   C31       1.0  0.9162000000000002  0.2259  0.4647  1.0000
  C   C32       1.0  0.8714  0.347  0.3668  1.0000
  C   C33       1.0  0.7510000000000002  0.41550000000000004  0.3743999999999999  1.0000
  C   C34       1.0  0.7150000000000001  0.2559  0.5626  1.0000
  C   C35       1.0  0.8339000000000001  0.1801  0.5624  1.0000
  C   C36       1.0  0.27929999999999994  0.3939  0.0104  1.0000
  C   C37       1.0  0.16010000000000002  0.38839999999999997  0.0133  1.0000
  C   C38       1.0  0.06559999999999999  0.5  0.9978  1.0000
  C   C39       1.0  0.09930000000000003  0.6137  0.9757  1.0000
  C   C40       1.0  0.2208  0.6117  0.9729  1.0000
  N   N1        1.0  0.5058000000000001  0.1707  0.348  1.0000
  N   N2        1.0  0.5104  0.3466  0.1713  1.0000
  N   N3        1.0  0.6984000000000001  0.9562999999999999  0.5199  1.0000
  N   N4        1.0  0.3266  0.6262  0.5289  1.0000
  N   N5        1.0  0.6889  0.4985  0.0078  1.0000
  N   N6        1.0  0.4942  0.8292999999999999  0.652  1.0000
  N   N7        1.0  0.4896  0.6534  0.8287  1.0000
  N   N8        1.0  0.30160000000000003  0.04369999999999999  0.4800999999999999  1.0000
  N   N9        1.0  0.6734000000000002  0.3738  0.47109999999999996  1.0000
  N   N10       1.0  0.3111000000000001  0.5015  0.9921999999999999  1.0000
  O   O1        1.0  0.4149  0.35050000000000003  0.5468999999999999  1.0000
  O   O2        1.0  0.45260000000000006  0.13779999999999998  0.5859  1.0000
  O   O3        1.0  0.45720000000000005  0.5776000000000001  0.3144  1.0000
  O   O4        1.0  0.45150000000000023  0.6035  0.1188  1.0000
  O   O5        1.0  0.5851000000000002  0.6495  0.45309999999999995  1.0000
  O   O6        1.0  0.5474000000000002  0.8621999999999999  0.4140999999999999  1.0000
  O   O7        1.0  0.5428  0.42239999999999994  0.6855999999999999  1.0000
  O   O8        1.0  0.5485  0.39649999999999996  0.8811999999999999  1.0000
