data_image0
_chemical_formula_structural       Tb4H8C28N8O24
_chemical_formula_sum              "Tb4 H8 C28 N8 O24"
_cell_length_a       8.37822
_cell_length_b       9.17651
_cell_length_c       16.28973
_cell_angle_alpha    90.04772
_cell_angle_beta     89.88649
_cell_angle_gamma    97.68746

_space_group_name_H-M_alt    "P 1"
_space_group_IT_number       1

loop_
  _space_group_symop_operation_xyz
  'x, y, z'

loop_
  _atom_site_type_symbol
  _atom_site_label
  _atom_site_symmetry_multiplicity
  _atom_site_fract_x
  _atom_site_fract_y
  _atom_site_fract_z
  _atom_site_occupancy
  Tb  Tb1       1.0  0.96579  0.13181  0.33605  1.0000
  Tb  Tb2       1.0  0.53496  0.36947  0.83558  1.0000
  Tb  Tb3       1.0  0.03409  0.86851  0.66379  1.0000
  Tb  Tb4       1.0  0.46523  0.63203  0.16414  1.0000
  H   H1        1.0  0.96859  0.7155200000000002  0.38774  1.0000
  H   H2        1.0  0.62212  0.31349000000000005  0.25691  1.0000
  H   H3        1.0  0.53013  0.78764  0.88751  1.0000
  H   H4        1.0  0.87733  0.18925  0.75613  1.0000
  H   H5        1.0  0.03151000000000002  0.2844800000000001  0.61204  1.0000
  H   H6        1.0  0.37718  0.68673  0.74308  1.0000
  H   H7        1.0  0.46965000000000007  0.21331  0.11185  1.0000
  H   H8        1.0  0.12235  0.81185  0.24348  1.0000
  C   C1        1.0  0.91861  0.48206000000000004  0.36829  1.0000
  C   C2        1.0  0.71843  0.8024  0.28873  1.0000
  C   C3        1.0  0.88952  0.62734  0.3581799999999999  1.0000
  C   C4        1.0  0.76165  0.6517  0.30825  1.0000
  C   C5        1.0  0.06839  0.44934  0.41472  1.0000
  C   C6        1.0  0.69966  0.40319  0.28629  1.0000
  C   C7        1.0  0.91335  0.01612  0.5121  1.0000
  C   C8        1.0  0.58136  0.02122  0.86852  1.0000
  C   C9        1.0  0.78029  0.70046  0.78851  1.0000
  C   C10       1.0  0.6097  0.87582  0.85813  1.0000
  C   C11       1.0  0.73756  0.8512900000000002  0.80799  1.0000
  C   C12       1.0  0.43144  0.05426000000000002  0.91504  1.0000
  C   C13       1.0  0.80029  0.09954  0.7859  1.0000
  C   C14       1.0  0.5863100000000001  0.48514  0.01191  1.0000
  C   C15       1.0  0.08117  0.51799  0.6316  1.0000
  C   C16       1.0  0.28235  0.19778  0.70997  1.0000
  C   C17       1.0  0.11048  0.37278  0.6415599999999999  1.0000
  C   C18       1.0  0.23899  0.34861  0.69109  1.0000
  C   C19       1.0  0.93178  0.55081  0.58497  1.0000
  C   C20       1.0  0.30004  0.5969  0.71364  1.0000
  C   C21       1.0  0.08606000000000004  0.9839600000000001  0.4877  1.0000
  C   C22       1.0  0.41855  0.9798200000000001  0.13124  1.0000
  C   C23       1.0  0.21973  0.30042  0.21127  1.0000
  C   C24       1.0  0.39015000000000005  0.12524000000000002  0.14139  1.0000
  C   C25       1.0  0.26245  0.14972  0.19163  1.0000
  C   C26       1.0  0.56852  0.9468  0.08491  1.0000
  C   C27       1.0  0.19963  0.9014900000000001  0.21381  1.0000
  C   C28       1.0  0.41390999999999994  0.51834  0.9877799999999999  1.0000
  N   N1        1.0  0.82199  0.36925  0.33283  1.0000
  N   N2        1.0  0.666  0.53938  0.27177  1.0000
  N   N3        1.0  0.67838  0.13372  0.83294  1.0000
  N   N4        1.0  0.83362  0.9632600000000001  0.77132  1.0000
  N   N5        1.0  0.17755  0.63071  0.66722  1.0000
  N   N6        1.0  0.33446000000000004  0.46082000000000006  0.72775  1.0000
  N   N7        1.0  0.32167  0.8673200000000002  0.16689  1.0000
  N   N8        1.0  0.16642999999999997  0.03779  0.22834  1.0000
  O   O1        1.0  0.08744  0.31143  0.4165899999999999  1.0000
  O   O2        1.0  0.8260699999999999  0.91215  0.29776  1.0000
  O   O3        1.0  0.82749  0.060590000000000005  0.45627  1.0000
  O   O4        1.0  0.57796  0.80746  0.26188  1.0000
  O   O5        1.0  0.87268  0.99538  0.58691  1.0000
  O   O6        1.0  0.15779000000000004  0.5545100000000001  0.44411  1.0000
  O   O7        1.0  0.41238  0.19219  0.91676  1.0000
  O   O8        1.0  0.67227  0.59104  0.79751  1.0000
  O   O9        1.0  0.67234  0.4411400000000001  0.95574  1.0000
  O   O10       1.0  0.9212300000000001  0.6952800000000001  0.76204  1.0000
  O   O11       1.0  0.62638  0.50349  0.08688  1.0000
  O   O12       1.0  0.34169  0.9493100000000001  0.9444  1.0000
  O   O13       1.0  0.91266  0.6886800000000001  0.58324  1.0000
  O   O14       1.0  0.17494  0.08839  0.69908  1.0000
  O   O15       1.0  0.17148  0.9383600000000001  0.54334  1.0000
  O   O16       1.0  0.42185  0.19234  0.73796  1.0000
  O   O17       1.0  0.12721  0.00592  0.41303  1.0000
  O   O18       1.0  0.84254  0.4456  0.5555  1.0000
  O   O19       1.0  0.5877  0.8088800000000003  0.08323  1.0000
  O   O20       1.0  0.32752  0.41002  0.20222  1.0000
  O   O21       1.0  0.32822  0.5639  0.04364  1.0000
  O   O22       1.0  0.07884000000000001  0.3050600000000001  0.238  1.0000
  O   O23       1.0  0.37310000000000004  0.4966900000000001  0.91313  1.0000
  O   O24       1.0  0.65837  0.05161  0.05552  1.0000
