data_image0
_chemical_formula_structural       Li4H16C24N4O8
_chemical_formula_sum              "Li4 H16 C24 N4 O8"
_cell_length_a       4.52317
_cell_length_b       11.69963
_cell_length_c       13.972199999999999
_cell_angle_alpha    91.66014999999999
_cell_angle_beta     99.89359999999999
_cell_angle_gamma    93.50912

_space_group_name_H-M_alt    "P 1"
_space_group_IT_number       1

loop_
  _space_group_symop_operation_xyz
  'x, y, z'

loop_
  _atom_site_type_symbol
  _atom_site_label
  _atom_site_symmetry_multiplicity
  _atom_site_fract_x
  _atom_site_fract_y
  _atom_site_fract_z
  _atom_site_occupancy
  Li  Li1       1.0  0.6728300000000002  0.01546  0.92555  1.0000
  Li  Li2       1.0  0.2983100000000001  0.49870000000000003  0.56155  1.0000
  Li  Li3       1.0  0.32717  0.9845400000000002  0.07445  1.0000
  Li  Li4       1.0  0.70169  0.5013  0.43845  1.0000
  H   H1        1.0  0.09191999999999999  0.16429  0.63934  1.0000
  H   H2        1.0  0.95419  0.026520000000000002  0.76248  1.0000
  H   H3        1.0  0.33595  0.23858  0.84308  1.0000
  H   H4        1.0  0.42558  0.37853  0.71611  1.0000
  H   H5        1.0  0.6402200000000001  0.7286400000000001  0.89436  1.0000
  H   H6        1.0  0.6736399999999999  0.575  0.7653099999999999  1.0000
  H   H7        1.0  0.8897399999999999  0.67024  0.5975  1.0000
  H   H8        1.0  0.80844  0.8140500000000003  0.72507  1.0000
  H   H9        1.0  0.9080799999999998  0.83571  0.3606599999999999  1.0000
  H   H10       1.0  0.04580999999999998  0.97348  0.23752  1.0000
  H   H11       1.0  0.66405  0.76142  0.15692  1.0000
  H   H12       1.0  0.57442  0.62147  0.28389  1.0000
  H   H13       1.0  0.35978  0.27136  0.10564  1.0000
  H   H14       1.0  0.32636  0.425  0.23469  1.0000
  H   H15       1.0  0.11026000000000001  0.32976000000000005  0.4025  1.0000
  H   H16       1.0  0.19156  0.18595  0.27493  1.0000
  C   C1        1.0  0.8604999999999999  0.36716000000000004  0.5991099999999999  1.0000
  C   C2        1.0  0.77926  0.28615000000000007  0.67282  1.0000
  C   C3        1.0  0.93286  0.18492  0.68606  1.0000
  C   C4        1.0  0.84269  0.10571  0.75008  1.0000
  C   C5        1.0  0.48394999999999994  0.22077  0.79169  1.0000
  C   C6        1.0  0.55503  0.30344  0.7267  1.0000
  C   C7        1.0  0.18030000000000007  0.86144  0.90148  1.0000
  C   C8        1.0  0.20853000000000002  0.7729900000000001  0.82442  1.0000
  C   C9        1.0  0.46109999999999995  0.71055  0.83223  1.0000
  C   C10       1.0  0.49442  0.63355  0.75666  1.0000
  C   C11       1.0  0.04743000000000001  0.68248  0.66538  1.0000
  C   C12       1.0  0.99322  0.75852  0.7385699999999998  1.0000
  C   C13       1.0  0.1395  0.6328400000000001  0.40089  1.0000
  C   C14       1.0  0.22074000000000002  0.7138400000000001  0.32718  1.0000
  C   C15       1.0  0.06714000000000002  0.81508  0.31394  1.0000
  C   C16       1.0  0.15731000000000006  0.8942900000000003  0.24992  1.0000
  C   C17       1.0  0.5160500000000001  0.7792200000000001  0.20831  1.0000
  C   C18       1.0  0.44497  0.6965500000000002  0.2733  1.0000
  C   C19       1.0  0.8197  0.13856  0.09852  1.0000
  C   C20       1.0  0.79147  0.22701  0.17558000000000004  1.0000
  C   C21       1.0  0.5389  0.28945  0.16777  1.0000
  C   C22       1.0  0.50558  0.36645  0.24334  1.0000
  C   C23       1.0  0.95257  0.31752  0.33462  1.0000
  C   C24       1.0  0.006779999999999987  0.24148  0.26144  1.0000
  N   N1        1.0  0.62894  0.12232000000000003  0.8039399999999999  1.0000
  N   N2        1.0  0.28643  0.61836  0.67364  1.0000
  N   N3        1.0  0.37106  0.87768  0.19606  1.0000
  N   N4        1.0  0.71357  0.38164000000000003  0.32636  1.0000
  O   O1        1.0  0.08414999999999999  0.3435600000000001  0.5603  1.0000
  O   O2        1.0  0.70794  0.4552400000000001  0.57839  1.0000
  O   O3        1.0  0.9455199999999998  0.91663  0.8887999999999999  1.0000
  O   O4        1.0  0.40236  0.8780100000000001  0.97222  1.0000
  O   O5        1.0  0.9158500000000002  0.65644  0.4397  1.0000
  O   O6        1.0  0.29206000000000004  0.54476  0.42161  1.0000
  O   O7        1.0  0.054479999999999994  0.08337  0.1112  1.0000
  O   O8        1.0  0.5976399999999998  0.12199000000000003  0.02779  1.0000
