data_image0
_chemical_formula_structural       Cu8H16C32O32
_chemical_formula_sum              "Cu8 H16 C32 O32"
_cell_length_a       4.09249
_cell_length_b       17.838490000000004
_cell_length_c       17.85312
_cell_angle_alpha    89.07999
_cell_angle_beta     83.15
_cell_angle_gamma    83.35085

_space_group_name_H-M_alt    "P 1"
_space_group_IT_number       1

loop_
  _space_group_symop_operation_xyz
  'x, y, z'

loop_
  _atom_site_type_symbol
  _atom_site_label
  _atom_site_symmetry_multiplicity
  _atom_site_fract_x
  _atom_site_fract_y
  _atom_site_fract_z
  _atom_site_occupancy
  Cu  Cu1       1.0  0.29359  0.02901  0.74816  1.0000
  Cu  Cu2       1.0  0.0792700000000002  0.4749399999999999  0.7528899999999997  1.0000
  Cu  Cu3       1.0  0.8279099999999999  0.74827  0.47108999999999995  1.0000
  Cu  Cu4       1.0  0.05389999999999999  0.7533  0.028689999999999997  1.0000
  Cu  Cu5       1.0  0.7064200000000003  0.9710000000000001  0.25184  1.0000
  Cu  Cu6       1.0  0.9207399999999999  0.52506  0.24711  1.0000
  Cu  Cu7       1.0  0.17209999999999998  0.25173  0.52891  1.0000
  Cu  Cu8       1.0  0.9461099999999998  0.24669999999999997  0.97131  1.0000
  H   H1        1.0  0.8604899999999995  0.9521900000000001  0.93174  1.0000
  H   H2        1.0  0.12842999999999993  0.95597  0.9762  1.0000
  H   H3        1.0  0.7461099999999997  0.54876  0.56614  1.0000
  H   H4        1.0  0.061320000000000006  0.54266  0.5252  1.0000
  H   H5        1.0  0.31342000000000014  0.93254  0.54777  1.0000
  H   H6        1.0  0.5859600000000001  0.9746999999999999  0.5429  1.0000
  H   H7        1.0  0.7942400000000001  0.56732  0.95216  1.0000
  H   H8        1.0  0.10411000000000006  0.52595  0.9573699999999999  1.0000
  H   H9        1.0  0.13952  0.04781  0.06826  1.0000
  H   H10       1.0  0.8715899999999998  0.04403  0.023809999999999994  1.0000
  H   H11       1.0  0.25389999999999985  0.45124  0.43386  1.0000
  H   H12       1.0  0.9386899999999999  0.45733  0.47479999999999994  1.0000
  H   H13       1.0  0.68659  0.06745  0.45223  1.0000
  H   H14       1.0  0.41405999999999993  0.0253  0.4571  1.0000
  H   H15       1.0  0.20577000000000006  0.4326799999999999  0.04784  1.0000
  H   H16       1.0  0.8959  0.47404999999999997  0.04263  1.0000
  C   C1        1.0  0.49094  0.0049  0.86855  1.0000
  C   C2        1.0  0.61255  0.9860199999999999  0.94296  1.0000
  C   C3        1.0  0.3733600000000002  0.9501399999999999  0.99793  1.0000
  C   C4        1.0  0.4442499999999999  0.86888  0.020399999999999995  1.0000
  C   C5        1.0  0.3657100000000001  0.49766999999999995  0.6316299999999998  1.0000
  C   C6        1.0  0.54239  0.51471  0.55646  1.0000
  C   C7        1.0  0.3208500000000001  0.54992  0.5021599999999998  1.0000
  C   C8        1.0  0.32303  0.6318  0.48024999999999995  1.0000
  C   C9        1.0  0.99882  0.86869  0.49524999999999997  1.0000
  C   C10       1.0  0.09966  0.94325  0.51404  1.0000
  C   C11       1.0  0.82254  0.99729  0.5499  1.0000
  C   C12       1.0  0.80277  0.01908  0.63164  1.0000
  C   C13       1.0  0.36378999999999995  0.63207  0.005029999999999999  1.0000
  C   C14       1.0  0.55668  0.5570099999999999  0.98644  1.0000
  C   C15       1.0  0.37103000000000014  0.50331  0.9504099999999999  1.0000
  C   C16       1.0  0.4617199999999999  0.4826500000000001  0.86876  1.0000
  C   C17       1.0  0.50908  0.9951  0.13145  1.0000
  C   C18       1.0  0.38746  0.013980000000000001  0.057039999999999993  1.0000
  C   C19       1.0  0.62665  0.04986  0.00207  1.0000
  C   C20       1.0  0.5557700000000001  0.13112  0.9796  1.0000
  C   C21       1.0  0.6343000000000001  0.50233  0.3683699999999999  1.0000
  C   C22       1.0  0.4576300000000001  0.48528  0.4435399999999999  1.0000
  C   C23       1.0  0.67916  0.45008  0.49783999999999995  1.0000
  C   C24       1.0  0.6769800000000001  0.3682  0.51975  1.0000
  C   C25       1.0  0.00119000000000016  0.13131  0.5047499999999998  1.0000
  C   C26       1.0  0.90035  0.056749999999999995  0.48596  1.0000
  C   C27       1.0  0.17747  0.0027099999999999993  0.4501  1.0000
  C   C28       1.0  0.19724  0.98093  0.36836  1.0000
  C   C29       1.0  0.63622  0.36793  0.9949699999999999  1.0000
  C   C30       1.0  0.44332999999999984  0.44299  0.01356  1.0000
  C   C31       1.0  0.62898  0.49668999999999996  0.04959  1.0000
  C   C32       1.0  0.5382900000000002  0.5173499999999999  0.13124  1.0000
  O   O1        1.0  0.25039999999999996  0.9728900000000001  0.84812  1.0000
  O   O2        1.0  0.6190900000000001  0.05190000000000001  0.8224499999999999  1.0000
  O   O3        1.0  0.20935999999999996  0.84412  0.06435  1.0000
  O   O4        1.0  0.71916  0.83324  0.99279  1.0000
  O   O5        1.0  0.07278999999999992  0.53017  0.65252  1.0000
  O   O6        1.0  0.49594999999999995  0.45133  0.67785  1.0000
  O   O7        1.0  0.10389999999999999  0.65566  0.43709  1.0000
  O   O8        1.0  0.5280300000000001  0.66906  0.50775  1.0000
  O   O9        1.0  0.72539  0.84778  0.52691  1.0000
  O   O10       1.0  0.17671000000000006  0.82298  0.44852  1.0000
  O   O11       1.0  0.5394500000000002  0.062180000000000006  0.6554499999999998  1.0000
  O   O12       1.0  0.03684  0.99195  0.66871  1.0000
  O   O13       1.0  0.10301000000000002  0.65392  0.97318  1.0000
  O   O14       1.0  0.45045  0.6777  0.05125  1.0000
  O   O15       1.0  0.27031000000000016  0.43939  0.8438499999999998  1.0000
  O   O16       1.0  0.7079099999999997  0.51092  0.83315  1.0000
  O   O17       1.0  0.74961  0.02711  0.15188  1.0000
  O   O18       1.0  0.38092000000000004  0.9480999999999999  0.17754999999999996  1.0000
  O   O19       1.0  0.79066  0.15588  0.93565  1.0000
  O   O20       1.0  0.28085  0.16676  0.007209999999999999  1.0000
  O   O21       1.0  0.9272300000000001  0.46982999999999997  0.34748  1.0000
  O   O22       1.0  0.5040600000000001  0.5486699999999999  0.32215  1.0000
  O   O23       1.0  0.8961199999999999  0.34434  0.5629099999999998  1.0000
  O   O24       1.0  0.47197999999999996  0.33094  0.49225  1.0000
  O   O25       1.0  0.2746199999999999  0.15221999999999997  0.4731  1.0000
  O   O26       1.0  0.8233100000000001  0.17702  0.55148  1.0000
  O   O27       1.0  0.46056000000000014  0.93782  0.34455  1.0000
  O   O28       1.0  0.9631699999999999  0.00805  0.33129  1.0000
  O   O29       1.0  0.8970000000000001  0.34608000000000005  0.026819999999999993  1.0000
  O   O30       1.0  0.5495700000000001  0.3223  0.9487499999999999  1.0000
  O   O31       1.0  0.7297000000000001  0.56061  0.15615  1.0000
  O   O32       1.0  0.29208999999999996  0.48908000000000007  0.16685  1.0000
