data_image0
_chemical_formula_structural       Dy2Cu2H16C32N10O16
_chemical_formula_sum              "Dy2 Cu2 H16 C32 N10 O16"
_cell_length_a       10.85719
_cell_length_b       10.73706
_cell_length_c       12.07662
_cell_angle_alpha    69.85593999999999
_cell_angle_beta     77.47942
_cell_angle_gamma    60.544509999999995

_space_group_name_H-M_alt    "P 1"
_space_group_IT_number       1

loop_
  _space_group_symop_operation_xyz
  'x, y, z'

loop_
  _atom_site_type_symbol
  _atom_site_label
  _atom_site_symmetry_multiplicity
  _atom_site_fract_x
  _atom_site_fract_y
  _atom_site_fract_z
  _atom_site_occupancy
  Dy  Dy1       1.0  0.54086  0.99168  0.16276  1.0000
  Dy  Dy2       1.0  0.4603100000000001  0.008860000000000012  0.83658  1.0000
  Cu  Cu1       1.0  0.0017900000000000064  0.0012699999999999639  0.9988700000000001  1.0000
  Cu  Cu2       1.0  0.9998099999999998  0.99983  0.50054  1.0000
  H   H1        1.0  0.022389999999999976  0.25804000000000005  0.52436  1.0000
  H   H2        1.0  0.91316  0.53791  0.43258000000000013  1.0000
  H   H3        1.0  0.6810200000000001  0.4891199999999999  0.21796000000000001  1.0000
  H   H4        1.0  0.7909999999999999  0.21273  0.32228  1.0000
  H   H5        1.0  0.9848399999999999  0.73359  0.18499  1.0000
  H   H6        1.0  0.12969  0.45377  0.22951000000000002  1.0000
  H   H7        1.0  0.4090399999999998  0.5233300000000002  0.92965  1.0000
  H   H8        1.0  0.25327  0.7988199999999999  0.89428  1.0000
  H   H9        1.0  0.97805  0.7410199999999999  0.47564  1.0000
  H   H10       1.0  0.08675999999999995  0.46140999999999993  0.5675900000000001  1.0000
  H   H11       1.0  0.31910999999999995  0.5101999999999999  0.7823000000000002  1.0000
  H   H12       1.0  0.20951999999999996  0.7862  0.67783  1.0000
  H   H13       1.0  0.014520000000000009  0.26968  0.81424  1.0000
  H   H14       1.0  0.86934  0.54867  0.76958  1.0000
  H   H15       1.0  0.59028  0.478  0.06981  1.0000
  H   H16       1.0  0.7469299999999999  0.20277999999999996  0.10516000000000002  1.0000
  C   C1        1.0  0.17862  0.97624  0.28274000000000005  1.0000
  C   C2        1.0  0.17445  0.98772  0.16431  1.0000
  C   C3        1.0  0.28032000000000007  0.96386  0.35757  1.0000
  C   C4        1.0  0.26424  0.00256  0.0553  1.0000
  C   C5        1.0  0.9453299999999998  0.31435  0.45698  1.0000
  C   C6        1.0  0.8863399999999998  0.46782  0.4055  1.0000
  C   C7        1.0  0.79068  0.5320200000000002  0.31737000000000004  1.0000
  C   C8        1.0  0.7554999999999997  0.43998000000000004  0.28615  1.0000
  C   C9        1.0  0.81608  0.2885  0.34290000000000004  1.0000
  C   C10       1.0  0.7215  0.69634  0.2568  1.0000
  C   C11       1.0  0.07824999999999993  0.6821800000000001  0.12983  1.0000
  C   C12       1.0  0.158  0.52848  0.15427  1.0000
  C   C13       1.0  0.27910999999999997  0.46874000000000005  0.08181  1.0000
  C   C14       1.0  0.31436999999999987  0.5663399999999997  0.9861600000000003  1.0000
  C   C15       1.0  0.22896  0.71855  0.9663600000000002  1.0000
  C   C16       1.0  0.37197  0.30334  0.11088  1.0000
  C   C17       1.0  0.8218099999999999  0.022119999999999935  0.7186500000000002  1.0000
  C   C18       1.0  0.8257100000000002  0.011220000000000003  0.83699  1.0000
  C   C19       1.0  0.7200499999999999  0.03513999999999998  0.64355  1.0000
  C   C20       1.0  0.7352499999999998  0.9963400000000001  0.9450500000000002  1.0000
  C   C21       1.0  0.05500000000000002  0.68483  0.54311  1.0000
  C   C22       1.0  0.11372999999999996  0.53141  0.5946500000000001  1.0000
  C   C23       1.0  0.20957999999999993  0.46714  0.6827  1.0000
  C   C24       1.0  0.24466000000000004  0.55913  0.71407  1.0000
  C   C25       1.0  0.18426000000000006  0.71055  0.65727  1.0000
  C   C26       1.0  0.27915000000000006  0.30275  0.74264  1.0000
  C   C27       1.0  0.92104  0.32073000000000007  0.8694300000000003  1.0000
  C   C28       1.0  0.8405999999999999  0.47430000000000005  0.84487  1.0000
  C   C29       1.0  0.71931  0.5334399999999999  0.9174100000000001  1.0000
  C   C30       1.0  0.68479  0.43527  0.01306  1.0000
  C   C31       1.0  0.77096  0.28317  0.03295  1.0000
  C   C32       1.0  0.6257199999999999  0.69863  0.88835  1.0000
  N   N1        1.0  0.05533000000000002  0.97514  0.33653000000000005  1.0000
  N   N2        1.0  0.97755  0.9833600000000001  0.25964  1.0000
  N   N3        1.0  0.049490000000000055  0.99122  0.15527  1.0000
  N   N4        1.0  0.91028  0.22665000000000002  0.42635  1.0000
  N   N5        1.0  0.11341999999999999  0.77545  0.03691  1.0000
  N   N6        1.0  0.9445799999999999  0.024290000000000013  0.66447  1.0000
  N   N7        1.0  0.021850000000000005  0.017349999999999983  0.74088  1.0000
  N   N8        1.0  0.95011  0.00944000000000001  0.84541  1.0000
  N   N9        1.0  0.09015999999999977  0.7725100000000004  0.57369  1.0000
  N   N10       1.0  0.8868099999999999  0.22674999999999992  0.9624600000000002  1.0000
  O   O1        1.0  0.23157000000000003  0.9868600000000001  0.45665  1.0000
  O   O2        1.0  0.40991999999999984  0.9247400000000001  0.31700000000000006  1.0000
  O   O3        1.0  0.38089999999999996  0.00653  0.05517  1.0000
  O   O4        1.0  0.22526  0.013549999999999923  0.9589200000000002  1.0000
  O   O5        1.0  0.7342299999999999  0.7874200000000003  0.2932100000000001  1.0000
  O   O6        1.0  0.6480699999999999  0.73917  0.16900000000000004  1.0000
  O   O7        1.0  0.49018999999999996  0.25117  0.05184  1.0000
  O   O8        1.0  0.33277  0.21882  0.1966  1.0000
  O   O9        1.0  0.7683100000000003  0.012259999999999984  0.54414  1.0000
  O   O10       1.0  0.59054  0.07534  0.68369  1.0000
  O   O11       1.0  0.6185399999999998  0.99244  0.9444300000000001  1.0000
  O   O12       1.0  0.77217  0.9853600000000001  0.04262  1.0000
  O   O13       1.0  0.26558999999999994  0.21194000000000005  0.70681  1.0000
  O   O14       1.0  0.35438  0.25991999999999993  0.8294300000000001  1.0000
  O   O15       1.0  0.5065699999999996  0.7508500000000001  0.94628  1.0000
  O   O16       1.0  0.6657799999999998  0.7831700000000003  0.80368  1.0000
