data_image0
_chemical_formula_structural       Sr2Ni2H20C28N4O20
_chemical_formula_sum              "Sr2 Ni2 H20 C28 N4 O20"
_cell_length_a       8.5069
_cell_length_b       11.647619999999998
_cell_length_c       11.64782
_cell_angle_alpha    73.70589999999999
_cell_angle_beta     75.57355
_cell_angle_gamma    75.51121

_space_group_name_H-M_alt    "P 1"
_space_group_IT_number       1

loop_
  _space_group_symop_operation_xyz
  'x, y, z'

loop_
  _atom_site_type_symbol
  _atom_site_label
  _atom_site_symmetry_multiplicity
  _atom_site_fract_x
  _atom_site_fract_y
  _atom_site_fract_z
  _atom_site_occupancy
  Sr  Sr1       1.0  0.24982000000000001  0.52758  0.47306  1.0000
  Sr  Sr2       1.0  0.7497  0.47516  0.5252  1.0000
  Ni  Ni1       1.0  0.0031400000000000486  0.4992799999999999  0.99984  1.0000
  Ni  Ni2       1.0  0.49713  0.0008600000000000078  0.50083  1.0000
  H   H1        1.0  0.5444799999999999  0.7196899999999999  0.42913  1.0000
  H   H2        1.0  0.55624  0.66525  0.31489  1.0000
  H   H3        1.0  0.44571000000000005  0.70032  0.7439599999999998  1.0000
  H   H4        1.0  0.5564199999999996  0.73009  0.91744  1.0000
  H   H5        1.0  0.19318000000000005  0.53809  0.16929  1.0000
  H   H6        1.0  0.9564000000000001  0.5707  0.28313  1.0000
  H   H7        1.0  0.94283  0.6851099999999999  0.33802  1.0000
  H   H8        1.0  0.05359999999999998  0.25614  0.29982  1.0000
  H   H9        1.0  0.9426799999999999  0.08246000000000002  0.27124  1.0000
  H   H10       1.0  0.30767000000000005  0.83122  0.46284999999999993  1.0000
  H   H11       1.0  0.45276  0.28497999999999996  0.57183  1.0000
  H   H12       1.0  0.44283000000000006  0.3405899999999999  0.68463  1.0000
  H   H13       1.0  0.55585  0.30221  0.25497  1.0000
  H   H14       1.0  0.44479  0.27329  0.08076  1.0000
  H   H15       1.0  0.8123099999999999  0.46138  0.82982  1.0000
  H   H16       1.0  0.04725999999999998  0.42879  0.7149  1.0000
  H   H17       1.0  0.05613999999999996  0.31555000000000005  0.66035  1.0000
  H   H18       1.0  0.9448999999999997  0.74499  0.69823  1.0000
  H   H19       1.0  0.05555999999999996  0.91892  0.72739  1.0000
  H   H20       1.0  0.68779  0.17025  0.53912  1.0000
  C   C1        1.0  0.2601800000000002  0.6097999999999998  0.86817  1.0000
  C   C2        1.0  0.3919000000000001  0.66983  0.83957  1.0000
  C   C3        1.0  0.4527900000000003  0.68447  0.93465  1.0000
  C   C4        1.0  0.38305000000000006  0.6347  0.05488  1.0000
  C   C5        1.0  0.24791  0.57818  0.0766  1.0000
  C   C6        1.0  0.19053000000000003  0.5770499999999998  0.7792  1.0000
  C   C7        1.0  0.44986  0.62992  0.16589  1.0000
  C   C8        1.0  0.23997  0.1324  0.3902  1.0000
  C   C9        1.0  0.10788000000000005  0.1606  0.33051  1.0000
  C   C10       1.0  0.04682000000000001  0.0653  0.31647  1.0000
  C   C11       1.0  0.11654000000000005  0.94512  0.36685  1.0000
  C   C12       1.0  0.25260999999999995  0.92379  0.42246  1.0000
  C   C13       1.0  0.30932  0.22152  0.42295  1.0000
  C   C14       1.0  0.048730000000000044  0.83381  0.37389999999999995  1.0000
  C   C15       1.0  0.7435200000000001  0.39056  0.13095  1.0000
  C   C16       1.0  0.6105700000000001  0.3318  0.15938  1.0000
  C   C17       1.0  0.54968  0.31748  0.06417  1.0000
  C   C18       1.0  0.6204599999999999  0.3666400000000001  0.9441099999999999  1.0000
  C   C19       1.0  0.7569200000000001  0.42178  0.92251  1.0000
  C   C20       1.0  0.8131900000000003  0.42224  0.22048999999999996  1.0000
  C   C21       1.0  0.5527500000000001  0.37250999999999995  0.83331  1.0000
  C   C22       1.0  0.7565  0.86909  0.61015  1.0000
  C   C23       1.0  0.88973  0.84058  0.6688  1.0000
  C   C24       1.0  0.9505599999999991  0.9357800000000001  0.68315  1.0000
  C   C25       1.0  0.8793500000000001  0.05587999999999999  0.63409  1.0000
  C   C26       1.0  0.7430200000000001  0.07748999999999999  0.57876  1.0000
  C   C27       1.0  0.6867299999999998  0.7798  0.57831  1.0000
  C   C28       1.0  0.9456599999999998  0.16709  0.6286  1.0000
  N   N1        1.0  0.18633999999999995  0.56798  0.98548  1.0000
  N   N2        1.0  0.3142400000000001  0.015120000000000015  0.4320399999999999  1.0000
  N   N3        1.0  0.81869  0.43148  0.01379  1.0000
  N   N4        1.0  0.68132  0.9863000000000001  0.56903  1.0000
  O   O1        1.0  0.06400999999999991  0.5214700000000002  0.83009  1.0000
  O   O2        1.0  0.24661000000000008  0.59999  0.66814  1.0000
  O   O3        1.0  0.5589899999999999  0.68995  0.15545  1.0000
  O   O4        1.0  0.38803  0.55934  0.26254  1.0000
  O   O5        1.0  0.5396399999999999  0.64576  0.40641  1.0000
  O   O6        1.0  0.43583  0.17059  0.4787  1.0000
  O   O7        1.0  0.2530200000000001  0.33264  0.39997  1.0000
  O   O8        1.0  0.9384400000000002  0.84341  0.31496  1.0000
  O   O9        1.0  0.11084999999999999  0.7379  0.44538  1.0000
  O   O10       1.0  0.96061  0.59341  0.35716  1.0000
  O   O11       1.0  0.94274  0.47483  0.17049  1.0000
  O   O12       1.0  0.7543899999999999  0.40062  0.33119  1.0000
  O   O13       1.0  0.43900000000000017  0.31636999999999993  0.84434  1.0000
  O   O14       1.0  0.61847  0.4405  0.73642  1.0000
  O   O15       1.0  0.45968000000000003  0.35911  0.59311  1.0000
  O   O16       1.0  0.5574  0.83027  0.52533  1.0000
  O   O17       1.0  0.74527  0.6689900000000002  0.59993  1.0000
  O   O18       1.0  0.05691  0.15706  0.68665  1.0000
  O   O19       1.0  0.88136  0.26353  0.55911  1.0000
  O   O20       1.0  0.04031  0.40715999999999997  0.64097  1.0000
