data_image0
_chemical_formula_structural       Gd8H4C4S10O48
_chemical_formula_sum              "Gd8 H4 C4 S10 O48"
_cell_length_a       9.75669
_cell_length_b       11.36235
_cell_length_c       11.36242
_cell_angle_alpha    69.01854
_cell_angle_beta     89.36430999999999
_cell_angle_gamma    89.3643

_space_group_name_H-M_alt    "P 1"
_space_group_IT_number       1

loop_
  _space_group_symop_operation_xyz
  'x, y, z'

loop_
  _atom_site_type_symbol
  _atom_site_label
  _atom_site_symmetry_multiplicity
  _atom_site_fract_x
  _atom_site_fract_y
  _atom_site_fract_z
  _atom_site_occupancy
  Gd  Gd1       1.0  0.10584000000000002  0.0006000000000000019  0.34217  1.0000
  Gd  Gd2       1.0  0.003179999999999998  0.5198100000000001  0.22949  1.0000
  Gd  Gd3       1.0  0.39416  0.6578300000000001  0.9994  1.0000
  Gd  Gd4       1.0  0.49682  0.7705100000000001  0.48019  1.0000
  Gd  Gd5       1.0  0.89416  0.9994  0.65783  1.0000
  Gd  Gd6       1.0  0.99682  0.48019  0.77051  1.0000
  Gd  Gd7       1.0  0.60584  0.34217000000000003  0.00061  1.0000
  Gd  Gd8       1.0  0.50318  0.22949000000000008  0.51982  1.0000
  H   H1        1.0  0.25603  0.8241300000000001  0.69413  1.0000
  H   H2        1.0  0.24395999999999998  0.30587  0.17586  1.0000
  H   H3        1.0  0.74397  0.17586000000000004  0.30587  1.0000
  H   H4        1.0  0.75604  0.6941200000000002  0.82415  1.0000
  C   C1        1.0  0.21692  0.87414  0.59893  1.0000
  C   C2        1.0  0.28307  0.40107  0.12586  1.0000
  C   C3        1.0  0.78308  0.12586  0.4010699999999999  1.0000
  C   C4        1.0  0.71693  0.59893  0.87414  1.0000
  S   S1        1.0  0.96224  0.2711700000000001  0.09527  1.0000
  S   S2        1.0  0.86341  0.7530100000000002  0.51571  1.0000
  S   S3        1.0  0.53777  0.9047300000000003  0.72883  1.0000
  S   S4        1.0  0.6366  0.4843000000000001  0.247  1.0000
  S   S5        1.0  0.03776000000000001  0.72883  0.90474  1.0000
  S   S6        1.0  0.13659  0.24699000000000013  0.4843  1.0000
  S   S7        1.0  0.46223  0.09527000000000001  0.27117  1.0000
  S   S8        1.0  0.36341  0.5157000000000003  0.75301  1.0000
  S   S9        1.0  0.25  0.7573900000000001  0.24261  1.0000
  S   S10       1.0  0.75001  0.2426100000000001  0.75739  1.0000
  O   O1        1.0  0.72767  0.7334400000000001  0.46362  1.0000
  O   O2        1.0  0.10398  0.93389  0.58309  1.0000
  O   O3        1.0  0.95748  0.8236000000000001  0.41034999999999994  1.0000
  O   O4        1.0  0.03623  0.14890000000000006  0.15473999999999996  1.0000
  O   O5        1.0  0.96512  0.34491  0.18182  1.0000
  O   O6        1.0  0.28375  0.8715700000000001  0.50218  1.0000
  O   O7        1.0  0.81876  0.24491  0.07224  1.0000
  O   O8        1.0  0.034960000000000005  0.34533  0.97451  1.0000
  O   O9        1.0  0.14955  0.6507300000000003  0.27399  1.0000
  O   O10       1.0  0.92482  0.62502  0.58385  1.0000
  O   O11       1.0  0.17334  0.87539  0.22775999999999996  1.0000
  O   O12       1.0  0.8397800000000001  0.8203500000000002  0.60575  1.0000
  O   O13       1.0  0.77234  0.5363800000000001  0.2665699999999999  1.0000
  O   O14       1.0  0.39603  0.41691  0.06611  1.0000
  O   O15       1.0  0.54252  0.58965  0.1764  1.0000
  O   O16       1.0  0.46377  0.84526  0.85111  1.0000
  O   O17       1.0  0.53488  0.81817  0.6551  1.0000
  O   O18       1.0  0.21625000000000003  0.4978400000000001  0.12841  1.0000
  O   O19       1.0  0.68124  0.92776  0.75509  1.0000
  O   O20       1.0  0.46504  0.02548000000000001  0.6546599999999999  1.0000
  O   O21       1.0  0.35046  0.7260100000000003  0.34927  1.0000
  O   O22       1.0  0.57518  0.41616000000000003  0.37498  1.0000
  O   O23       1.0  0.32667  0.7722400000000001  0.12459999999999999  1.0000
  O   O24       1.0  0.66023  0.39425  0.17965  1.0000
  O   O25       1.0  0.27234  0.26656000000000013  0.53638  1.0000
  O   O26       1.0  0.89602  0.06611000000000003  0.41691  1.0000
  O   O27       1.0  0.04252  0.17639000000000002  0.58965  1.0000
  O   O28       1.0  0.96377  0.8511  0.84526  1.0000
  O   O29       1.0  0.03488  0.65509  0.81819  1.0000
  O   O30       1.0  0.71625  0.12843000000000002  0.49783  1.0000
  O   O31       1.0  0.18123999999999996  0.7550900000000003  0.92776  1.0000
  O   O32       1.0  0.9650400000000001  0.6546700000000001  0.02549  1.0000
  O   O33       1.0  0.85046  0.34927  0.72602  1.0000
  O   O34       1.0  0.07518  0.37498  0.4161599999999999  1.0000
  O   O35       1.0  0.8266700000000001  0.12461000000000003  0.77224  1.0000
  O   O36       1.0  0.16021999999999997  0.17965000000000003  0.39426  1.0000
  O   O37       1.0  0.22767  0.46362000000000003  0.73344  1.0000
  O   O38       1.0  0.60397  0.5830900000000001  0.9338999999999998  1.0000
  O   O39       1.0  0.45748000000000005  0.4103500000000002  0.82361  1.0000
  O   O40       1.0  0.53623  0.15474  0.1489  1.0000
  O   O41       1.0  0.46512  0.18183000000000002  0.3449  1.0000
  O   O42       1.0  0.78375  0.5021600000000002  0.8715999999999999  1.0000
  O   O43       1.0  0.31877  0.07224  0.24491999999999997  1.0000
  O   O44       1.0  0.53496  0.9745200000000003  0.34534  1.0000
  O   O45       1.0  0.64954  0.27399  0.65073  1.0000
  O   O46       1.0  0.42482  0.58384  0.62502  1.0000
  O   O47       1.0  0.67334  0.22776  0.8754  1.0000
  O   O48       1.0  0.33978  0.60574  0.82035  1.0000
