data_image0
_chemical_formula_structural       Ni2H22C36N4O9
_chemical_formula_sum              "Ni2 H22 C36 N4 O9"
_cell_length_a       7.84806
_cell_length_b       11.16051
_cell_length_c       13.031599999999997
_cell_angle_alpha    103.88936
_cell_angle_beta     107.94342
_cell_angle_gamma    90.06007000000001

_space_group_name_H-M_alt    "P 1"
_space_group_IT_number       1

loop_
  _space_group_symop_operation_xyz
  'x, y, z'

loop_
  _atom_site_type_symbol
  _atom_site_label
  _atom_site_symmetry_multiplicity
  _atom_site_fract_x
  _atom_site_fract_y
  _atom_site_fract_z
  _atom_site_occupancy
  Ni  Ni1       1.0  0.1380100000000001  0.5604400000000002  0.6183000000000001  1.0000
  Ni  Ni2       1.0  0.5195800000000003  0.43986  0.38183  1.0000
  H   H1        1.0  0.6697500000000002  0.29469  0.64505  1.0000
  H   H2        1.0  0.7341100000000004  0.19321000000000005  0.8029800000000001  1.0000
  H   H3        1.0  0.6485  0.29510000000000003  0.9730700000000001  1.0000
  H   H4        1.0  0.10502000000000014  0.4252  0.7806500000000002  1.0000
  H   H5        1.0  0.11656000000000004  0.20765  0.79903  1.0000
  H   H6        1.0  0.11992000000000005  0.09665000000000001  0.4576  1.0000
  H   H7        1.0  0.10827000000000003  0.31957  0.45511000000000007  1.0000
  H   H8        1.0  0.2689100000000001  0.72745  0.51575  1.0000
  H   H9        1.0  0.2849300000000001  0.9525000000000001  0.52042  1.0000
  H   H10       1.0  0.9778200000000004  0.00848000000000001  0.75001  1.0000
  H   H11       1.0  0.9903000000000003  0.78302  0.74292  1.0000
  H   H12       1.0  0.02469  0.7059  0.35757  1.0000
  H   H13       1.0  0.9313300000000002  0.80496  0.19779000000000002  1.0000
  H   H14       1.0  0.67692  0.70003  0.025990000000000003  1.0000
  H   H15       1.0  0.32192  0.57491  0.21858  1.0000
  H   H16       1.0  0.31636  0.7926700000000001  0.20052000000000003  1.0000
  H   H17       1.0  0.6622600000000002  0.9035800000000002  0.54356  1.0000
  H   H18       1.0  0.6521500000000002  0.6805799999999999  0.54579  1.0000
  H   H19       1.0  0.7547300000000002  0.27344  0.48654  1.0000
  H   H20       1.0  0.7654200000000001  0.04826000000000001  0.4817000000000001  1.0000
  H   H21       1.0  0.22527000000000003  0.99157  0.24965000000000007  1.0000
  H   H22       1.0  0.2458  0.2171  0.25678  1.0000
  C   C1        1.0  0.53724  0.44511  0.9051100000000001  1.0000
  C   C2        1.0  0.4942100000000002  0.50215  0.81617  1.0000
  C   C3        1.0  0.54497  0.44503  0.7218200000000001  1.0000
  C   C4        1.0  0.63291  0.3352700000000002  0.7188800000000002  1.0000
  C   C5        1.0  0.66941  0.27961  0.8072  1.0000
  C   C6        1.0  0.6222  0.33503  0.90158  1.0000
  C   C7        1.0  0.40273  0.6229  0.82801  1.0000
  C   C8        1.0  0.5079200000000003  0.49515  0.62134  1.0000
  C   C9        1.0  0.1059500000000001  0.34838  0.71134  1.0000
  C   C10       1.0  0.11217000000000003  0.22651  0.72013  1.0000
  C   C11       1.0  0.11956000000000001  0.13174999999999998  0.62915  1.0000
  C   C12       1.0  0.11844000000000007  0.16592  0.53187  1.0000
  C   C13       1.0  0.11135000000000007  0.2894300000000001  0.5290500000000001  1.0000
  C   C14       1.0  0.20592  0.79387  0.56545  1.0000
  C   C15       1.0  0.21235000000000012  0.9189900000000001  0.56819  1.0000
  C   C16       1.0  0.12607  0.00022999999999998724  0.63253  1.0000
  C   C17       1.0  0.04483000000000001  0.9503300000000001  0.69698  1.0000
  C   C18       1.0  0.04774000000000014  0.8241700000000001  0.6919600000000002  1.0000
  C   C19       1.0  0.6308600000000002  0.55211  0.09515000000000001  1.0000
  C   C20       1.0  0.67559  0.49701  0.18529  1.0000
  C   C21       1.0  0.8214600000000003  0.55512  0.28016  1.0000
  C   C22       1.0  0.9131800000000002  0.66475  0.2833  1.0000
  C   C23       1.0  0.86191  0.7187800000000001  0.19394000000000003  1.0000
  C   C24       1.0  0.7208200000000002  0.6616600000000001  0.09852000000000001  1.0000
  C   C25       1.0  0.5715700000000002  0.37655000000000005  0.17374000000000003  1.0000
  C   C26       1.0  0.8872500000000002  0.50607  0.3809100000000001  1.0000
  C   C27       1.0  0.3927600000000001  0.6517600000000001  0.28829  1.0000
  C   C28       1.0  0.3907000000000001  0.77372  0.27971  1.0000
  C   C29       1.0  0.48962000000000006  0.8685200000000001  0.37129  1.0000
  C   C30       1.0  0.5858900000000004  0.8343  0.46893000000000007  1.0000
  C   C31       1.0  0.58124  0.7107200000000001  0.47155  1.0000
  C   C32       1.0  0.64123  0.20680000000000007  0.43617  1.0000
  C   C33       1.0  0.6444600000000003  0.08169000000000004  0.4334600000000001  1.0000
  C   C34       1.0  0.49286000000000024  0.00015000000000001416  0.36822000000000005  1.0000
  C   C35       1.0  0.3462300000000001  0.04986  0.30326  1.0000
  C   C36       1.0  0.3546600000000001  0.176  0.30822  1.0000
  N   N1        1.0  0.10609000000000005  0.37986000000000003  0.61752  1.0000
  N   N2        1.0  0.12188000000000006  0.74623  0.62441  1.0000
  N   N3        1.0  0.48701  0.62027  0.38247  1.0000
  N   N4        1.0  0.49769000000000024  0.25408  0.3762  1.0000
  O   O1        1.0  0.22722  0.61238  0.78755  1.0000
  O   O2        1.0  0.49744000000000016  0.72116  0.8776300000000001  1.0000
  O   O3        1.0  0.3785800000000002  0.56374  0.5958200000000001  1.0000
  O   O4        1.0  0.60966  0.46666000000000013  0.56094  1.0000
  O   O5        1.0  0.43563  0.38768  0.21261  1.0000
  O   O6        1.0  0.61699  0.27792  0.12619  1.0000
  O   O7        1.0  0.7835900000000002  0.44069  0.40916  1.0000
  O   O8        1.0  0.05193999999999999  0.53296  0.43964  1.0000
  O   O9        1.0  0.48626000000000025  0.49738000000000004  0.9995600000000001  1.0000
