data_image0
_chemical_formula_structural       Ho2H12C24O12
_chemical_formula_sum              "Ho2 H12 C24 O12"
_cell_length_a       9.38307
_cell_length_b       10.31183
_cell_length_c       11.214470000000002
_cell_angle_alpha    75.31836
_cell_angle_beta     79.25563999999999
_cell_angle_gamma    67.20299000000001

_space_group_name_H-M_alt    "P 1"
_space_group_IT_number       1

loop_
  _space_group_symop_operation_xyz
  'x, y, z'

loop_
  _atom_site_type_symbol
  _atom_site_label
  _atom_site_symmetry_multiplicity
  _atom_site_fract_x
  _atom_site_fract_y
  _atom_site_fract_z
  _atom_site_occupancy
  Ho  Ho1       1.0  0.96004  0.20796999999999996  0.80154  1.0000
  Ho  Ho2       1.0  0.039950000000000006  0.79203  0.19845  1.0000
  H   H1        1.0  0.67136  0.80915  0.15066  1.0000
  H   H2        1.0  0.61361  0.13503999999999988  0.8166600000000003  1.0000
  H   H3        1.0  0.4309799999999999  0.42576  0.72547  1.0000
  H   H4        1.0  0.7685299999999999  0.49703  0.42503  1.0000
  H   H5        1.0  0.28836  0.90292  0.52699  1.0000
  H   H6        1.0  0.4588499999999999  0.20467999999999997  0.59731  1.0000
  H   H7        1.0  0.32863000000000003  0.1908499999999999  0.84933  1.0000
  H   H8        1.0  0.3863799999999999  0.8649599999999998  0.18333  1.0000
  H   H9        1.0  0.56902  0.57424  0.27453  1.0000
  H   H10       1.0  0.23146000000000005  0.50297  0.57496  1.0000
  H   H11       1.0  0.7116399999999999  0.09707999999999996  0.4730100000000001  1.0000
  H   H12       1.0  0.5411399999999994  0.7953199999999999  0.40269000000000005  1.0000
  C   C1        1.0  0.66127  0.9675599999999999  0.98083  1.0000
  C   C2        1.0  0.5964  0.8913699999999999  0.08427  1.0000
  C   C3        1.0  0.56356  0.07590000000000002  0.89642  1.0000
  C   C4        1.0  0.83174  0.9387199999999998  0.96259  1.0000
  C   C5        1.0  0.6108  0.45601  0.58365  1.0000
  C   C6        1.0  0.45933  0.45876999999999996  0.6266500000000002  1.0000
  C   C7        1.0  0.6513899999999999  0.49774999999999997  0.45656  1.0000
  C   C8        1.0  0.35945000000000005  0.060419999999999974  0.5686400000000001  1.0000
  C   C9        1.0  0.38135000000000013  0.9446799999999999  0.5142200000000001  1.0000
  C   C10       1.0  0.47855  0.11515  0.55436  1.0000
  C   C11       1.0  0.21125999999999995  0.12349999999999996  0.6434900000000001  1.0000
  C   C12       1.0  0.7313199999999997  0.3998299999999999  0.6718700000000001  1.0000
  C   C13       1.0  0.33873  0.03244  0.01917  1.0000
  C   C14       1.0  0.40358999999999995  0.10862999999999999  0.91573  1.0000
  C   C15       1.0  0.43643000000000004  0.9241  0.10358000000000002  1.0000
  C   C16       1.0  0.16825999999999994  0.06128  0.03741  1.0000
  C   C17       1.0  0.38920000000000005  0.5439899999999999  0.41634000000000004  1.0000
  C   C18       1.0  0.5406600000000004  0.54123  0.37334  1.0000
  C   C19       1.0  0.34861  0.50224  0.54343  1.0000
  C   C20       1.0  0.6405500000000001  0.9395799999999999  0.43136000000000013  1.0000
  C   C21       1.0  0.6186399999999999  0.05532  0.48577000000000004  1.0000
  C   C22       1.0  0.5214399999999999  0.8848499999999999  0.44563  1.0000
  C   C23       1.0  0.78874  0.8764999999999998  0.35651  1.0000
  C   C24       1.0  0.2686700000000001  0.6001599999999999  0.32813000000000003  1.0000
  O   O1        1.0  0.88272  0.023169999999999986  0.87817  1.0000
  O   O2        1.0  0.92242  0.83114  0.033010000000000005  1.0000
  O   O3        1.0  0.8696899999999999  0.39677  0.63422  1.0000
  O   O4        1.0  0.19038000000000002  0.22909999999999997  0.6940900000000001  1.0000
  O   O5        1.0  0.10432999999999998  0.06900999999999999  0.66153  1.0000
  O   O6        1.0  0.6996299999999998  0.3427899999999999  0.7857700000000002  1.0000
  O   O7        1.0  0.11728000000000001  0.97683  0.12183  1.0000
  O   O8        1.0  0.07756999999999997  0.16886  0.96699  1.0000
  O   O9        1.0  0.13031  0.60323  0.36577000000000004  1.0000
  O   O10       1.0  0.8096199999999998  0.7708999999999999  0.30591000000000007  1.0000
  O   O11       1.0  0.89567  0.9309799999999999  0.33847  1.0000
  O   O12       1.0  0.30036  0.6572  0.21423000000000003  1.0000
