data_image0
_chemical_formula_structural       Al4H12C16O20
_chemical_formula_sum              "Al4 H12 C16 O20"
_cell_length_a       6.67546
_cell_length_b       11.79636
_cell_length_c       12.52987
_cell_angle_alpha    90.0
_cell_angle_beta     90.0
_cell_angle_gamma    100.45684000000001

_space_group_name_H-M_alt    "P 1"
_space_group_IT_number       1

loop_
  _space_group_symop_operation_xyz
  'x, y, z'

loop_
  _atom_site_type_symbol
  _atom_site_label
  _atom_site_symmetry_multiplicity
  _atom_site_fract_x
  _atom_site_fract_y
  _atom_site_fract_z
  _atom_site_occupancy
  Al  Al1       1.0  0.5  0.0  0.5  1.0000
  Al  Al2       1.0  0.0  0.5  0.0  1.0000
  Al  Al3       1.0  0.0  0.0  0.5  1.0000
  Al  Al4       1.0  0.5  0.5  0.0  1.0000
  H   H1        1.0  0.51479  0.75434  0.7655  1.0000
  H   H2        1.0  0.9792699999999999  0.76143  0.7482699999999998  1.0000
  H   H3        1.0  0.20411  0.85127  0.47661999999999993  1.0000
  H   H4        1.0  0.9852300000000003  0.74566  0.2655  1.0000
  H   H5        1.0  0.52074  0.73857  0.24827  1.0000
  H   H6        1.0  0.2959  0.64873  0.97662  1.0000
  H   H7        1.0  0.4852200000000001  0.24566  0.2345  1.0000
  H   H8        1.0  0.020740000000000026  0.23857000000000003  0.25173  1.0000
  H   H9        1.0  0.7959  0.14873  0.52337  1.0000
  H   H10       1.0  0.014780000000000003  0.25434  0.7345  1.0000
  H   H11       1.0  0.4792700000000001  0.26143  0.7517299999999998  1.0000
  H   H12       1.0  0.70411  0.35127  0.023379999999999998  1.0000
  C   C1        1.0  0.6989400000000001  0.86666  0.64843  1.0000
  C   C2        1.0  0.6699900000000002  0.78032  0.73601  1.0000
  C   C3        1.0  0.8235000000000001  0.7343500000000001  0.77665  1.0000
  C   C4        1.0  0.7903  0.64632  0.8625  1.0000
  C   C5        1.0  0.80107  0.63334  0.14844  1.0000
  C   C6        1.0  0.8300200000000002  0.71968  0.23601  1.0000
  C   C7        1.0  0.67651  0.76565  0.27665  1.0000
  C   C8        1.0  0.70971  0.8536800000000001  0.3625  1.0000
  C   C9        1.0  0.30107000000000006  0.13334  0.35156  1.0000
  C   C10       1.0  0.3300100000000001  0.21968  0.26399  1.0000
  C   C11       1.0  0.17651  0.26565  0.22335  1.0000
  C   C12       1.0  0.20971  0.35368000000000005  0.1375  1.0000
  C   C13       1.0  0.19894  0.36666  0.85156  1.0000
  C   C14       1.0  0.16999000000000003  0.28032  0.7639899999999998  1.0000
  C   C15       1.0  0.32349  0.23435  0.7233499999999999  1.0000
  C   C16       1.0  0.2903  0.14632  0.6374999999999998  1.0000
  O   O1        1.0  0.87319  0.88816  0.60356  1.0000
  O   O2        1.0  0.5419  0.9091  0.62439  1.0000
  O   O3        1.0  0.9504000000000002  0.6225000000000002  0.9065899999999999  1.0000
  O   O4        1.0  0.60687  0.60225  0.88614  1.0000
  O   O5        1.0  0.22794000000000011  0.9294000000000002  0.50412  1.0000
  O   O6        1.0  0.62682  0.61184  0.10356  1.0000
  O   O7        1.0  0.9581100000000002  0.5909  0.12439  1.0000
  O   O8        1.0  0.5496100000000002  0.8775000000000001  0.40659999999999996  1.0000
  O   O9        1.0  0.8931400000000004  0.8977500000000003  0.38615  1.0000
  O   O10       1.0  0.2720700000000001  0.5706  0.00412  1.0000
  O   O11       1.0  0.12682  0.11184000000000002  0.39644  1.0000
  O   O12       1.0  0.4581100000000001  0.0909  0.37561  1.0000
  O   O13       1.0  0.049600000000000005  0.3775  0.0934  1.0000
  O   O14       1.0  0.3931400000000001  0.39775  0.11385  1.0000
  O   O15       1.0  0.77207  0.0706  0.49588  1.0000
  O   O16       1.0  0.37319  0.38816  0.8964399999999998  1.0000
  O   O17       1.0  0.04190000000000003  0.4091  0.87561  1.0000
  O   O18       1.0  0.4504  0.1225  0.5934  1.0000
  O   O19       1.0  0.10687000000000005  0.10225000000000001  0.61385  1.0000
  O   O20       1.0  0.72794  0.42940000000000006  0.99588  1.0000
