data_image0
_chemical_formula_structural       U4P8H16C24O32F4
_chemical_formula_sum              "U4 P8 H16 C24 O32 F4"
_cell_length_a       8.20866
_cell_length_b       14.57309
_cell_length_c       15.51777
_cell_angle_alpha    104.18757000000001
_cell_angle_beta     89.91289
_cell_angle_gamma    89.97124

_space_group_name_H-M_alt    "P 1"
_space_group_IT_number       1

loop_
  _space_group_symop_operation_xyz
  'x, y, z'

loop_
  _atom_site_type_symbol
  _atom_site_label
  _atom_site_symmetry_multiplicity
  _atom_site_fract_x
  _atom_site_fract_y
  _atom_site_fract_z
  _atom_site_occupancy
  U   U1        1.0  0.9191099999999998  0.8177700000000002  0.7792000000000002  1.0000
  U   U2        1.0  0.42418  0.6854700000000002  0.7418800000000001  1.0000
  U   U3        1.0  0.07529999999999998  0.18194000000000005  0.23543  1.0000
  U   U4        1.0  0.57542  0.31941000000000014  0.27488  1.0000
  P   P1        1.0  0.97172  0.042749999999999996  0.71867  1.0000
  P   P2        1.0  0.015419999999999996  0.57619  0.70972  1.0000
  P   P3        1.0  0.47459  0.4526300000000001  0.78312  1.0000
  P   P4        1.0  0.5189  0.93025  0.78543  1.0000
  P   P5        1.0  0.0278  0.9511900000000002  0.28136  1.0000
  P   P6        1.0  0.9886599999999999  0.42602  0.2867  1.0000
  P   P7        1.0  0.52865  0.54762  0.21989  1.0000
  P   P8        1.0  0.48851  0.07519  0.21183  1.0000
  H   H1        1.0  0.20563  0.12055000000000005  0.7236900000000003  1.0000
  H   H2        1.0  0.7293  0.55084  0.65446  1.0000
  H   H3        1.0  0.81825  0.9016900000000002  0.57226  1.0000
  H   H4        1.0  0.26777  0.5006900000000002  0.57267  1.0000
  H   H5        1.0  0.71115  0.3803700000000001  0.78  1.0000
  H   H6        1.0  0.22963  0.9517200000000001  0.84278  1.0000
  H   H7        1.0  0.31557  0.59345  0.9274  1.0000
  H   H8        1.0  0.77299  0.0022600000000000254  0.92694  1.0000
  H   H9        1.0  0.78998  0.87808  0.2781  1.0000
  H   H10       1.0  0.27546  0.45334000000000013  0.34424  1.0000
  H   H11       1.0  0.18465  0.09465000000000003  0.42707  1.0000
  H   H12       1.0  0.72951  0.49872000000000005  0.42582  1.0000
  H   H13       1.0  0.29147999999999996  0.62367  0.22388  1.0000
  H   H14       1.0  0.77307  0.05093000000000001  0.15512  1.0000
  H   H15       1.0  0.68288  0.4040800000000001  0.07425000000000001  1.0000
  H   H16       1.0  0.23294  0.9994600000000001  0.07122000000000002  1.0000
  C   C1        1.0  0.9953299999999999  0.015999999999999986  0.59617  1.0000
  C   C2        1.0  0.10773  0.07119  0.55211  1.0000
  C   C3        1.0  0.90006  0.9472600000000003  0.5454000000000002  1.0000
  C   C4        1.0  0.00869  0.52964  0.59084  1.0000
  C   C5        1.0  0.85753  0.5262800000000001  0.5477800000000002  1.0000
  C   C6        1.0  0.15017  0.50141  0.54081  1.0000
  C   C7        1.0  0.49126000000000003  0.48097000000000006  0.90385  1.0000
  C   C8        1.0  0.60594  0.42819000000000007  0.9481400000000002  1.0000
  C   C9        1.0  0.39925  0.5506700000000002  0.95532  1.0000
  C   C10       1.0  0.51252  0.97064  0.90459  1.0000
  C   C11       1.0  0.36104  0.9733300000000001  0.9485100000000002  1.0000
  C   C12       1.0  0.65243  0.9985300000000001  0.9552  1.0000
  C   C13       1.0  0.006359999999999997  0.9822400000000002  0.40278  1.0000
  C   C14       1.0  0.89414  0.9281800000000002  0.44714000000000004  1.0000
  C   C15       1.0  0.10136  0.05079000000000001  0.45378  1.0000
  C   C16       1.0  0.9900500000000001  0.46993000000000024  0.40586  1.0000
  C   C17       1.0  0.1415  0.4731100000000001  0.44886  1.0000
  C   C18       1.0  0.84867  0.49801  0.45584  1.0000
  C   C19       1.0  0.5050899999999998  0.5171700000000001  0.09801000000000003  1.0000
  C   C20       1.0  0.39147  0.57125  0.05407  1.0000
  C   C21       1.0  0.59949  0.4485000000000001  0.04697  1.0000
  C   C22       1.0  0.49182  0.02987  0.09177  1.0000
  C   C23       1.0  0.64265  0.02681  0.04771  1.0000
  C   C24       1.0  0.35196  0.0017399999999999998  0.04096  1.0000
  O   O1        1.0  0.00013999999999999993  0.9421700000000002  0.74456  1.0000
  O   O2        1.0  0.80772  0.08790000000000009  0.7419500000000002  1.0000
  O   O3        1.0  0.1234  0.10193000000000003  0.76323  1.0000
  O   O4        1.0  0.20851  0.12804  0.59554  1.0000
  O   O5        1.0  0.90652  0.6727200000000002  0.7222  1.0000
  O   O6        1.0  0.94335  0.5115400000000002  0.76086  1.0000
  O   O7        1.0  0.19668  0.6078600000000002  0.72932  1.0000
  O   O8        1.0  0.71243  0.54999  0.59213  1.0000
  O   O9        1.0  0.50425  0.55426  0.76174  1.0000
  O   O10       1.0  0.31375  0.4102500000000001  0.75755  1.0000
  O   O11       1.0  0.62793  0.3942500000000001  0.73858  1.0000
  O   O12       1.0  0.70969  0.37234  0.90648  1.0000
  O   O13       1.0  0.40761  0.8352500000000003  0.77383  1.0000
  O   O14       1.0  0.4488  0.0004099999999999988  0.74181  1.0000
  O   O15       1.0  0.69116  0.8877800000000001  0.75894  1.0000
  O   O16       1.0  0.21529  0.94829  0.9043600000000003  1.0000
  O   O17       1.0  0.9977099999999999  0.051170000000000014  0.25522  1.0000
  O   O18       1.0  0.18821999999999997  0.9087400000000002  0.25811  1.0000
  O   O19       1.0  0.87249  0.8935900000000002  0.23889  1.0000
  O   O20       1.0  0.79141  0.8714300000000004  0.4036700000000001  1.0000
  O   O21       1.0  0.09532999999999998  0.3302200000000001  0.27565  1.0000
  O   O22       1.0  0.0585  0.49186000000000013  0.23794  1.0000
  O   O23       1.0  0.8114899999999998  0.3850400000000001  0.26349  1.0000
  O   O24       1.0  0.28805  0.44846  0.40545  1.0000
  O   O25       1.0  0.50121  0.44813  0.24924  1.0000
  O   O26       1.0  0.6924  0.5908300000000002  0.2412  1.0000
  O   O27       1.0  0.37888  0.61031  0.26471  1.0000
  O   O28       1.0  0.2891899999999999  0.6272000000000002  0.09674  1.0000
  O   O29       1.0  0.60186  0.16945  0.22323  1.0000
  O   O30       1.0  0.55798  0.007460000000000001  0.25732  1.0000
  O   O31       1.0  0.30797  0.11281000000000002  0.23457  1.0000
  O   O32       1.0  0.78776  0.050330000000000014  0.09225  1.0000
  F   F1        1.0  0.14716  0.7761200000000004  0.7179500000000002  1.0000
  F   F2        1.0  0.64945  0.7319700000000002  0.82196  1.0000
  F   F3        1.0  0.86223  0.22448000000000007  0.32022  1.0000
  F   F4        1.0  0.36446  0.2708400000000001  0.19191  1.0000
