data_image0
_chemical_formula_structural       Cu2H8C16N8O4
_chemical_formula_sum              "Cu2 H8 C16 N8 O4"
_cell_length_a       7.73325
_cell_length_b       8.68733
_cell_length_c       12.23037
_cell_angle_alpha    110.81187
_cell_angle_beta     108.15872
_cell_angle_gamma    90.56587999999999

_space_group_name_H-M_alt    "P 1"
_space_group_IT_number       1

loop_
  _space_group_symop_operation_xyz
  'x, y, z'

loop_
  _atom_site_type_symbol
  _atom_site_label
  _atom_site_symmetry_multiplicity
  _atom_site_fract_x
  _atom_site_fract_y
  _atom_site_fract_z
  _atom_site_occupancy
  Cu  Cu1       1.0  0.26102  0.9637200000000001  0.9985899999999999  1.0000
  Cu  Cu2       1.0  0.73994  0.9705300000000001  0.99987  1.0000
  H   H1        1.0  0.9980099999999998  0.42191  0.44653  1.0000
  H   H2        1.0  0.11093000000000001  0.61585  0.67056  1.0000
  H   H3        1.0  0.00048000000000000364  0.9743700000000001  0.55321  1.0000
  H   H4        1.0  0.88765  0.94816  0.33078  1.0000
  H   H5        1.0  0.55407  0.9727600000000001  0.54917  1.0000
  H   H6        1.0  0.44015  0.9453100000000001  0.32635  1.0000
  H   H7        1.0  0.44288  0.42247  0.44786  1.0000
  H   H8        1.0  0.55682  0.6168100000000001  0.67171  1.0000
  C   C1        1.0  0.90313  0.46537  0.49671  1.0000
  C   C2        1.0  0.9656399999999999  0.57199  0.62086  1.0000
  C   C3        1.0  0.09518999999999998  0.9680500000000001  0.50274  1.0000
  C   C4        1.0  0.03262999999999998  0.9525800000000001  0.37915999999999994  1.0000
  C   C5        1.0  0.40864  0.9669200000000001  0.50044  1.0000
  C   C6        1.0  0.34559  0.9509900000000001  0.37681  1.0000
  C   C7        1.0  0.58855  0.46563000000000004  0.49739  1.0000
  C   C8        1.0  0.65148  0.57248  0.62152  1.0000
  C   C9        1.0  0.71388  0.41133  0.43418  1.0000
  C   C10       1.0  0.84044  0.62587  0.68403  1.0000
  C   C11       1.0  0.90792  0.74535  0.8157  1.0000
  C   C12       1.0  0.64956  0.29483  0.305  1.0000
  C   C13       1.0  0.28395  0.9751700000000001  0.56434  1.0000
  C   C14       1.0  0.15707  0.94314  0.31507  1.0000
  C   C15       1.0  0.0908  0.93099  0.18337  1.0000
  C   C16       1.0  0.3486  0.98672  0.69308  1.0000
  N   N1        1.0  0.47628  0.12416000000000002  0.1303  1.0000
  N   N2        1.0  0.47208999999999995  0.22734999999999994  0.23898999999999998  1.0000
  N   N3        1.0  0.52318  0.99413  0.86765  1.0000
  N   N4        1.0  0.5266199999999998  0.99031  0.7591699999999999  1.0000
  N   N5        1.0  0.34845000000000004  0.99235  0.86768  1.0000
  N   N6        1.0  0.23677  0.9879300000000001  0.7594099999999999  1.0000
  N   N7        1.0  0.6509  0.12837  0.13003  1.0000
  N   N8        1.0  0.76171  0.23448  0.23844  1.0000
  O   O1        1.0  0.7854899999999999  0.7940999999999999  0.8654799999999999  1.0000
  O   O2        1.0  0.21226  0.9186100000000003  0.13112  1.0000
  O   O3        1.0  0.91912  0.9343700000000001  0.13631  1.0000
  O   O4        1.0  0.08168000000000003  0.78688  0.86483  1.0000
