data_image0
_chemical_formula_structural       Al4H10C10O16
_chemical_formula_sum              "Al4 H10 C10 O16"
_cell_length_a       7.17418
_cell_length_b       7.479400000000001
_cell_length_c       11.122889999999998
_cell_angle_alpha    107.51289
_cell_angle_beta     106.44655999999999
_cell_angle_gamma    96.32305

_space_group_name_H-M_alt    "P 1"
_space_group_IT_number       1

loop_
  _space_group_symop_operation_xyz
  'x, y, z'

loop_
  _atom_site_type_symbol
  _atom_site_label
  _atom_site_symmetry_multiplicity
  _atom_site_fract_x
  _atom_site_fract_y
  _atom_site_fract_z
  _atom_site_occupancy
  Al  Al1       1.0  0.2916600000000001  0.29186  0.58401  1.0000
  Al  Al2       1.0  0.70833  0.70814  0.416  1.0000
  Al  Al3       1.0  0.0  0.4999999999999999  0.5  1.0000
  Al  Al4       1.0  0.5  0.0  0.5  1.0000
  H   H1        1.0  0.017750000000000037  0.34267  0.67087  1.0000
  H   H2        1.0  0.14092999999999992  0.9383499999999998  0.46319999999999995  1.0000
  H   H3        1.0  0.65156  0.32865  0.67108  1.0000
  H   H4        1.0  0.32343000000000005  0.5251699999999998  0.46387  1.0000
  H   H5        1.0  0.98225  0.6573299999999997  0.32913  1.0000
  H   H6        1.0  0.85906  0.06164999999999999  0.5368  1.0000
  H   H7        1.0  0.34843  0.6713499999999998  0.32893  1.0000
  H   H8        1.0  0.6765599999999998  0.4748399999999999  0.53613  1.0000
  H   H9        1.0  0.54939  0.33475  0.00012  1.0000
  H   H10       1.0  0.4506100000000001  0.66525  0.99988  1.0000
  C   C1        1.0  0.42015  0.06973000000000003  0.75015  1.0000
  C   C2        1.0  0.4526900000000001  0.03395999999999994  0.8789799999999999  1.0000
  C   C3        1.0  0.32795  0.6802199999999998  0.75035  1.0000
  C   C4        1.0  0.42485  0.8450399999999998  0.87896  1.0000
  C   C5        1.0  0.57984  0.9302699999999998  0.24984999999999996  1.0000
  C   C6        1.0  0.54731  0.9660499999999997  0.12102  1.0000
  C   C7        1.0  0.6720499999999999  0.3197799999999999  0.24965  1.0000
  C   C8        1.0  0.57514  0.15495999999999996  0.12104  1.0000
  C   C9        1.0  0.52612  0.18827999999999995  2e-05  1.0000
  C   C10       1.0  0.47387  0.8117199999999999  0.9999799999999999  1.0000
  O   O1        1.0  0.02467000000000004  0.30506  0.58107  1.0000
  O   O2        1.0  0.24059000000000005  0.040339999999999966  0.4640699999999999  1.0000
  O   O3        1.0  0.32432  0.19874999999999995  0.73318  1.0000
  O   O4        1.0  0.50078  0.9745999999999998  0.67062  1.0000
  O   O5        1.0  0.55599  0.2757599999999999  0.58107  1.0000
  O   O6        1.0  0.22401  0.42427  0.4644  1.0000
  O   O7        1.0  0.40724  0.53436  0.73313  1.0000
  O   O8        1.0  0.16749999999999995  0.6953999999999998  0.67145  1.0000
  O   O9        1.0  0.97532  0.6949399999999998  0.41893  1.0000
  O   O10       1.0  0.7594000000000001  0.9596599999999997  0.53594  1.0000
  O   O11       1.0  0.67568  0.80125  0.26682  1.0000
  O   O12       1.0  0.49922  0.025409999999999988  0.32938  1.0000
  O   O13       1.0  0.444  0.7242399999999998  0.41894  1.0000
  O   O14       1.0  0.77598  0.57573  0.5356  1.0000
  O   O15       1.0  0.59276  0.46565  0.26687  1.0000
  O   O16       1.0  0.8324900000000003  0.3046  0.32855  1.0000
