data_image0
_chemical_formula_structural       Cu4H8C18N8O10
_chemical_formula_sum              "Cu4 H8 C18 N8 O10"
_cell_length_a       6.76992
_cell_length_b       10.10004
_cell_length_c       12.169869999999998
_cell_angle_alpha    109.02928999999999
_cell_angle_beta     90.0
_cell_angle_gamma    90.0

_space_group_name_H-M_alt    "P 1"
_space_group_IT_number       1

loop_
  _space_group_symop_operation_xyz
  'x, y, z'

loop_
  _atom_site_type_symbol
  _atom_site_label
  _atom_site_symmetry_multiplicity
  _atom_site_fract_x
  _atom_site_fract_y
  _atom_site_fract_z
  _atom_site_occupancy
  Cu  Cu1       1.0  0.25  0.85604  0.23907  1.0000
  Cu  Cu2       1.0  0.75  0.14397999999999994  0.76093  1.0000
  Cu  Cu3       1.0  0.0  9.999999999994041e-06  0.5  1.0000
  Cu  Cu4       1.0  0.5  9.999999999994041e-06  0.5  1.0000
  H   H1        1.0  0.25  0.41775000000000007  0.28181  1.0000
  H   H2        1.0  0.25  0.04330000000000001  0.98405  1.0000
  H   H3        1.0  0.25  0.45059  0.93796  1.0000
  H   H4        1.0  0.25  0.08399999999999998  0.38401999999999986  1.0000
  H   H5        1.0  0.75  0.58225  0.7182  1.0000
  H   H6        1.0  0.75  0.9567100000000001  0.01595  1.0000
  H   H7        1.0  0.75  0.54942  0.06205  1.0000
  H   H8        1.0  0.75  0.91603  0.61597  1.0000
  C   C1        1.0  0.25  0.6044399999999999  0.15916  1.0000
  C   C2        1.0  0.25  0.44913  0.1138  1.0000
  C   C3        1.0  0.25  0.36809000000000003  0.1879  1.0000
  C   C4        1.0  0.25  0.22173  0.14043  1.0000
  C   C5        1.0  0.25  0.15706  0.019369999999999995  1.0000
  C   C6        1.0  0.25  0.23844000000000004  0.94599  1.0000
  C   C7        1.0  0.25  0.38447999999999993  0.9929699999999999  1.0000
  C   C8        1.0  0.25  0.13264  0.21764  1.0000
  C   C9        1.0  0.25  0.16977000000000006  0.81904  1.0000
  C   C10       1.0  0.75  0.39558000000000004  0.84085  1.0000
  C   C11       1.0  0.75  0.55088  0.88621  1.0000
  C   C12       1.0  0.75  0.63192  0.8121  1.0000
  C   C13       1.0  0.75  0.7782800000000002  0.85957  1.0000
  C   C14       1.0  0.75  0.84295  0.9806299999999999  1.0000
  C   C15       1.0  0.75  0.76157  0.05401  1.0000
  C   C16       1.0  0.75  0.61553  0.00704  1.0000
  C   C17       1.0  0.75  0.86737  0.7823599999999999  1.0000
  C   C18       1.0  0.75  0.8302400000000001  0.18096  1.0000
  N   N1        1.0  0.08637000000000002  0.13317  0.7524199999999999  1.0000
  N   N2        1.0  0.15174  0.07474000000000001  0.64469  1.0000
  N   N3        1.0  0.58637  0.86684  0.24757999999999994  1.0000
  N   N4        1.0  0.6517400000000001  0.9252800000000001  0.35531  1.0000
  N   N5        1.0  0.91363  0.86684  0.24757999999999994  1.0000
  N   N6        1.0  0.84826  0.9252800000000001  0.35531  1.0000
  N   N7        1.0  0.41363  0.13317  0.7524199999999999  1.0000
  N   N8        1.0  0.34826  0.07474000000000001  0.64469  1.0000
  O   O1        1.0  0.25  0.67434  0.08891  1.0000
  O   O2        1.0  0.25  0.67098  0.26978  1.0000
  O   O3        1.0  0.25  0.19093  0.3273  1.0000
  O   O4        1.0  0.25  0.9998900000000001  0.16418  1.0000
  O   O5        1.0  0.25  0.9938500000000001  0.41133999999999993  1.0000
  O   O6        1.0  0.75  0.32567  0.9111  1.0000
  O   O7        1.0  0.75  0.32903  0.7302299999999999  1.0000
  O   O8        1.0  0.75  0.8090900000000001  0.6727  1.0000
  O   O9        1.0  0.75  0.0001199999999999285  0.8358199999999998  1.0000
  O   O10       1.0  0.75  0.006169999999999973  0.58866  1.0000
