data_image0
_chemical_formula_structural       Ho2Cu2H16C32N10O16
_chemical_formula_sum              "Ho2 Cu2 H16 C32 N10 O16"
_cell_length_a       10.85863
_cell_length_b       10.77839
_cell_length_c       11.97608
_cell_angle_alpha    69.73046
_cell_angle_beta     76.7596
_cell_angle_gamma    59.67027999999999

_space_group_name_H-M_alt    "P 1"
_space_group_IT_number       1

loop_
  _space_group_symop_operation_xyz
  'x, y, z'

loop_
  _atom_site_type_symbol
  _atom_site_label
  _atom_site_symmetry_multiplicity
  _atom_site_fract_x
  _atom_site_fract_y
  _atom_site_fract_z
  _atom_site_occupancy
  Ho  Ho1       1.0  0.54202  0.9886600000000001  0.16378  1.0000
  Ho  Ho2       1.0  0.46003  0.00858000000000001  0.84165  1.0000
  Cu  Cu1       1.0  0.0004799999999999599  0.9988900000000001  0.00062  1.0000
  Cu  Cu2       1.0  0.9992599999999999  0.99917  0.50109  1.0000
  H   H1        1.0  0.028079999999999966  0.25743000000000005  0.52155  1.0000
  H   H2        1.0  0.91582  0.53806  0.42783  1.0000
  H   H3        1.0  0.67255  0.48891  0.2244  1.0000
  H   H4        1.0  0.7834100000000002  0.21259  0.33364  1.0000
  H   H5        1.0  0.9809199999999998  0.7318700000000002  0.18409  1.0000
  H   H6        1.0  0.12879  0.45039  0.23256999999999997  1.0000
  H   H7        1.0  0.41830000000000006  0.5111200000000001  0.93303  1.0000
  H   H8        1.0  0.2568099999999999  0.78833  0.89007  1.0000
  H   H9        1.0  0.9725400000000002  0.73974  0.47972  1.0000
  H   H10       1.0  0.08579999999999999  0.45914000000000005  0.57273  1.0000
  H   H11       1.0  0.3287999999999999  0.5084600000000001  0.776  1.0000
  H   H12       1.0  0.21673000000000003  0.7850300000000001  0.66802  1.0000
  H   H13       1.0  0.019969999999999936  0.2666800000000001  0.8166  1.0000
  H   H14       1.0  0.8713000000000002  0.5480400000000001  0.7684999999999998  1.0000
  H   H15       1.0  0.58258  0.48479  0.06838  1.0000
  H   H16       1.0  0.7452100000000002  0.20784  0.11022  1.0000
  C   C1        1.0  0.17869999999999994  0.9712100000000001  0.28231  1.0000
  C   C2        1.0  0.17588000000000006  0.98247  0.16281  1.0000
  C   C3        1.0  0.2813  0.95596  0.35768999999999995  1.0000
  C   C4        1.0  0.2668600000000001  0.9992  0.05351  1.0000
  C   C5        1.0  0.9476600000000001  0.31415000000000015  0.45639  1.0000
  C   C6        1.0  0.8869700000000006  0.46805  0.40354  1.0000
  C   C7        1.0  0.7883300000000002  0.53199  0.31732  1.0000
  C   C8        1.0  0.7497199999999999  0.44024000000000013  0.29069  1.0000
  C   C9        1.0  0.8112000000000001  0.2887500000000001  0.34943  1.0000
  C   C10       1.0  0.72069  0.69538  0.25242  1.0000
  C   C11       1.0  0.07745999999999989  0.6782500000000002  0.13011  1.0000
  C   C12       1.0  0.15929000000000004  0.52361  0.15703  1.0000
  C   C13       1.0  0.2849200000000001  0.46127000000000007  0.08687  1.0000
  C   C14       1.0  0.3209600000000001  0.5565399999999999  0.98866  1.0000
  C   C15       1.0  0.2323699999999999  0.71003  0.9651700000000001  1.0000
  C   C16       1.0  0.37992  0.29542  0.12038  1.0000
  C   C17       1.0  0.8199399999999999  0.026520000000000057  0.7205999999999999  1.0000
  C   C18       1.0  0.82397  0.015100000000000006  0.84004  1.0000
  C   C19       1.0  0.7169800000000001  0.042929999999999996  0.64446  1.0000
  C   C20       1.0  0.7345500000000003  0.99772  0.9504199999999999  1.0000
  C   C21       1.0  0.05298999999999998  0.6832100000000002  0.54488  1.0000
  C   C22       1.0  0.11424999999999992  0.52915  0.59741  1.0000
  C   C23       1.0  0.21295000000000003  0.46516  0.68365  1.0000
  C   C24       1.0  0.25118999999999997  0.5573  0.71007  1.0000
  C   C25       1.0  0.18911999999999987  0.7089300000000003  0.65186  1.0000
  C   C26       1.0  0.28173999999999993  0.3015600000000001  0.7487499999999999  1.0000
  C   C27       1.0  0.92324  0.31995  0.87057  1.0000
  C   C28       1.0  0.8408699999999999  0.47453000000000034  0.8439  1.0000
  C   C29       1.0  0.7153000000000003  0.53618  0.91442  1.0000
  C   C30       1.0  0.6797400000000001  0.44021  0.01236  1.0000
  C   C31       1.0  0.7688600000000002  0.28686  0.03544  1.0000
  C   C32       1.0  0.61981  0.70199  0.88249  1.0000
  N   N1        1.0  0.05358  0.97326  0.33632  1.0000
  N   N2        1.0  0.9758099999999998  0.98283  0.25878  1.0000
  N   N3        1.0  0.049959999999999956  0.9883700000000001  0.15382  1.0000
  N   N4        1.0  0.9101000000000001  0.22672000000000003  0.42923  1.0000
  N   N5        1.0  0.11441999999999995  0.7696700000000001  0.03569  1.0000
  N   N6        1.0  0.94458  0.025319999999999978  0.66585  1.0000
  N   N7        1.0  0.02295000000000003  0.016229999999999994  0.74261  1.0000
  N   N8        1.0  0.94986  0.009980000000000006  0.84795  1.0000
  N   N9        1.0  0.08980999999999995  0.7710200000000001  0.57237  1.0000
  N   N10       1.0  0.88698  0.22798  0.9648699999999999  1.0000
  O   O1        1.0  0.23352999999999993  0.9774100000000001  0.45854  1.0000
  O   O2        1.0  0.4117900000000002  0.9154000000000001  0.31578  1.0000
  O   O3        1.0  0.3845600000000001  0.99999  0.05511  1.0000
  O   O4        1.0  0.22832  0.015129999999999996  0.95474  1.0000
  O   O5        1.0  0.7297299999999999  0.7881900000000003  0.2897  1.0000
  O   O6        1.0  0.6524400000000001  0.73622  0.1618  1.0000
  O   O7        1.0  0.5055099999999999  0.24152000000000004  0.06901  1.0000
  O   O8        1.0  0.33375  0.2121200000000001  0.20089  1.0000
  O   O9        1.0  0.76567  0.022530000000000047  0.54317  1.0000
  O   O10       1.0  0.58663  0.08299000000000001  0.68575  1.0000
  O   O11       1.0  0.61729  0.99577  0.94977  1.0000
  O   O12       1.0  0.77387  0.9824600000000001  0.04865  1.0000
  O   O13       1.0  0.27510000000000007  0.20750000000000005  0.7116  1.0000
  O   O14       1.0  0.34867999999999993  0.26238  0.83996  1.0000
  O   O15       1.0  0.49498999999999993  0.7549800000000001  0.93495  1.0000
  O   O16       1.0  0.6647100000000002  0.78661  0.80197  1.0000
