data_image0
_chemical_formula_structural       La2P4H26C12N4O12
_chemical_formula_sum              "La2 P4 H26 C12 N4 O12"
_cell_length_a       5.8659
_cell_length_b       10.109749999999998
_cell_length_c       11.378370000000002
_cell_angle_alpha    84.62573
_cell_angle_beta     89.78800000000001
_cell_angle_gamma    81.95852

_space_group_name_H-M_alt    "P 1"
_space_group_IT_number       1

loop_
  _space_group_symop_operation_xyz
  'x, y, z'

loop_
  _atom_site_type_symbol
  _atom_site_label
  _atom_site_symmetry_multiplicity
  _atom_site_fract_x
  _atom_site_fract_y
  _atom_site_fract_z
  _atom_site_occupancy
  La  La1       1.0  0.21503000000000005  0.14679  0.46922  1.0000
  La  La2       1.0  0.78497  0.85321  0.53078  1.0000
  P   P1        1.0  0.71901  0.17396  0.66591  1.0000
  P   P2        1.0  0.66258  0.164  0.3124  1.0000
  P   P3        1.0  0.28098000000000006  0.8260399999999999  0.33409  1.0000
  P   P4        1.0  0.33741  0.836  0.6876  1.0000
  H   H1        1.0  0.49055999999999994  0.97037  0.16877  1.0000
  H   H2        1.0  0.027780000000000003  0.27395  0.7435599999999999  1.0000
  H   H3        1.0  0.7706600000000002  0.39003  0.73234  1.0000
  H   H4        1.0  0.6654199999999999  0.38942  0.47601999999999994  1.0000
  H   H5        1.0  0.6880400000000001  0.52978  0.557  1.0000
  H   H6        1.0  0.030959999999999998  0.54646  0.66141  1.0000
  H   H7        1.0  0.27084000000000014  0.41656  0.65922  1.0000
  H   H8        1.0  0.91603  0.01829  0.20423999999999998  1.0000
  H   H9        1.0  0.8307600000000003  0.17302  0.11691  1.0000
  H   H10       1.0  0.8319900000000001  0.9853099999999999  0.97093  1.0000
  H   H11       1.0  0.83457  0.8549  0.08952999999999998  1.0000
  H   H12       1.0  0.35279  0.20056000000000002  0.09809  1.0000
  H   H13       1.0  0.5477200000000001  0.19104999999999997  0.9757799999999998  1.0000
  H   H14       1.0  0.5094300000000002  0.029630000000000004  0.8312399999999999  1.0000
  H   H15       1.0  0.9722100000000006  0.72605  0.25644  1.0000
  H   H16       1.0  0.22932999999999998  0.60997  0.26766999999999996  1.0000
  H   H17       1.0  0.33457000000000003  0.6105799999999998  0.52399  1.0000
  H   H18       1.0  0.31195000000000006  0.4702299999999999  0.4429999999999999  1.0000
  H   H19       1.0  0.9690300000000001  0.45354999999999995  0.33859  1.0000
  H   H20       1.0  0.7291500000000002  0.58345  0.34079  1.0000
  H   H21       1.0  0.08397  0.98171  0.7957599999999999  1.0000
  H   H22       1.0  0.16922999999999996  0.82698  0.8830999999999998  1.0000
  H   H23       1.0  0.168  0.014700000000000001  0.029069999999999995  1.0000
  H   H24       1.0  0.16542000000000004  0.14509999999999998  0.9104699999999999  1.0000
  H   H25       1.0  0.6472  0.79945  0.9019099999999999  1.0000
  H   H26       1.0  0.45227999999999996  0.80896  0.024229999999999998  1.0000
  C   C1        1.0  0.8800600000000002  0.31422999999999995  0.68535  1.0000
  C   C2        1.0  0.78318  0.4559  0.5025  1.0000
  C   C3        1.0  0.12575  0.47231000000000006  0.60722  1.0000
  C   C4        1.0  0.76864  0.09403  0.17611  1.0000
  C   C5        1.0  0.72543  0.9310999999999999  0.03208  1.0000
  C   C6        1.0  0.44309000000000004  0.13434  0.03645  1.0000
  C   C7        1.0  0.11992999999999998  0.68578  0.31465  1.0000
  C   C8        1.0  0.21681000000000003  0.54411  0.4974999999999999  1.0000
  C   C9        1.0  0.87425  0.52769  0.39277999999999996  1.0000
  C   C10       1.0  0.23135  0.9059700000000002  0.8239  1.0000
  C   C11       1.0  0.2745600000000001  0.06891000000000001  0.96792  1.0000
  C   C12       1.0  0.5569  0.86566  0.96356  1.0000
  N   N1        1.0  0.97263  0.37571  0.5750499999999998  1.0000
  N   N2        1.0  0.6019900000000001  0.029669999999999995  0.10938  1.0000
  N   N3        1.0  0.02736000000000001  0.6243  0.4249599999999999  1.0000
  N   N4        1.0  0.398  0.97033  0.89063  1.0000
  O   O1        1.0  0.4981300000000002  0.22696999999999998  0.59487  1.0000
  O   O2        1.0  0.89019  0.0735  0.60008  1.0000
  O   O3        1.0  0.6788600000000001  0.11454000000000004  0.7931499999999998  1.0000
  O   O4        1.0  0.87565  0.22037999999999996  0.35051  1.0000
  O   O5        1.0  0.43849000000000005  0.26128  0.29412999999999995  1.0000
  O   O6        1.0  0.6014300000000001  0.041149999999999985  0.39348  1.0000
  O   O7        1.0  0.50186  0.77304  0.40513  1.0000
  O   O8        1.0  0.10980999999999999  0.9265  0.39991999999999994  1.0000
  O   O9        1.0  0.32114  0.88547  0.20685  1.0000
  O   O10       1.0  0.12435000000000002  0.7796200000000001  0.64949  1.0000
  O   O11       1.0  0.5615  0.7387199999999999  0.7058799999999998  1.0000
  O   O12       1.0  0.39856  0.95885  0.60652  1.0000
