data_image0
_chemical_formula_structural       Ca6H18C42N6O24
_chemical_formula_sum              "Ca6 H18 C42 N6 O24"
_cell_length_a       12.23387
_cell_length_b       14.11393
_cell_length_c       14.894049999999998
_cell_angle_alpha    96.22653
_cell_angle_beta     113.40485
_cell_angle_gamma    108.72568

_space_group_name_H-M_alt    "P 1"
_space_group_IT_number       1

loop_
  _space_group_symop_operation_xyz
  'x, y, z'

loop_
  _atom_site_type_symbol
  _atom_site_label
  _atom_site_symmetry_multiplicity
  _atom_site_fract_x
  _atom_site_fract_y
  _atom_site_fract_z
  _atom_site_occupancy
  Ca  Ca1       1.0  0.69246  0.5907699999999999  0.5798099999999999  1.0000
  Ca  Ca2       1.0  0.4637799999999999  0.93106  0.12557999999999997  1.0000
  Ca  Ca3       1.0  0.30754  0.40923  0.42018999999999995  1.0000
  Ca  Ca4       1.0  0.5362099999999997  0.06893999999999993  0.8744099999999998  1.0000
  Ca  Ca5       1.0  0.0  0.0  0.4999999999999999  1.0000
  Ca  Ca6       1.0  0.0  0.5  0.0  1.0000
  H   H1        1.0  0.95511  0.79072  0.60584  1.0000
  H   H2        1.0  0.5133999999999999  0.59353  0.37408  1.0000
  H   H3        1.0  0.9230399999999999  0.63336  0.81936  1.0000
  H   H4        1.0  0.2666100000000001  0.9112500000000002  0.91157  1.0000
  H   H5        1.0  0.68476  0.88317  0.31566  1.0000
  H   H6        1.0  0.28661  0.71236  0.15035  1.0000
  H   H7        1.0  0.5836299999999998  0.80117  0.7870499999999999  1.0000
  H   H8        1.0  0.30532999999999977  0.6519299999999998  0.8889799999999998  1.0000
  H   H9        1.0  0.31582999999999994  0.47937  0.65115  1.0000
  H   H10       1.0  0.04488999999999992  0.20928000000000002  0.3941499999999999  1.0000
  H   H11       1.0  0.4866  0.40648  0.62592  1.0000
  H   H12       1.0  0.07695999999999999  0.3666400000000001  0.18062999999999996  1.0000
  H   H13       1.0  0.73338  0.08875  0.08843  1.0000
  H   H14       1.0  0.3152299999999998  0.11682999999999993  0.6843399999999997  1.0000
  H   H15       1.0  0.71338  0.28764  0.8496399999999998  1.0000
  H   H16       1.0  0.41637  0.19882999999999998  0.21294999999999997  1.0000
  H   H17       1.0  0.6946599999999999  0.34807  0.11102  1.0000
  H   H18       1.0  0.68416  0.52063  0.3488499999999999  1.0000
  C   C1        1.0  0.12124999999999991  0.8609999999999999  0.7547399999999999  1.0000
  C   C2        1.0  0.10138  0.77034  0.87944  1.0000
  C   C3        1.0  0.9985000000000002  0.7869500000000001  0.6840499999999998  1.0000
  C   C4        1.0  0.38541999999999993  0.64192  0.26001  1.0000
  C   C5        1.0  0.50621  0.65295  0.33403  1.0000
  C   C6        1.0  0.61662  0.7398400000000002  0.35472999999999993  1.0000
  C   C7        1.0  0.98022  0.69923  0.8029599999999998  1.0000
  C   C8        1.0  0.17267999999999986  0.8531299999999999  0.8545599999999998  1.0000
  C   C9        1.0  0.74828  0.75474  0.4342499999999999  1.0000
  C   C10       1.0  0.5183799999999997  0.63027  0.6422099999999997  1.0000
  C   C11       1.0  0.44912  0.7392  0.847  1.0000
  C   C12       1.0  0.45625  0.63956  0.70931  1.0000
  C   C13       1.0  0.60127  0.8138  0.301  1.0000
  C   C14       1.0  0.37919  0.7187200000000001  0.20888999999999994  1.0000
  C   C15       1.0  0.19477999999999976  0.9440299999999997  0.7204499999999998  1.0000
  C   C16       1.0  0.49347  0.83906  0.92342  1.0000
  C   C17       1.0  0.26407  0.55172  0.23843999999999996  1.0000
  C   C18       1.0  0.15094999999999995  0.75586  0.9849899999999999  1.0000
  C   C19       1.0  0.50416  0.7336900000000001  0.7816099999999999  1.0000
  C   C20       1.0  0.3488500000000001  0.6489400000000001  0.83805  1.0000
  C   C21       1.0  0.35448999999999986  0.55425  0.7058799999999997  1.0000
  C   C22       1.0  0.87875  0.139  0.24524999999999994  1.0000
  C   C23       1.0  0.89861  0.22965999999999998  0.12055999999999997  1.0000
  C   C24       1.0  0.0014900000000000245  0.21305000000000002  0.31595  1.0000
  C   C25       1.0  0.61458  0.35808  0.73998  1.0000
  C   C26       1.0  0.4937799999999998  0.3470499999999999  0.6659699999999997  1.0000
  C   C27       1.0  0.38337  0.26016  0.64526  1.0000
  C   C28       1.0  0.01977999999999998  0.30077  0.19703  1.0000
  C   C29       1.0  0.8273099999999999  0.14687  0.14542999999999998  1.0000
  C   C30       1.0  0.25172  0.24526000000000003  0.56574  1.0000
  C   C31       1.0  0.48161000000000004  0.36973  0.35779  1.0000
  C   C32       1.0  0.55087  0.2608  0.153  1.0000
  C   C33       1.0  0.54375  0.36044  0.29067999999999994  1.0000
  C   C34       1.0  0.39871999999999996  0.1862  0.69899  1.0000
  C   C35       1.0  0.62081  0.28128  0.7911  1.0000
  C   C36       1.0  0.80521  0.055970000000000006  0.27955  1.0000
  C   C37       1.0  0.50653  0.16094  0.07658  1.0000
  C   C38       1.0  0.7359299999999998  0.44828  0.7615499999999997  1.0000
  C   C39       1.0  0.84905  0.24414  0.015009999999999997  1.0000
  C   C40       1.0  0.49583  0.26631  0.21837999999999996  1.0000
  C   C41       1.0  0.6511499999999999  0.35106  0.16195  1.0000
  C   C42       1.0  0.64551  0.44574999999999987  0.29411  1.0000
  N   N1        1.0  0.9282  0.7072200000000001  0.70697  1.0000
  N   N2        1.0  0.48481  0.80412  0.22952999999999996  1.0000
  N   N3        1.0  0.30124000000000006  0.55775  0.76916  1.0000
  N   N4        1.0  0.07180000000000003  0.29278  0.29302  1.0000
  N   N5        1.0  0.51519  0.19588000000000005  0.77047  1.0000
  N   N6        1.0  0.6987500000000001  0.44225  0.23082999999999998  1.0000
  O   O1        1.0  0.24456999999999995  0.83232  0.05701999999999999  1.0000
  O   O2        1.0  0.75561  0.68278  0.47764  1.0000
  O   O3        1.0  0.4602499999999998  0.5504099999999997  0.5640899999999999  1.0000
  O   O4        1.0  0.31755999999999995  0.9848500000000001  0.77089  1.0000
  O   O5        1.0  0.12933999999999993  0.96731  0.6413999999999997  1.0000
  O   O6        1.0  0.16348  0.52903  0.15408999999999998  1.0000
  O   O7        1.0  0.26912999999999976  0.5041099999999997  0.3062899999999999  1.0000
  O   O8        1.0  0.84494  0.83843  0.4541599999999999  1.0000
  O   O9        1.0  0.09528999999999985  0.66695  0.9955499999999998  1.0000
  O   O10       1.0  0.5598299999999999  0.9233400000000002  0.91262  1.0000
  O   O11       1.0  0.62988  0.69836  0.66617  1.0000
  O   O12       1.0  0.4606499999999999  0.8334199999999999  0.9943899999999999  1.0000
  O   O13       1.0  0.7554199999999999  0.16768  0.94298  1.0000
  O   O14       1.0  0.24439  0.31722  0.52235  1.0000
  O   O15       1.0  0.53974  0.44960000000000006  0.43591  1.0000
  O   O16       1.0  0.68243  0.015149999999999995  0.22910999999999998  1.0000
  O   O17       1.0  0.87066  0.03269000000000001  0.3586  1.0000
  O   O18       1.0  0.8365099999999999  0.47096999999999994  0.8459099999999998  1.0000
  O   O19       1.0  0.7308599999999997  0.49588999999999994  0.6936999999999999  1.0000
  O   O20       1.0  0.15505999999999995  0.16157  0.54584  1.0000
  O   O21       1.0  0.9047099999999999  0.33305  0.004449999999999999  1.0000
  O   O22       1.0  0.4401699999999998  0.07666  0.08738  1.0000
  O   O23       1.0  0.3701099999999999  0.30164  0.3338299999999999  1.0000
  O   O24       1.0  0.53935  0.16658  0.00561  1.0000
