data_image0
_chemical_formula_structural       Ca4H8C24O20
_chemical_formula_sum              "Ca4 H8 C24 O20"
_cell_length_a       9.59004
_cell_length_b       10.42977
_cell_length_c       11.661599999999998
_cell_angle_alpha    74.96311
_cell_angle_beta     85.46993
_cell_angle_gamma    79.93637

_space_group_name_H-M_alt    "P 1"
_space_group_IT_number       1

loop_
  _space_group_symop_operation_xyz
  'x, y, z'

loop_
  _atom_site_type_symbol
  _atom_site_label
  _atom_site_symmetry_multiplicity
  _atom_site_fract_x
  _atom_site_fract_y
  _atom_site_fract_z
  _atom_site_occupancy
  Ca  Ca1       1.0  0.4699  0.4169599999999999  0.35129  1.0000
  Ca  Ca2       1.0  0.5301  0.58303  0.64871  1.0000
  Ca  Ca3       1.0  0.5  0.0  0.5  1.0000
  Ca  Ca4       1.0  0.5  0.5  0.0  1.0000
  H   H1        1.0  0.039530000000000044  0.71636  0.9593899999999999  1.0000
  H   H2        1.0  0.7594099999999999  0.68021  0.9963699999999999  1.0000
  H   H3        1.0  0.3615399999999999  0.78219  0.13345  1.0000
  H   H4        1.0  0.3532  0.04945  0.022470000000000004  1.0000
  H   H5        1.0  0.9604699999999999  0.28363999999999995  0.04061  1.0000
  H   H6        1.0  0.24058  0.31978  0.00363  1.0000
  H   H7        1.0  0.63845  0.2178  0.8665499999999999  1.0000
  H   H8        1.0  0.64679  0.9505499999999999  0.97753  1.0000
  C   C1        1.0  0.21224000000000004  0.5522599999999999  0.16422  1.0000
  C   C2        1.0  0.060460000000000014  0.5778  0.1366  1.0000
  C   C3        1.0  0.99051  0.65597  0.03679  1.0000
  C   C4        1.0  0.8468399999999999  0.6372999999999999  0.055349999999999996  1.0000
  C   C5        1.0  0.83694  0.54875  0.16552  1.0000
  C   C6        1.0  0.7158500000000001  0.48986  0.22999  1.0000
  C   C7        1.0  0.45948000000000006  0.7382  0.3945600000000001  1.0000
  C   C8        1.0  0.42509  0.8444699999999999  0.28587  1.0000
  C   C9        1.0  0.38445  0.86086  0.17165  1.0000
  C   C10       1.0  0.38014  0.0003099999999999973  0.11361  1.0000
  C   C11       1.0  0.41801  0.06208000000000001  0.19471  1.0000
  C   C12       1.0  0.44456000000000007  0.19543  0.20037999999999997  1.0000
  C   C13       1.0  0.7877500000000001  0.44774  0.83578  1.0000
  C   C14       1.0  0.93954  0.42219  0.8634  1.0000
  C   C15       1.0  0.009480000000000021  0.3440199999999999  0.96321  1.0000
  C   C16       1.0  0.15315  0.3627  0.9446499999999999  1.0000
  C   C17       1.0  0.16305000000000006  0.45124999999999993  0.83447  1.0000
  C   C18       1.0  0.28415  0.5101400000000001  0.7700099999999999  1.0000
  C   C19       1.0  0.54051  0.26179  0.60544  1.0000
  C   C20       1.0  0.57491  0.15553  0.71413  1.0000
  C   C21       1.0  0.61554  0.13914  0.8283499999999999  1.0000
  C   C22       1.0  0.6198500000000001  0.99968  0.8863899999999999  1.0000
  C   C23       1.0  0.58199  0.9379199999999999  0.8052899999999998  1.0000
  C   C24       1.0  0.55544  0.8045599999999999  0.7996099999999999  1.0000
  O   O1        1.0  0.29397  0.60572  0.07981  1.0000
  O   O2        1.0  0.25052  0.48043  0.26607  1.0000
  O   O3        1.0  0.96696  0.51255  0.21668  1.0000
  O   O4        1.0  0.72277  0.42250999999999994  0.33686  1.0000
  O   O5        1.0  0.59992  0.51327  0.17159  1.0000
  O   O6        1.0  0.5062100000000003  0.7788100000000001  0.47897999999999996  1.0000
  O   O7        1.0  0.4448500000000001  0.619  0.40529  1.0000
  O   O8        1.0  0.44432000000000005  0.9674899999999999  0.30071  1.0000
  O   O9        1.0  0.47520000000000007  0.20083  0.30477  1.0000
  O   O10       1.0  0.43800000000000006  0.28875999999999996  0.10718  1.0000
  O   O11       1.0  0.7060300000000002  0.39427000000000006  0.92019  1.0000
  O   O12       1.0  0.74947  0.51956  0.73393  1.0000
  O   O13       1.0  0.03303000000000001  0.48744999999999994  0.7833199999999999  1.0000
  O   O14       1.0  0.27722000000000013  0.57749  0.66314  1.0000
  O   O15       1.0  0.40007  0.48671999999999993  0.82841  1.0000
  O   O16       1.0  0.4937899999999999  0.22119  0.52102  1.0000
  O   O17       1.0  0.55514  0.38100000000000006  0.59471  1.0000
  O   O18       1.0  0.55568  0.032510000000000025  0.69929  1.0000
  O   O19       1.0  0.5247899999999999  0.79917  0.69523  1.0000
  O   O20       1.0  0.5619899999999999  0.7112400000000001  0.8928199999999998  1.0000
