data_image0
_chemical_formula_structural       Er2H28C48N4O12
_chemical_formula_sum              "Er2 H28 C48 N4 O12"
_cell_length_a       10.01994
_cell_length_b       10.93214
_cell_length_c       13.06825
_cell_angle_alpha    98.64958
_cell_angle_beta     108.84496
_cell_angle_gamma    109.32236000000002

_space_group_name_H-M_alt    "P 1"
_space_group_IT_number       1

loop_
  _space_group_symop_operation_xyz
  'x, y, z'

loop_
  _atom_site_type_symbol
  _atom_site_label
  _atom_site_symmetry_multiplicity
  _atom_site_fract_x
  _atom_site_fract_y
  _atom_site_fract_z
  _atom_site_occupancy
  Er  Er1       1.0  0.15351000000000006  0.7059300000000001  0.19484  1.0000
  Er  Er2       1.0  0.8465099999999999  0.29409  0.80516  1.0000
  H   H1        1.0  0.73627  0.62445  0.17723  1.0000
  H   H2        1.0  0.51413  0.3595  0.83822  1.0000
  H   H3        1.0  0.8356399999999998  0.9216199999999999  0.29432  1.0000
  H   H4        1.0  0.2293  0.94534  0.57006  1.0000
  H   H5        1.0  0.21362  0.40391999999999995  0.4269  1.0000
  H   H6        1.0  0.6348  0.68435  0.4317  1.0000
  H   H7        1.0  0.9523999999999999  0.62701  0.9142599999999999  1.0000
  H   H8        1.0  0.8863000000000001  0.7307300000000001  0.7599900000000002  1.0000
  H   H9        1.0  0.01790000000000005  0.9855600000000001  0.8013  1.0000
  H   H10       1.0  0.21647999999999998  0.2058  0.93881  1.0000
  H   H11       1.0  0.41863999999999996  0.33553  0.13051  1.0000
  H   H12       1.0  0.57068  0.33748  0.32869  1.0000
  H   H13       1.0  0.62848  0.20309000000000002  0.46494  1.0000
  H   H14       1.0  0.47348999999999986  0.9526699999999999  0.40241  1.0000
  H   H15       1.0  0.2637400000000001  0.37555000000000005  0.8227500000000001  1.0000
  H   H16       1.0  0.48588  0.6405  0.16176  1.0000
  H   H17       1.0  0.16436999999999993  0.07837000000000002  0.70568  1.0000
  H   H18       1.0  0.77071  0.054650000000000004  0.42993  1.0000
  H   H19       1.0  0.78639  0.59609  0.5731  1.0000
  H   H20       1.0  0.36521  0.31567  0.5683  1.0000
  H   H21       1.0  0.04761  0.37299  0.08572  1.0000
  H   H22       1.0  0.11369999999999998  0.26929  0.23999  1.0000
  H   H23       1.0  0.9820999999999999  0.014460000000000004  0.1987  1.0000
  H   H24       1.0  0.78352  0.79421  0.06119  1.0000
  H   H25       1.0  0.58135  0.66447  0.86949  1.0000
  H   H26       1.0  0.42930999999999997  0.66253  0.6713  1.0000
  H   H27       1.0  0.37152  0.7969200000000001  0.53505  1.0000
  H   H28       1.0  0.52653  0.047340000000000035  0.59758  1.0000
  C   C1        1.0  0.7878  0.48269  0.01596  1.0000
  C   C2        1.0  0.6387299999999999  0.49011  0.00891  1.0000
  C   C3        1.0  0.63201  0.5699  0.10044  1.0000
  C   C4        1.0  0.5061199999999999  0.4201  0.90842  1.0000
  C   C5        1.0  0.07809000000000005  0.8500600000000001  0.34339  1.0000
  C   C6        1.0  0.03717999999999995  0.92662  0.42418  1.0000
  C   C7        1.0  0.90724  0.95679  0.38435  1.0000
  C   C8        1.0  0.12936999999999996  0.9697499999999999  0.54032  1.0000
  C   C9        1.0  0.32477999999999996  0.59971  0.33555  1.0000
  C   C10       1.0  0.41530999999999996  0.54777  0.41987  1.0000
  C   C11       1.0  0.33893  0.44434  0.45883  1.0000
  C   C12       1.0  0.5771  0.60348  0.46189  1.0000
  C   C13       1.0  0.009029999999999982  0.73579  0.93014  1.0000
  C   C14       1.0  0.97289  0.7955500000000001  0.8427299999999999  1.0000
  C   C15       1.0  0.0462799999999999  0.93389  0.8649299999999999  1.0000
  C   C16       1.0  0.1602899999999999  0.011920000000000033  0.97408  1.0000
  C   C17       1.0  0.24430999999999997  0.1553  0.0032599999999999994  1.0000
  C   C18       1.0  0.35541  0.22658  0.1093  1.0000
  C   C19       1.0  0.3913  0.15977  0.19419  1.0000
  C   C20       1.0  0.50698  0.22808  0.3044  1.0000
  C   C21       1.0  0.53825  0.15512000000000004  0.38016000000000005  1.0000
  C   C22       1.0  0.45195  0.014330000000000035  0.3461000000000001  1.0000
  C   C23       1.0  0.30894  0.01745  0.16789  1.0000
  C   C24       1.0  0.19065000000000007  0.9430700000000001  0.05681  1.0000
  C   C25       1.0  0.21220999999999998  0.51731  0.98403  1.0000
  C   C26       1.0  0.36127000000000004  0.50989  0.99107  1.0000
  C   C27       1.0  0.3679999999999998  0.4301  0.8995399999999999  1.0000
  C   C28       1.0  0.49388999999999994  0.5799  0.09156  1.0000
  C   C29       1.0  0.92191  0.14994  0.6566  1.0000
  C   C30       1.0  0.9628199999999999  0.07336000000000002  0.57582  1.0000
  C   C31       1.0  0.09276  0.043200000000000016  0.61564  1.0000
  C   C32       1.0  0.8706399999999999  0.030240000000000027  0.4596700000000001  1.0000
  C   C33       1.0  0.67522  0.4002800000000001  0.66443  1.0000
  C   C34       1.0  0.5847  0.45224  0.58013  1.0000
  C   C35       1.0  0.66108  0.55566  0.54116  1.0000
  C   C36       1.0  0.42291000000000006  0.39652000000000004  0.53811  1.0000
  C   C37       1.0  0.9909699999999999  0.26422  0.06984  1.0000
  C   C38       1.0  0.027110000000000002  0.20447  0.15726  1.0000
  C   C39       1.0  0.95374  0.06613  0.13507  1.0000
  C   C40       1.0  0.83972  0.9881  0.025919999999999995  1.0000
  C   C41       1.0  0.7556999999999999  0.84471  0.99673  1.0000
  C   C42       1.0  0.64459  0.77342  0.89069  1.0000
  C   C43       1.0  0.6087  0.84025  0.8058  1.0000
  C   C44       1.0  0.49302  0.7719300000000001  0.69559  1.0000
  C   C45       1.0  0.46175  0.84489  0.61983  1.0000
  C   C46       1.0  0.54806  0.9856800000000001  0.65389  1.0000
  C   C47       1.0  0.6910599999999999  0.9825700000000002  0.83209  1.0000
  C   C48       1.0  0.80936  0.05694999999999997  0.9431799999999999  1.0000
  N   N1        1.0  0.11277000000000002  0.8070600000000001  0.03488  1.0000
  N   N2        1.0  0.33914  0.94679  0.24363  1.0000
  N   N3        1.0  0.88724  0.19295  0.9651  1.0000
  N   N4        1.0  0.6608699999999998  0.05322999999999998  0.75636  1.0000
  O   O1        1.0  0.90751  0.55173  0.10651  1.0000
  O   O2        1.0  0.7871  0.4097  0.93033  1.0000
  O   O3        1.0  0.013710000000000076  0.83513  0.2374  1.0000
  O   O4        1.0  0.17765  0.80096  0.38007  1.0000
  O   O5        1.0  0.17868  0.53321  0.28333  1.0000
  O   O6        1.0  0.3944099999999999  0.71085  0.31798  1.0000
  O   O7        1.0  0.09249999999999997  0.44827000000000006  0.8935  1.0000
  O   O8        1.0  0.21293  0.5903  0.06968  1.0000
  O   O9        1.0  0.9862999999999998  0.16488000000000005  0.76259  1.0000
  O   O10       1.0  0.82232  0.19901000000000002  0.61991  1.0000
  O   O11       1.0  0.82133  0.46679  0.71666  1.0000
  O   O12       1.0  0.6056  0.28917  0.68202  1.0000
