data_image0
_chemical_formula_structural       Li8H16C32O16
_chemical_formula_sum              "Li8 H16 C32 O16"
_cell_length_a       9.65534
_cell_length_b       9.65547
_cell_length_c       12.89429
_cell_angle_alpha    89.92395
_cell_angle_beta     90.07555
_cell_angle_gamma    94.59729

_space_group_name_H-M_alt    "P 1"
_space_group_IT_number       1

loop_
  _space_group_symop_operation_xyz
  'x, y, z'

loop_
  _atom_site_type_symbol
  _atom_site_label
  _atom_site_symmetry_multiplicity
  _atom_site_fract_x
  _atom_site_fract_y
  _atom_site_fract_z
  _atom_site_occupancy
  Li  Li1       1.0  0.04563  0.12384999999999999  0.09936  1.0000
  Li  Li2       1.0  0.9548699999999999  0.8754599999999999  0.59809  1.0000
  Li  Li3       1.0  0.8754499999999998  0.95488  0.40190999999999993  1.0000
  Li  Li4       1.0  0.12385  0.04563  0.9006399999999999  1.0000
  Li  Li5       1.0  0.06988  0.93092  0.25096  1.0000
  Li  Li6       1.0  0.93091  0.06988  0.7490399999999999  1.0000
  Li  Li7       1.0  0.25779  0.7425  0.24957  1.0000
  Li  Li8       1.0  0.7425  0.2578  0.75042  1.0000
  H   H1        1.0  0.004399999999999995  0.36105  0.6561  1.0000
  H   H2        1.0  0.01962  0.17599  0.52572  1.0000
  H   H3        1.0  0.06153  0.4812199999999999  0.28322  1.0000
  H   H4        1.0  0.00407  0.60839  0.60045  1.0000
  H   H5        1.0  0.9955100000000001  0.64051  0.15536999999999998  1.0000
  H   H6        1.0  0.9800899999999999  0.82471  0.02419  1.0000
  H   H7        1.0  0.93858  0.51835  0.78293  1.0000
  H   H8        1.0  0.99612  0.39277  0.10094  1.0000
  H   H9        1.0  0.64051  0.99551  0.84463  1.0000
  H   H10       1.0  0.82471  0.9800999999999999  0.97581  1.0000
  H   H11       1.0  0.5183499999999999  0.9385899999999999  0.21706  1.0000
  H   H12       1.0  0.39278  0.99612  0.89906  1.0000
  H   H13       1.0  0.36104  0.00441  0.3439  1.0000
  H   H14       1.0  0.17597  0.01962  0.4742799999999999  1.0000
  H   H15       1.0  0.48121  0.06153999999999999  0.71678  1.0000
  H   H16       1.0  0.60838  0.00407  0.39954  1.0000
  C   C1        1.0  0.012990000000000007  0.38834  0.57421  1.0000
  C   C2        1.0  0.023  0.28358  0.50059  1.0000
  C   C3        1.0  0.04003  0.31661  0.39515  1.0000
  C   C4        1.0  0.04778  0.4564  0.36497  1.0000
  C   C5        1.0  0.03374  0.56175  0.43821  1.0000
  C   C6        1.0  0.015489999999999999  0.52701  0.54344  1.0000
  C   C7        1.0  0.0509  0.20324999999999996  0.31602  1.0000
  C   C8        1.0  0.034439999999999985  0.70962  0.40453  1.0000
  C   C9        1.0  0.9869  0.61258  0.07363  1.0000
  C   C10       1.0  0.97679  0.71705  0.9995099999999999  1.0000
  C   C11       1.0  0.9598500000000001  0.68373  0.89416  1.0000
  C   C12       1.0  0.9521400000000001  0.54372  0.8646  1.0000
  C   C13       1.0  0.9660499999999999  0.43846  0.9382599999999999  1.0000
  C   C14       1.0  0.9844  0.47372999999999993  0.04344  1.0000
  C   C15       1.0  0.9491000000000002  0.79693  0.8144799999999999  1.0000
  C   C16       1.0  0.9656300000000001  0.29037  0.90492  1.0000
  C   C17       1.0  0.61259  0.9869099999999998  0.9263699999999998  1.0000
  C   C18       1.0  0.71705  0.97679  0.00049  1.0000
  C   C19       1.0  0.68373  0.95985  0.10584  1.0000
  C   C20       1.0  0.54372  0.95214  0.13539  1.0000
  C   C21       1.0  0.43846  0.96605  0.06174  1.0000
  C   C22       1.0  0.47373  0.9844  0.95656  1.0000
  C   C23       1.0  0.79692  0.9490999999999999  0.18552  1.0000
  C   C24       1.0  0.29037  0.96564  0.09507999999999998  1.0000
  C   C25       1.0  0.38833  0.012989999999999998  0.42578  1.0000
  C   C26       1.0  0.28357  0.023  0.49941  1.0000
  C   C27       1.0  0.3166  0.04003999999999999  0.60484  1.0000
  C   C28       1.0  0.4564  0.04778  0.63503  1.0000
  C   C29       1.0  0.56175  0.03373999999999999  0.56179  1.0000
  C   C30       1.0  0.527  0.01549  0.45656  1.0000
  C   C31       1.0  0.20324  0.05091  0.68398  1.0000
  C   C32       1.0  0.70961  0.03445  0.59547  1.0000
  O   O1        1.0  0.07636  0.23633999999999997  0.22236  1.0000
  O   O2        1.0  0.03490000000000001  0.0772  0.3493  1.0000
  O   O3        1.0  0.09065  0.74377  0.3164  1.0000
  O   O4        1.0  0.9783600000000001  0.797  0.46078  1.0000
  O   O5        1.0  0.9238699999999999  0.76332  0.7208599999999998  1.0000
  O   O6        1.0  0.96499  0.92318  0.84705  1.0000
  O   O7        1.0  0.91061  0.25642  0.81608  1.0000
  O   O8        1.0  0.020979999999999995  0.20313999999999996  0.96214  1.0000
  O   O9        1.0  0.76331  0.92387  0.27914  1.0000
  O   O10       1.0  0.9231799999999999  0.96499  0.15294  1.0000
  O   O11       1.0  0.25641  0.91062  0.18391999999999997  1.0000
  O   O12       1.0  0.20313  0.02099  0.03785  1.0000
  O   O13       1.0  0.23634  0.07637  0.77764  1.0000
  O   O14       1.0  0.07719  0.03491  0.6507  1.0000
  O   O15       1.0  0.74376  0.09065  0.68359  1.0000
  O   O16       1.0  0.797  0.97836  0.53921  1.0000
