data_image0
_chemical_formula_structural       La2H14C30O14
_chemical_formula_sum              "La2 H14 C30 O14"
_cell_length_a       9.37164
_cell_length_b       9.64053
_cell_length_c       11.64714
_cell_angle_alpha    91.0076
_cell_angle_beta     99.27177
_cell_angle_gamma    108.11916

_space_group_name_H-M_alt    "P 1"
_space_group_IT_number       1

loop_
  _space_group_symop_operation_xyz
  'x, y, z'

loop_
  _atom_site_type_symbol
  _atom_site_label
  _atom_site_symmetry_multiplicity
  _atom_site_fract_x
  _atom_site_fract_y
  _atom_site_fract_z
  _atom_site_occupancy
  La  La1       1.0  0.7164900000000001  0.9688899999999999  0.05668  1.0000
  La  La2       1.0  0.2835199999999999  0.03110999999999998  0.9433099999999998  1.0000
  H   H1        1.0  0.6757  0.52398  0.9635999999999999  1.0000
  H   H2        1.0  0.8116500000000001  0.20039  0.7868899999999999  1.0000
  H   H3        1.0  0.09979000000000002  0.6484  0.83117  1.0000
  H   H4        1.0  0.8200100000000002  0.42288  0.5911  1.0000
  H   H5        1.0  0.72021  0.29837  0.39077999999999996  1.0000
  H   H6        1.0  0.07806  0.10326  0.42946  1.0000
  H   H7        1.0  0.17956000000000005  0.22891  0.63047  1.0000
  H   H8        1.0  0.32430000000000003  0.47602000000000005  0.0364  1.0000
  H   H9        1.0  0.18835  0.79961  0.21311  1.0000
  H   H10       1.0  0.9002200000000001  0.3516  0.16883  1.0000
  H   H11       1.0  0.17999  0.57712  0.4089  1.0000
  H   H12       1.0  0.2798000000000001  0.70163  0.60922  1.0000
  H   H13       1.0  0.92194  0.8967400000000001  0.57054  1.0000
  H   H14       1.0  0.8204499999999999  0.77109  0.36951999999999996  1.0000
  C   C1        1.0  0.92474  0.75517  0.9542599999999999  1.0000
  C   C2        1.0  0.89199  0.60232  0.90466  1.0000
  C   C3        1.0  0.7567  0.49512  0.9186  1.0000
  C   C4        1.0  0.7292800000000002  0.34952999999999995  0.87905  1.0000
  C   C5        1.0  0.59031  0.23663  0.90354  1.0000
  C   C6        1.0  0.83179  0.3127  0.8186899999999999  1.0000
  C   C7        1.0  0.96048  0.42306  0.79801  1.0000
  C   C8        1.0  0.99502  0.56625  0.8441799999999999  1.0000
  C   C9        1.0  0.002839999999999995  0.32849  0.62226  1.0000
  C   C10       1.0  0.87476  0.35179  0.5557  1.0000
  C   C11       1.0  0.81969  0.28274  0.44416  1.0000
  C   C12       1.0  0.8907000000000005  0.19048  0.3991  1.0000
  C   C13       1.0  0.82365  0.1088  0.28429  1.0000
  C   C14       1.0  0.02305999999999999  0.1739  0.46528  1.0000
  C   C15       1.0  0.08013999999999999  0.24355  0.57642  1.0000
  C   C16       1.0  0.07527  0.24483  0.045739999999999996  1.0000
  C   C17       1.0  0.10801  0.39768  0.09533999999999998  1.0000
  C   C18       1.0  0.24331  0.50488  0.0814  1.0000
  C   C19       1.0  0.27072  0.65047  0.12095  1.0000
  C   C20       1.0  0.40969  0.76337  0.09646  1.0000
  C   C21       1.0  0.16821000000000005  0.6873  0.18130999999999997  1.0000
  C   C22       1.0  0.03953000000000001  0.57694  0.20199  1.0000
  C   C23       1.0  0.004979999999999997  0.43375  0.15582  1.0000
  C   C24       1.0  0.99716  0.67151  0.37773999999999996  1.0000
  C   C25       1.0  0.12524  0.64821  0.4442999999999999  1.0000
  C   C26       1.0  0.18032000000000006  0.71726  0.55584  1.0000
  C   C27       1.0  0.10930999999999999  0.80952  0.6009  1.0000
  C   C28       1.0  0.17635  0.8912  0.71571  1.0000
  C   C29       1.0  0.97694  0.8261  0.53472  1.0000
  C   C30       1.0  0.91987  0.75645  0.42356999999999995  1.0000
  O   O1        1.0  0.06174000000000001  0.84047  0.9720399999999999  1.0000
  O   O2        1.0  0.8125700000000001  0.79191  0.97787  1.0000
  O   O3        1.0  0.47273000000000004  0.27211  0.91121  1.0000
  O   O4        1.0  0.59011  0.10257  0.91738  1.0000
  O   O5        1.0  0.06196000000000003  0.39003  0.7352499999999998  1.0000
  O   O6        1.0  0.7146  0.13906  0.21801  1.0000
  O   O7        1.0  0.8745000000000002  0.007660000000000002  0.2504  1.0000
  O   O8        1.0  0.93826  0.15953  0.027959999999999995  1.0000
  O   O9        1.0  0.18744000000000002  0.20809  0.02213  1.0000
  O   O10       1.0  0.52727  0.72789  0.08879  1.0000
  O   O11       1.0  0.40989  0.8974299999999998  0.08262  1.0000
  O   O12       1.0  0.93804  0.60997  0.26475  1.0000
  O   O13       1.0  0.2854  0.86094  0.78199  1.0000
  O   O14       1.0  0.12550000000000006  0.99234  0.7495999999999999  1.0000
