data_image0
_chemical_formula_structural       Nd2H12C24O12
_chemical_formula_sum              "Nd2 H12 C24 O12"
_cell_length_a       9.5799
_cell_length_b       10.67463
_cell_length_c       10.88639
_cell_angle_alpha    63.46327999999999
_cell_angle_beta     66.65732
_cell_angle_gamma    68.00922

_space_group_name_H-M_alt    "P 1"
_space_group_IT_number       1

loop_
  _space_group_symop_operation_xyz
  'x, y, z'

loop_
  _atom_site_type_symbol
  _atom_site_label
  _atom_site_symmetry_multiplicity
  _atom_site_fract_x
  _atom_site_fract_y
  _atom_site_fract_z
  _atom_site_occupancy
  Nd  Nd1       1.0  0.70682  0.001510000000000009  0.50142  1.0000
  Nd  Nd2       1.0  0.2931800000000002  0.9984799999999998  0.49857999999999997  1.0000
  H   H1        1.0  0.4912900000000001  0.39349  0.67129  1.0000
  H   H2        1.0  0.3306700000000002  0.6429400000000001  0.65865  1.0000
  H   H3        1.0  0.9671600000000007  0.56216  0.58786  1.0000
  H   H4        1.0  0.12744000000000003  0.31347  0.59886  1.0000
  H   H5        1.0  0.28417  0.3740299999999999  0.11312999999999998  1.0000
  H   H6        1.0  0.7363500000000003  0.38964000000000004  0.0893  1.0000
  H   H7        1.0  0.5086899999999999  0.6065200000000001  0.32871  1.0000
  H   H8        1.0  0.6693  0.35707999999999995  0.34134  1.0000
  H   H9        1.0  0.03282  0.43783999999999995  0.41212  1.0000
  H   H10       1.0  0.8725500000000002  0.68654  0.40114  1.0000
  H   H11       1.0  0.71582  0.62597  0.88686  1.0000
  H   H12       1.0  0.26364  0.6103600000000001  0.9106999999999998  1.0000
  C   C1        1.0  0.42862999999999996  0.20084  0.61578  1.0000
  C   C2        1.0  0.3213500000000001  0.33913  0.63224  1.0000
  C   C3        1.0  0.37615  0.43085999999999997  0.65374  1.0000
  C   C4        1.0  0.28703  0.57032  0.64566  1.0000
  C   C5        1.0  0.14129000000000005  0.61927  0.61713  1.0000
  C   C6        1.0  0.08220000000000001  0.52416  0.60545  1.0000
  C   C7        1.0  0.17156000000000016  0.38548  0.61215  1.0000
  C   C8        1.0  0.05149999999999998  0.7736300000000002  0.59033  1.0000
  C   C9        1.0  0.52025  0.22781  0.23736  1.0000
  C   C10       1.0  0.51146  0.36733  0.11349000000000001  1.0000
  C   C11       1.0  0.37805000000000016  0.42972  0.06277  1.0000
  C   C12       1.0  0.63326  0.43860000000000005  0.0499  1.0000
  C   C13       1.0  0.57133  0.79916  0.3842  1.0000
  C   C14       1.0  0.6786400000000001  0.66087  0.36777  1.0000
  C   C15       1.0  0.62383  0.5691300000000001  0.34626  1.0000
  C   C16       1.0  0.71297  0.42969  0.35434  1.0000
  C   C17       1.0  0.8586899999999998  0.38074  0.38286  1.0000
  C   C18       1.0  0.9177900000000002  0.47585  0.39454  1.0000
  C   C19       1.0  0.8284200000000003  0.61453  0.38785  1.0000
  C   C20       1.0  0.9485800000000001  0.22635  0.40966  1.0000
  C   C21       1.0  0.47972  0.7721900000000002  0.76262  1.0000
  C   C22       1.0  0.48852999999999974  0.6326700000000001  0.88651  1.0000
  C   C23       1.0  0.6219400000000003  0.5702699999999999  0.9372199999999999  1.0000
  C   C24       1.0  0.36673000000000006  0.5613999999999999  0.95009  1.0000
  O   O1        1.0  0.5659500000000001  0.16386999999999996  0.63038  1.0000
  O   O2        1.0  0.3871500000000001  0.12618999999999994  0.57598  1.0000
  O   O3        1.0  0.9254199999999999  0.8112300000000002  0.55478  1.0000
  O   O4        1.0  0.10412000000000002  0.86021  0.60116  1.0000
  O   O5        1.0  0.6336200000000001  0.18341  0.29239  1.0000
  O   O6        1.0  0.41244  0.16245000000000004  0.28289  1.0000
  O   O7        1.0  0.4340399999999998  0.8361500000000001  0.3696  1.0000
  O   O8        1.0  0.6128200000000001  0.8738199999999998  0.42401  1.0000
  O   O9        1.0  0.07450000000000001  0.18878  0.44521  1.0000
  O   O10       1.0  0.8958700000000002  0.13978000000000002  0.39882  1.0000
  O   O11       1.0  0.36638000000000037  0.8165999999999998  0.70762  1.0000
  O   O12       1.0  0.5875599999999999  0.83756  0.71709  1.0000
