data_image0
_chemical_formula_structural       Zn6P4H8C8O24
_chemical_formula_sum              "Zn6 P4 H8 C8 O24"
_cell_length_a       5.73964
_cell_length_b       10.50073
_cell_length_c       12.88313
_cell_angle_alpha    81.91605000000001
_cell_angle_beta     88.94801
_cell_angle_gamma    66.94591

_space_group_name_H-M_alt    "P 1"
_space_group_IT_number       1

loop_
  _space_group_symop_operation_xyz
  'x, y, z'

loop_
  _atom_site_type_symbol
  _atom_site_label
  _atom_site_symmetry_multiplicity
  _atom_site_fract_x
  _atom_site_fract_y
  _atom_site_fract_z
  _atom_site_occupancy
  Zn  Zn1       1.0  0.9543  0.609  0.82034  1.0000
  Zn  Zn2       1.0  0.5683999999999999  0.09871000000000003  0.4244299999999999  1.0000
  Zn  Zn3       1.0  0.74414  0.11122  0.94452  1.0000
  Zn  Zn4       1.0  0.04569000000000001  0.39101  0.17966000000000001  1.0000
  Zn  Zn5       1.0  0.43158999999999986  0.90129  0.57557  1.0000
  Zn  Zn6       1.0  0.25584999999999997  0.88878  0.05548  1.0000
  P   P1        1.0  0.9454899999999999  0.84525  0.62148  1.0000
  P   P2        1.0  0.84904  0.77019  0.01012  1.0000
  P   P3        1.0  0.05449999999999995  0.15476000000000004  0.37852  1.0000
  P   P4        1.0  0.15095  0.22981  0.98988  1.0000
  H   H1        1.0  0.18322999999999998  0.0011100000000000413  0.7438999999999999  1.0000
  H   H2        1.0  0.60495  0.62895  0.16338  1.0000
  H   H3        1.0  0.8087099999999999  0.09096  0.6344699999999999  1.0000
  H   H4        1.0  0.8740599999999997  0.76863  0.19692  1.0000
  H   H5        1.0  0.8167599999999999  0.9989  0.2561  1.0000
  H   H6        1.0  0.39504000000000006  0.37104999999999994  0.83662  1.0000
  H   H7        1.0  0.19128000000000003  0.90905  0.36553  1.0000
  H   H8        1.0  0.12592999999999996  0.23137000000000002  0.8030699999999998  1.0000
  C   C1        1.0  0.8510399999999998  0.9980300000000001  0.6954  1.0000
  C   C2        1.0  0.59746  0.021139999999999978  0.7474100000000001  1.0000
  C   C3        1.0  0.9288399999999999  0.68373  0.14875  1.0000
  C   C4        1.0  0.21550999999999995  0.60447  0.16197  1.0000
  C   C5        1.0  0.14895  0.001980000000000002  0.30459  1.0000
  C   C6        1.0  0.40253999999999995  0.97886  0.25258  1.0000
  C   C7        1.0  0.07115999999999993  0.31628000000000006  0.85125  1.0000
  C   C8        1.0  0.78447  0.39555  0.8380299999999999  1.0000
  O   O1        1.0  0.8886999999999998  0.72643  0.68323  1.0000
  O   O2        1.0  0.7552500000000001  0.90479  0.52087  1.0000
  O   O3        1.0  0.22150000000000003  0.80054  0.58914  1.0000
  O   O4        1.0  0.02526000000000006  0.98823  0.77185  1.0000
  O   O5        1.0  0.42733000000000015  0.99703  0.69907  1.0000
  O   O6        1.0  0.55196  0.06693  0.83284  1.0000
  O   O7        1.0  0.5755199999999998  0.80023  0.98025  1.0000
  O   O8        1.0  0.90876  0.90292  0.01502  1.0000
  O   O9        1.0  0.036480000000000075  0.6701999999999999  0.94208  1.0000
  O   O10       1.0  0.80543  0.59257  0.18018  1.0000
  O   O11       1.0  0.34504  0.68075  0.15185  1.0000
  O   O12       1.0  0.31255  0.47257999999999994  0.18187999999999996  1.0000
  O   O13       1.0  0.11129000000000001  0.27357999999999993  0.31677  1.0000
  O   O14       1.0  0.24474  0.09521  0.47913  1.0000
  O   O15       1.0  0.77849  0.19946999999999998  0.41086  1.0000
  O   O16       1.0  0.97473  0.011779999999999994  0.22814  1.0000
  O   O17       1.0  0.57266  0.002979999999999996  0.30093  1.0000
  O   O18       1.0  0.44804000000000005  0.93307  0.16717  1.0000
  O   O19       1.0  0.42447  0.19977  0.01975  1.0000
  O   O20       1.0  0.09122999999999998  0.09708  0.98498  1.0000
  O   O21       1.0  0.96351  0.3298  0.05792  1.0000
  O   O22       1.0  0.19457  0.40744  0.8198099999999999  1.0000
  O   O23       1.0  0.65494  0.31925999999999993  0.84815  1.0000
  O   O24       1.0  0.68745  0.52741  0.8181199999999998  1.0000
