data_image0
_chemical_formula_structural       Cs2Tb2Mo2H8C18N16O2
_chemical_formula_sum              "Cs2 Tb2 Mo2 H8 C18 N16 O2"
_cell_length_a       9.90913
_cell_length_b       10.06917
_cell_length_c       13.625479999999998
_cell_angle_alpha    82.03268
_cell_angle_beta     86.67426
_cell_angle_gamma    65.49411

_space_group_name_H-M_alt    "P 1"
_space_group_IT_number       1

loop_
  _space_group_symop_operation_xyz
  'x, y, z'

loop_
  _atom_site_type_symbol
  _atom_site_label
  _atom_site_symmetry_multiplicity
  _atom_site_fract_x
  _atom_site_fract_y
  _atom_site_fract_z
  _atom_site_occupancy
  Cs  Cs1       1.0  0.15420999999999999  0.56596  0.38776  1.0000
  Cs  Cs2       1.0  0.8469399999999999  0.43447  0.6119  1.0000
  Tb  Tb1       1.0  0.3184  0.22328000000000003  0.17443999999999998  1.0000
  Tb  Tb2       1.0  0.67946  0.77566  0.8276499999999999  1.0000
  Mo  Mo1       1.0  0.7444199999999999  0.62528  0.23842  1.0000
  Mo  Mo2       1.0  0.25647  0.37368  0.76057  1.0000
  H   H1        1.0  0.4666299999999999  0.41944000000000004  0.19996999999999995  1.0000
  H   H2        1.0  0.39443  0.54912  0.0506  1.0000
  H   H3        1.0  0.28284999999999993  0.6591  0.14295  1.0000
  H   H4        1.0  0.20955000000000001  0.56388  0.07416  1.0000
  H   H5        1.0  0.5324  0.58037  0.79989  1.0000
  H   H6        1.0  0.6056299999999999  0.4502100000000001  0.9501699999999998  1.0000
  H   H7        1.0  0.71661  0.34232  0.8566599999999999  1.0000
  H   H8        1.0  0.7901600000000002  0.4365900000000001  0.9261899999999998  1.0000
  C   C1        1.0  0.8430499999999997  0.44419000000000003  0.34685  1.0000
  C   C2        1.0  0.74111  0.7007  0.37793  1.0000
  C   C3        1.0  0.5459699999999998  0.61882  0.30201  1.0000
  C   C4        1.0  0.56936  0.8479899999999999  0.21754  1.0000
  C   C5        1.0  0.7005200000000001  0.46212999999999993  0.17903  1.0000
  C   C6        1.0  0.28464999999999996  0.3085800000000001  0.91712  1.0000
  C   C7        1.0  0.9588899999999999  0.48821  0.19042  1.0000
  C   C8        1.0  0.8699900000000002  0.75393  0.2143  1.0000
  C   C9        1.0  0.3088699999999999  0.56097  0.10675999999999998  1.0000
  C   C10       1.0  0.15786999999999998  0.55743  0.65242  1.0000
  C   C11       1.0  0.25739999999999996  0.2998100000000001  0.622  1.0000
  C   C12       1.0  0.45405  0.38266000000000006  0.69797  1.0000
  C   C13       1.0  0.43071  0.15130999999999997  0.78177  1.0000
  C   C14       1.0  0.29906000000000005  0.5378999999999999  0.82075  1.0000
  C   C15       1.0  0.71539  0.6901  0.08206  1.0000
  C   C16       1.0  0.04181999999999996  0.5124800000000002  0.8082899999999998  1.0000
  C   C17       1.0  0.12989000000000003  0.24581  0.78603  1.0000
  C   C18       1.0  0.6905299999999998  0.43956000000000006  0.89376  1.0000
  N   N1        1.0  0.90161  0.34246  0.40682  1.0000
  N   N2        1.0  0.7474799999999999  0.73166  0.45714  1.0000
  N   N3        1.0  0.4364199999999999  0.61011  0.33238  1.0000
  N   N4        1.0  0.4816  0.9712  0.20254  1.0000
  N   N5        1.0  0.66294  0.37773  0.15062999999999996  1.0000
  N   N6        1.0  0.29804  0.27682  0.00396  1.0000
  N   N7        1.0  0.08053999999999999  0.40067  0.17547  1.0000
  N   N8        1.0  0.95048  0.81393  0.20334  1.0000
  N   N9        1.0  0.09737000000000004  0.65872  0.59256  1.0000
  N   N10       1.0  0.2528600000000002  0.26785  0.54289  1.0000
  N   N11       1.0  0.56432  0.3896899999999999  0.66762  1.0000
  N   N12       1.0  0.51708  0.02765000000000001  0.7981199999999999  1.0000
  N   N13       1.0  0.33669999999999994  0.62234  0.8491  1.0000
  N   N14       1.0  0.70169  0.72198  0.99523  1.0000
  N   N15       1.0  0.9204100000000001  0.59848  0.8250499999999998  1.0000
  N   N16       1.0  0.04944999999999996  0.18579000000000007  0.7964099999999998  1.0000
  O   O1        1.0  0.36449999999999994  0.43047  0.18375  1.0000
  O   O2        1.0  0.6334000000000001  0.57111  0.8175699999999999  1.0000
