data_image0
_chemical_formula_structural       Gd4H8C20O24
_chemical_formula_sum              "Gd4 H8 C20 O24"
_cell_length_a       9.0801
_cell_length_b       9.081360000000002
_cell_length_c       15.14624
_cell_angle_alpha    100.16244
_cell_angle_beta     99.90058
_cell_angle_gamma    114.80447999999998

_space_group_name_H-M_alt    "P 1"
_space_group_IT_number       1

loop_
  _space_group_symop_operation_xyz
  'x, y, z'

loop_
  _atom_site_type_symbol
  _atom_site_label
  _atom_site_symmetry_multiplicity
  _atom_site_fract_x
  _atom_site_fract_y
  _atom_site_fract_z
  _atom_site_occupancy
  Gd  Gd1       1.0  0.73024  0.9811499999999999  0.96214  1.0000
  Gd  Gd2       1.0  0.51894  0.76971  0.53787  1.0000
  Gd  Gd3       1.0  0.26977  0.018849999999999992  0.03786  1.0000
  Gd  Gd4       1.0  0.48106  0.23028999999999994  0.46213  1.0000
  H   H1        1.0  0.08996999999999993  0.53798  0.93908  1.0000
  H   H2        1.0  0.3495699999999999  0.40069  0.93895  1.0000
  H   H3        1.0  0.9614499999999999  0.41022999999999993  0.56062  1.0000
  H   H4        1.0  0.09849999999999991  0.1505099999999999  0.5608299999999999  1.0000
  H   H5        1.0  0.9100399999999998  0.4620199999999999  0.060919999999999995  1.0000
  H   H6        1.0  0.6504399999999999  0.59931  0.06105  1.0000
  H   H7        1.0  0.03855999999999998  0.58977  0.43939  1.0000
  H   H8        1.0  0.90151  0.8494899999999999  0.43917  1.0000
  C   C1        1.0  0.35123999999999994  0.7019299999999998  0.94248  1.0000
  C   C2        1.0  0.20983  0.53835  0.93863  1.0000
  C   C3        1.0  0.09185000000000001  0.23951999999999996  0.94287  1.0000
  C   C4        1.0  0.22904999999999992  0.3993  0.93868  1.0000
  C   C5        1.0  0.797  0.14904999999999993  0.55745  1.0000
  C   C6        1.0  0.9606999999999999  0.29028  0.56122  1.0000
  C   C7        1.0  0.26006  0.408  0.55754  1.0000
  C   C8        1.0  0.09980999999999998  0.27105  0.56139  1.0000
  C   C9        1.0  0.6487600000000001  0.29807  0.05752  1.0000
  C   C10       1.0  0.79017  0.46164999999999984  0.06138  1.0000
  C   C11       1.0  0.90816  0.7604799999999998  0.05713  1.0000
  C   C12       1.0  0.7709599999999998  0.6007  0.06132  1.0000
  C   C13       1.0  0.20301000000000005  0.8509500000000001  0.44256  1.0000
  C   C14       1.0  0.039309999999999956  0.70972  0.43878  1.0000
  C   C15       1.0  0.7399499999999998  0.592  0.44247  1.0000
  C   C16       1.0  0.9002  0.72895  0.43862  1.0000
  C   C17       1.0  0.674  0.82355  0.74982  1.0000
  C   C18       1.0  0.5734  0.92702  0.75024  1.0000
  C   C19       1.0  0.32601  0.17644999999999994  0.25018  1.0000
  C   C20       1.0  0.42660999999999993  0.07297999999999998  0.24976  1.0000
  O   O1        1.0  0.3206899999999998  0.8293099999999999  0.94759  1.0000
  O   O2        1.0  0.49542  0.7140999999999997  0.94199  1.0000
  O   O3        1.0  0.7556599999999998  0.83033  0.82851  1.0000
  O   O4        1.0  0.12794  0.11780000000000004  0.94844  1.0000
  O   O5        1.0  0.9470399999999999  0.22653  0.94232  1.0000
  O   O6        1.0  0.5704599999999999  0.99886  0.82925  1.0000
  O   O7        1.0  0.6695999999999999  0.17944  0.55238  1.0000
  O   O8        1.0  0.78483  0.005039999999999992  0.55821  1.0000
  O   O9        1.0  0.66613  0.74118  0.67078  1.0000
  O   O10       1.0  0.3812799999999999  0.37083000000000005  0.5523  1.0000
  O   O11       1.0  0.27410999999999996  0.55321  0.55821  1.0000
  O   O12       1.0  0.50334  0.9313499999999998  0.67147  1.0000
  O   O13       1.0  0.6793199999999998  0.1706899999999999  0.05241  1.0000
  O   O14       1.0  0.5045899999999998  0.2858999999999999  0.05801  1.0000
  O   O15       1.0  0.24434999999999996  0.16967  0.17148999999999998  1.0000
  O   O16       1.0  0.87207  0.8821999999999998  0.05156999999999999  1.0000
  O   O17       1.0  0.052969999999999996  0.77347  0.05768  1.0000
  O   O18       1.0  0.42954999999999993  0.0011399999999999943  0.17075  1.0000
  O   O19       1.0  0.33041  0.82056  0.44762  1.0000
  O   O20       1.0  0.2151800000000001  0.9949600000000001  0.44179  1.0000
  O   O21       1.0  0.33387999999999995  0.25882  0.32921999999999996  1.0000
  O   O22       1.0  0.61873  0.62917  0.4477  1.0000
  O   O23       1.0  0.7258999999999999  0.44679  0.4418  1.0000
  O   O24       1.0  0.49667  0.06865000000000002  0.32853  1.0000
