data_image0
_chemical_formula_structural       Eu2Cu2H16C32N10O16
_chemical_formula_sum              "Eu2 Cu2 H16 C32 N10 O16"
_cell_length_a       10.95872
_cell_length_b       11.106109999999997
_cell_length_c       11.926
_cell_angle_alpha    70.75103
_cell_angle_beta     77.48749
_cell_angle_gamma    57.98625999999999

_space_group_name_H-M_alt    "P 1"
_space_group_IT_number       1

loop_
  _space_group_symop_operation_xyz
  'x, y, z'

loop_
  _atom_site_type_symbol
  _atom_site_label
  _atom_site_symmetry_multiplicity
  _atom_site_fract_x
  _atom_site_fract_y
  _atom_site_fract_z
  _atom_site_occupancy
  Eu  Eu1       1.0  0.54254  0.9926400000000001  0.16967  1.0000
  Eu  Eu2       1.0  0.45596999999999993  0.0063499999999999885  0.83229  1.0000
  Cu  Cu1       1.0  0.9985799999999999  0.99946  0.99966  1.0000
  Cu  Cu2       1.0  0.99685  0.0013399999999999664  0.49973000000000006  1.0000
  H   H1        1.0  0.040809999999999964  0.24054000000000003  0.51865  1.0000
  H   H2        1.0  0.93491  0.5155200000000001  0.42782000000000003  1.0000
  H   H3        1.0  0.673  0.4951900000000001  0.22214  1.0000
  H   H4        1.0  0.7752100000000001  0.22499  0.32983  1.0000
  H   H5        1.0  0.9615  0.75673  0.17519  1.0000
  H   H6        1.0  0.10554000000000002  0.47875  0.23312  1.0000
  H   H7        1.0  0.41726  0.505  0.95128  1.0000
  H   H8        1.0  0.26264999999999983  0.7799900000000002  0.9016000000000001  1.0000
  H   H9        1.0  0.9529899999999993  0.7602  0.48393  1.0000
  H   H10       1.0  0.06431000000000003  0.4845  0.57192  1.0000
  H   H11       1.0  0.33331999999999995  0.50683  0.76877  1.0000
  H   H12       1.0  0.22247000000000003  0.7790500000000001  0.66565  1.0000
  H   H13       1.0  0.042609999999999995  0.23938999999999996  0.82472  1.0000
  H   H14       1.0  0.90492  0.5165600000000001  0.76733  1.0000
  H   H15       1.0  0.58382  0.49819  0.04228  1.0000
  H   H16       1.0  0.73384  0.22317000000000004  0.09314000000000001  1.0000
  C   C1        1.0  0.17198999999999995  0.9690700000000001  0.28509  1.0000
  C   C2        1.0  0.1718800000000003  0.97775  0.16569  1.0000
  C   C3        1.0  0.2688899999999999  0.95475  0.36543  1.0000
  C   C4        1.0  0.26520999999999995  0.9877200000000002  0.05709  1.0000
  C   C5        1.0  0.9571799999999999  0.3022000000000001  0.45453  1.0000
  C   C6        1.0  0.9002700000000001  0.45263  0.40318  1.0000
  C   C7        1.0  0.79757  0.52376  0.31762  1.0000
  C   C8        1.0  0.7522100000000002  0.44164  0.28893  1.0000
  C   C9        1.0  0.8092100000000001  0.29317  0.34666  1.0000
  C   C10       1.0  0.73514  0.6854800000000001  0.25589  1.0000
  C   C11       1.0  0.06247000000000004  0.69611  0.12789  1.0000
  C   C12       1.0  0.14245  0.54325  0.15971  1.0000
  C   C13       1.0  0.27326000000000006  0.4722  0.0973  1.0000
  C   C14       1.0  0.31646  0.5575  0.00154  1.0000
  C   C15       1.0  0.23090000000000002  0.70967  0.97325  1.0000
  C   C16       1.0  0.36892000000000014  0.3075  0.13414  1.0000
  C   C17       1.0  0.823  0.03115  0.71515  1.0000
  C   C18       1.0  0.8245  0.020680000000000014  0.83481  1.0000
  C   C19       1.0  0.7263399999999999  0.04532000000000002  0.63458  1.0000
  C   C20       1.0  0.73328  0.009049999999999983  0.94481  1.0000
  C   C21       1.0  0.03928000000000003  0.69877  0.54557  1.0000
  C   C22       1.0  0.09956  0.54766  0.59543  1.0000
  C   C23       1.0  0.20566  0.47717  0.67799  1.0000
  C   C24       1.0  0.25098999999999994  0.56048  0.70472  1.0000
  C   C25       1.0  0.18961000000000014  0.7097599999999998  0.64929  1.0000
  C   C26       1.0  0.27148  0.3154900000000001  0.74055  1.0000
  C   C27       1.0  0.94145  0.30103  0.87124  1.0000
  C   C28       1.0  0.86464  0.45394  0.83928  1.0000
  C   C29       1.0  0.7326899999999998  0.52756  0.89941  1.0000
  C   C30       1.0  0.68559  0.4442900000000001  0.99356  1.0000
  C   C31       1.0  0.7687  0.29177000000000003  0.02272  1.0000
  C   C32       1.0  0.64141  0.69261  0.8609  1.0000
  N   N1        1.0  0.046030000000000015  0.97429  0.33583  1.0000
  N   N2        1.0  0.9687199999999999  0.98491  0.25698  1.0000
  N   N3        1.0  0.04597999999999999  0.9865300000000001  0.1543  1.0000
  N   N4        1.0  0.9111300000000001  0.22500000000000003  0.42663  1.0000
  N   N5        1.0  0.10738000000000006  0.77693  0.03661  1.0000
  N   N6        1.0  0.9480200000000001  0.027899999999999984  0.66363  1.0000
  N   N7        1.0  0.02599000000000001  0.01692999999999999  0.74206  1.0000
  N   N8        1.0  0.9501799999999998  0.012979999999999957  0.8453200000000001  1.0000
  N   N9        1.0  0.08453999999999981  0.7772800000000003  0.57237  1.0000
  N   N10       1.0  0.89314  0.22216000000000002  0.96125  1.0000
  O   O1        1.0  0.2129499999999999  0.9705300000000001  0.46925  1.0000
  O   O2        1.0  0.39683999999999997  0.9244900000000001  0.33175  1.0000
  O   O3        1.0  0.3809999999999999  0.98637  0.06137000000000001  1.0000
  O   O4        1.0  0.22389999999999982  0.99995  0.9598000000000001  1.0000
  O   O5        1.0  0.7454000000000001  0.76777  0.30238  1.0000
  O   O6        1.0  0.67218  0.73147  0.1601  1.0000
  O   O7        1.0  0.50142  0.25415  0.09809  1.0000
  O   O8        1.0  0.31423  0.22961  0.1994  1.0000
  O   O9        1.0  0.7821  0.030419999999999985  0.53048  1.0000
  O   O10       1.0  0.59873  0.07442000000000001  0.66802  1.0000
  O   O11       1.0  0.61636  0.011720000000000027  0.94264  1.0000
  O   O12       1.0  0.77783  0.99496  0.04116  1.0000
  O   O13       1.0  0.25018000000000007  0.23286000000000007  0.70364  1.0000
  O   O14       1.0  0.34768999999999994  0.26947000000000004  0.82812  1.0000
  O   O15       1.0  0.5049699999999999  0.7483699999999999  0.8854100000000001  1.0000
  O   O16       1.0  0.7007999999999999  0.7687300000000001  0.80657  1.0000
