data_image0
_chemical_formula_structural       Lu4H12C32N4O24
_chemical_formula_sum              "Lu4 H12 C32 N4 O24"
_cell_length_a       6.78667
_cell_length_b       13.03097
_cell_length_c       13.119959999999999
_cell_angle_alpha    90.55337
_cell_angle_beta     106.15252
_cell_angle_gamma    89.95667000000002

_space_group_name_H-M_alt    "P 1"
_space_group_IT_number       1

loop_
  _space_group_symop_operation_xyz
  'x, y, z'

loop_
  _atom_site_type_symbol
  _atom_site_label
  _atom_site_symmetry_multiplicity
  _atom_site_fract_x
  _atom_site_fract_y
  _atom_site_fract_z
  _atom_site_occupancy
  Lu  Lu1       1.0  0.23144  0.06289  0.71218  1.0000
  Lu  Lu2       1.0  0.2777  0.56774  0.28752  1.0000
  Lu  Lu3       1.0  0.76856  0.93711  0.28782  1.0000
  Lu  Lu4       1.0  0.7222999999999999  0.43225999999999987  0.71249  1.0000
  H   H1        1.0  0.10213999999999994  0.05234999999999999  0.9524099999999999  1.0000
  H   H2        1.0  0.08031999999999999  0.3825  0.9784199999999998  1.0000
  H   H3        1.0  0.25773999999999997  0.18757  0.25241  1.0000
  H   H4        1.0  0.3971599999999999  0.55256  0.04688  1.0000
  H   H5        1.0  0.4186999999999999  0.88218  0.021739999999999995  1.0000
  H   H6        1.0  0.24194999999999986  0.68303  0.7472099999999999  1.0000
  H   H7        1.0  0.89786  0.9476499999999998  0.04758999999999999  1.0000
  H   H8        1.0  0.9196799999999998  0.6174999999999999  0.021589999999999998  1.0000
  H   H9        1.0  0.7422599999999998  0.81243  0.74759  1.0000
  H   H10       1.0  0.6028399999999998  0.4474399999999999  0.9531199999999997  1.0000
  H   H11       1.0  0.5812899999999998  0.11781999999999997  0.9782599999999998  1.0000
  H   H12       1.0  0.75805  0.31696999999999986  0.25279  1.0000
  C   C1        1.0  0.12034999999999993  0.12254  0.99972  1.0000
  C   C2        1.0  0.07877000000000002  0.218  0.94891  1.0000
  C   C3        1.0  0.10883  0.30613  0.012459999999999999  1.0000
  C   C4        1.0  0.17502  0.29522999999999994  0.12231999999999998  1.0000
  C   C5        1.0  0.20835  0.19649999999999995  0.16616  1.0000
  C   C6        1.0  0.008919999999999892  0.22672999999999993  0.8309199999999998  1.0000
  C   C7        1.0  0.20432  0.38957  0.18845999999999993  1.0000
  C   C8        1.0  0.8991599999999998  0.9970999999999999  0.51758  1.0000
  C   C9        1.0  0.3805599999999999  0.62167  0.9994099999999999  1.0000
  C   C10       1.0  0.42238  0.7177  0.05032  1.0000
  C   C11       1.0  0.39074  0.80526  0.98728  1.0000
  C   C12       1.0  0.3219899999999998  0.7929699999999998  0.8774199999999998  1.0000
  C   C13       1.0  0.2905699999999999  0.69349  0.83347  1.0000
  C   C14       1.0  0.49234  0.7285499999999999  0.16843  1.0000
  C   C15       1.0  0.29144  0.8863999999999997  0.81142  1.0000
  C   C16       1.0  0.60214  0.4973799999999999  0.48382  1.0000
  C   C17       1.0  0.8796399999999998  0.87746  0.00028  1.0000
  C   C18       1.0  0.9212199999999998  0.782  0.05109  1.0000
  C   C19       1.0  0.8911599999999997  0.69387  0.98754  1.0000
  C   C20       1.0  0.8249699999999996  0.70477  0.8776799999999998  1.0000
  C   C21       1.0  0.7916399999999998  0.8035  0.83384  1.0000
  C   C22       1.0  0.9910699999999999  0.77327  0.16909  1.0000
  C   C23       1.0  0.7956699999999999  0.6104299999999999  0.8115499999999999  1.0000
  C   C24       1.0  0.10083999999999999  0.0029  0.48242  1.0000
  C   C25       1.0  0.61944  0.37832999999999994  0.0006  1.0000
  C   C26       1.0  0.57761  0.2823  0.94969  1.0000
  C   C27       1.0  0.6092599999999998  0.19473999999999997  0.012719999999999999  1.0000
  C   C28       1.0  0.6779999999999998  0.20702999999999994  0.12258  1.0000
  C   C29       1.0  0.7094199999999996  0.30650999999999995  0.16653  1.0000
  C   C30       1.0  0.5076499999999999  0.27145  0.8315799999999999  1.0000
  C   C31       1.0  0.70856  0.1136  0.18857999999999994  1.0000
  C   C32       1.0  0.39785  0.5026299999999999  0.51618  1.0000
  N   N1        1.0  0.18075999999999995  0.11079  0.10598  1.0000
  N   N2        1.0  0.31881999999999994  0.6086899999999998  0.8931099999999998  1.0000
  N   N3        1.0  0.81924  0.88921  0.89402  1.0000
  N   N4        1.0  0.6811699999999998  0.39131  0.10688999999999999  1.0000
  O   O1        1.0  0.01975999999999994  0.14702  0.7767299999999999  1.0000
  O   O2        1.0  0.9395699999999999  0.31236  0.78831  1.0000
  O   O3        1.0  0.16152999999999998  0.47657999999999995  0.14039  1.0000
  O   O4        1.0  0.27071  0.3884599999999999  0.28941  1.0000
  O   O5        1.0  0.90987  0.027660000000000004  0.61008  1.0000
  O   O6        1.0  0.73902  0.96125  0.45046999999999987  1.0000
  O   O7        1.0  0.49577999999999994  0.6502899999999999  0.22583  1.0000
  O   O8        1.0  0.5463999999999999  0.8177199999999998  0.20835  1.0000
  O   O9        1.0  0.33512  0.9736099999999999  0.86031  1.0000
  O   O10       1.0  0.22582000000000002  0.88372  0.71058  1.0000
  O   O11       1.0  0.59819  0.53431  0.39485999999999993  1.0000
  O   O12       1.0  0.7558999999999998  0.45566  0.54956  1.0000
  O   O13       1.0  0.98024  0.8529799999999998  0.22328  1.0000
  O   O14       1.0  0.060429999999999984  0.6876399999999998  0.21169  1.0000
  O   O15       1.0  0.83846  0.52342  0.85961  1.0000
  O   O16       1.0  0.7292899999999999  0.6115399999999999  0.7105899999999998  1.0000
  O   O17       1.0  0.09013  0.9723299999999998  0.38993  1.0000
  O   O18       1.0  0.2609799999999999  0.03875  0.54954  1.0000
  O   O19       1.0  0.50421  0.34971  0.77417  1.0000
  O   O20       1.0  0.45358999999999977  0.18227999999999997  0.7916499999999997  1.0000
  O   O21       1.0  0.6648799999999998  0.026389999999999993  0.13969  1.0000
  O   O22       1.0  0.7741799999999998  0.11627  0.28942  1.0000
  O   O23       1.0  0.4018  0.46568  0.60515  1.0000
  O   O24       1.0  0.2440999999999999  0.54434  0.4504399999999999  1.0000
