data_image0
_chemical_formula_structural       Cd3H14C30O12
_chemical_formula_sum              "Cd3 H14 C30 O12"
_cell_length_a       7.91397
_cell_length_b       10.10928
_cell_length_c       13.557249999999998
_cell_angle_alpha    67.54996999999999
_cell_angle_beta     81.1317
_cell_angle_gamma    74.69556

_space_group_name_H-M_alt    "P 1"
_space_group_IT_number       1

loop_
  _space_group_symop_operation_xyz
  'x, y, z'

loop_
  _atom_site_type_symbol
  _atom_site_label
  _atom_site_symmetry_multiplicity
  _atom_site_fract_x
  _atom_site_fract_y
  _atom_site_fract_z
  _atom_site_occupancy
  Cd  Cd1       1.0  0.8568100000000001  0.65803  0.54466  1.0000
  Cd  Cd2       1.0  0.14319  0.34196999999999994  0.45534  1.0000
  Cd  Cd3       1.0  0.5  0.0  0.5  1.0000
  H   H1        1.0  0.82816  0.14394  0.54869  1.0000
  H   H2        1.0  0.7787699999999999  0.24871  0.83114  1.0000
  H   H3        1.0  0.8205800000000001  0.80181  0.85775  1.0000
  H   H4        1.0  0.5860700000000001  0.18702999999999997  0.96466  1.0000
  H   H5        1.0  0.54223  0.13034  0.16077  1.0000
  H   H6        1.0  0.8754199999999999  0.7018000000000001  0.21617  1.0000
  H   H7        1.0  0.93131  0.76089  0.01953  1.0000
  H   H8        1.0  0.17183999999999996  0.8560500000000001  0.45131  1.0000
  H   H9        1.0  0.2212300000000001  0.75129  0.16886  1.0000
  H   H10       1.0  0.17942000000000002  0.19818  0.14225  1.0000
  H   H11       1.0  0.4139399999999999  0.81296  0.03534  1.0000
  H   H12       1.0  0.45777000000000007  0.8696599999999999  0.83923  1.0000
  H   H13       1.0  0.12457999999999998  0.2982  0.78384  1.0000
  H   H14       1.0  0.06868999999999995  0.23910000000000006  0.98047  1.0000
  C   C1        1.0  0.8247199999999996  0.96182  0.6987299999999999  1.0000
  C   C2        1.0  0.81953  0.10909000000000003  0.63536  1.0000
  C   C3        1.0  0.8062800000000002  0.21112999999999996  0.68418  1.0000
  C   C4        1.0  0.78978  0.16668999999999998  0.79564  1.0000
  C   C5        1.0  0.79252  0.019920000000000014  0.86054  1.0000
  C   C6        1.0  0.81569  0.91711  0.81059  1.0000
  C   C7        1.0  0.7653799999999998  0.9797399999999998  0.97775  1.0000
  C   C8        1.0  0.65456  0.08255  0.01929  1.0000
  C   C9        1.0  0.62706  0.05052  0.12885  1.0000
  C   C10       1.0  0.70739  0.9132300000000001  0.20035  1.0000
  C   C11       1.0  0.8144500000000001  0.80825  0.16001  1.0000
  C   C12       1.0  0.84405  0.84164  0.04989  1.0000
  C   C13       1.0  0.84041  0.85175  0.6482199999999998  1.0000
  C   C14       1.0  0.8130800000000001  0.36626  0.61917  1.0000
  C   C15       1.0  0.6799699999999999  0.88082  0.31805  1.0000
  C   C16       1.0  0.17527999999999988  0.038180000000000026  0.30127  1.0000
  C   C17       1.0  0.18047000000000007  0.8908999999999999  0.36464  1.0000
  C   C18       1.0  0.1937199999999999  0.7888700000000002  0.31581999999999993  1.0000
  C   C19       1.0  0.21022  0.8333  0.20436  1.0000
  C   C20       1.0  0.20747999999999994  0.98008  0.13946  1.0000
  C   C21       1.0  0.18432  0.08289  0.18940999999999997  1.0000
  C   C22       1.0  0.23461999999999994  0.020260000000000004  0.022249999999999995  1.0000
  C   C23       1.0  0.3454400000000001  0.9174499999999999  0.98071  1.0000
  C   C24       1.0  0.37295  0.9494700000000001  0.8711499999999998  1.0000
  C   C25       1.0  0.29262  0.0867700000000001  0.7996499999999997  1.0000
  C   C26       1.0  0.18555  0.19174000000000002  0.8399899999999999  1.0000
  C   C27       1.0  0.15594999999999998  0.15835000000000007  0.9501099999999999  1.0000
  C   C28       1.0  0.15959  0.14825  0.3517799999999999  1.0000
  C   C29       1.0  0.18691999999999998  0.63374  0.38083  1.0000
  C   C30       1.0  0.32003  0.11917999999999998  0.68195  1.0000
  O   O1        1.0  0.9093299999999999  0.71857  0.6946799999999999  1.0000
  O   O2        1.0  0.7831600000000001  0.89744  0.55192  1.0000
  O   O3        1.0  0.8659300000000001  0.40165  0.51994  1.0000
  O   O4        1.0  0.7664  0.46096  0.66486  1.0000
  O   O5        1.0  0.58393  0.98785  0.34498  1.0000
  O   O6        1.0  0.7495299999999998  0.7540800000000001  0.38058  1.0000
  O   O7        1.0  0.09066999999999996  0.28143  0.30532  1.0000
  O   O8        1.0  0.21684  0.10256000000000001  0.44808  1.0000
  O   O9        1.0  0.13407000000000002  0.59835  0.4800599999999999  1.0000
  O   O10       1.0  0.23361000000000004  0.53904  0.33514  1.0000
  O   O11       1.0  0.41607  0.012150000000000051  0.6550199999999999  1.0000
  O   O12       1.0  0.2504700000000001  0.24592000000000006  0.61943  1.0000
