data_image0
_chemical_formula_structural       Ag8H12C28N4O16
_chemical_formula_sum              "Ag8 H12 C28 N4 O16"
_cell_length_a       10.06495
_cell_length_b       10.06877
_cell_length_c       10.5135
_cell_angle_alpha    108.21169
_cell_angle_beta     108.28528999999999
_cell_angle_gamma    99.85054000000001

_space_group_name_H-M_alt    "P 1"
_space_group_IT_number       1

loop_
  _space_group_symop_operation_xyz
  'x, y, z'

loop_
  _atom_site_type_symbol
  _atom_site_label
  _atom_site_symmetry_multiplicity
  _atom_site_fract_x
  _atom_site_fract_y
  _atom_site_fract_z
  _atom_site_occupancy
  Ag  Ag1       1.0  0.73762  0.11265999999999995  0.57996  1.0000
  Ag  Ag2       1.0  0.7859199999999998  0.48817  0.85699  1.0000
  Ag  Ag3       1.0  0.8873200000000002  0.26236000000000004  0.9200700000000002  1.0000
  Ag  Ag4       1.0  0.5118399999999999  0.21409  0.64296  1.0000
  Ag  Ag5       1.0  0.26238  0.88733  0.42004  1.0000
  Ag  Ag6       1.0  0.21408  0.51183  0.14301  1.0000
  Ag  Ag7       1.0  0.11267999999999999  0.73764  0.07992  1.0000
  Ag  Ag8       1.0  0.48816  0.7859  0.35704  1.0000
  H   H1        1.0  0.7536299999999999  0.76548  0.75743  1.0000
  H   H2        1.0  0.40043  0.9030800000000001  0.8512  1.0000
  H   H3        1.0  0.5672100000000001  0.5805800000000001  0.9856600000000001  1.0000
  H   H4        1.0  0.23453  0.24631000000000006  0.74264  1.0000
  H   H5        1.0  0.09694000000000001  0.59956  0.6487  1.0000
  H   H6        1.0  0.41934999999999995  0.43283  0.51444  1.0000
  H   H7        1.0  0.24635999999999994  0.23451999999999998  0.24257000000000004  1.0000
  H   H8        1.0  0.59956  0.09692  0.14879  1.0000
  H   H9        1.0  0.43278999999999995  0.41941000000000006  0.01434  1.0000
  H   H10       1.0  0.76546  0.7536900000000002  0.25736  1.0000
  H   H11       1.0  0.90305  0.40044  0.3513  1.0000
  H   H12       1.0  0.58065  0.56716  0.48556  1.0000
  C   C1        1.0  0.67354  0.7605300000000002  0.80661  1.0000
  C   C2        1.0  0.5813399999999999  0.84977  0.79904  1.0000
  C   C3        1.0  0.59384  0.95244  0.72352  1.0000
  C   C4        1.0  0.47691  0.8387700000000001  0.86012  1.0000
  C   C5        1.0  0.47146999999999994  0.7421300000000001  0.93045  1.0000
  C   C6        1.0  0.5690499999999998  0.65842  0.93394  1.0000
  C   C7        1.0  0.36127  0.7197700000000001  0.99656  1.0000
  C   C8        1.0  0.23944999999999994  0.32642  0.69343  1.0000
  C   C9        1.0  0.15022999999999997  0.41863000000000006  0.70097  1.0000
  C   C10       1.0  0.04758000000000004  0.40614000000000006  0.77648  1.0000
  C   C11       1.0  0.16123  0.52307  0.63985  1.0000
  C   C12       1.0  0.25784  0.52855  0.56955  1.0000
  C   C13       1.0  0.34152  0.43096  0.56611  1.0000
  C   C14       1.0  0.28024  0.63875  0.50343  1.0000
  C   C15       1.0  0.32646  0.23947  0.19338  1.0000
  C   C16       1.0  0.41865  0.15023  0.20095  1.0000
  C   C17       1.0  0.4061600000000001  0.04756000000000001  0.27648  1.0000
  C   C18       1.0  0.52309  0.16123  0.13988  1.0000
  C   C19       1.0  0.52853  0.25787  0.06954  1.0000
  C   C20       1.0  0.43095  0.34158  0.06606  1.0000
  C   C21       1.0  0.6387300000000001  0.2802200000000001  0.00344  1.0000
  C   C22       1.0  0.7605399999999999  0.6735700000000001  0.30656  1.0000
  C   C23       1.0  0.84976  0.58137  0.29903  1.0000
  C   C24       1.0  0.95242  0.59385  0.22352  1.0000
  C   C25       1.0  0.83877  0.47692000000000007  0.36014  1.0000
  C   C26       1.0  0.74215  0.47145000000000004  0.43044  1.0000
  C   C27       1.0  0.65847  0.56903  0.43388  1.0000
  C   C28       1.0  0.71976  0.36124000000000006  0.49657000000000007  1.0000
  N   N1        1.0  0.6670199999999998  0.66524  0.8717600000000001  1.0000
  N   N2        1.0  0.3347  0.33296  0.6283  1.0000
  N   N3        1.0  0.33298  0.33476  0.12824  1.0000
  N   N4        1.0  0.66529  0.66703  0.3717  1.0000
  O   O1        1.0  0.70072  0.96094  0.68172  1.0000
  O   O2        1.0  0.49881  0.02031999999999999  0.70772  1.0000
  O   O3        1.0  0.26493  0.78704  0.98026  1.0000
  O   O4        1.0  0.37313  0.63263  0.06226  1.0000
  O   O5        1.0  0.03905  0.29927  0.81831  1.0000
  O   O6        1.0  0.9797199999999998  0.50115  0.79222  1.0000
  O   O7        1.0  0.21300999999999998  0.73509  0.51971  1.0000
  O   O8        1.0  0.36735  0.6269  0.43775  1.0000
  O   O9        1.0  0.29927  0.03906000000000002  0.31828  1.0000
  O   O10       1.0  0.50119  0.9796700000000004  0.29227  1.0000
  O   O11       1.0  0.73506  0.21296  0.01973  1.0000
  O   O12       1.0  0.62686  0.3673699999999999  0.9377399999999999  1.0000
  O   O13       1.0  0.9609399999999999  0.70073  0.18169  1.0000
  O   O14       1.0  0.020270000000000017  0.49884000000000006  0.20778  1.0000
  O   O15       1.0  0.78699  0.2649100000000001  0.48028000000000004  1.0000
  O   O16       1.0  0.63265  0.3731  0.56225  1.0000
