data_image0
_chemical_formula_structural       Tb4H20C36N4O32
_chemical_formula_sum              "Tb4 H20 C36 N4 O32"
_cell_length_a       13.51677
_cell_length_b       13.7124
_cell_length_c       15.138660000000002
_cell_angle_alpha    97.28063
_cell_angle_beta     90.29834000000001
_cell_angle_gamma    117.40588

_space_group_name_H-M_alt    "P 1"
_space_group_IT_number       1

loop_
  _space_group_symop_operation_xyz
  'x, y, z'

loop_
  _atom_site_type_symbol
  _atom_site_label
  _atom_site_symmetry_multiplicity
  _atom_site_fract_x
  _atom_site_fract_y
  _atom_site_fract_z
  _atom_site_occupancy
  Tb  Tb1       1.0  0.98963  0.8613499999999998  0.9772499999999997  1.0000
  Tb  Tb2       1.0  0.3714099999999999  0.86719  0.48119  1.0000
  Tb  Tb3       1.0  0.01038  0.13863  0.022779999999999995  1.0000
  Tb  Tb4       1.0  0.62911  0.13388  0.51963  1.0000
  H   H1        1.0  0.28209999999999996  0.27509  0.88142  1.0000
  H   H2        1.0  0.48614  0.25884  0.6669999999999998  1.0000
  H   H3        1.0  0.19993999999999995  0.9611399999999999  0.7217099999999997  1.0000
  H   H4        1.0  0.44779999999999986  0.43517000000000006  0.9267399999999998  1.0000
  H   H5        1.0  0.3616999999999999  0.45252999999999993  0.84677  1.0000
  H   H6        1.0  0.53005  0.62862  0.9245  1.0000
  H   H7        1.0  0.6177799999999998  0.58328  0.8631799999999997  1.0000
  H   H8        1.0  0.47605999999999987  0.7255999999999999  0.6710999999999998  1.0000
  H   H9        1.0  0.7465199999999997  0.04951999999999997  0.7680599999999997  1.0000
  H   H10       1.0  0.7016699999999997  0.7678199999999998  0.8928999999999998  1.0000
  H   H11       1.0  0.7179  0.7249  0.11856999999999997  1.0000
  H   H12       1.0  0.51385  0.74117  0.333  1.0000
  H   H13       1.0  0.80006  0.03884999999999998  0.2782799999999999  1.0000
  H   H14       1.0  0.5522  0.56483  0.07325  1.0000
  H   H15       1.0  0.63831  0.54746  0.15323  1.0000
  H   H16       1.0  0.46995000000000003  0.37138000000000004  0.0755  1.0000
  H   H17       1.0  0.3822199999999999  0.4167199999999999  0.13682  1.0000
  H   H18       1.0  0.5239299999999999  0.27438  0.3288899999999999  1.0000
  H   H19       1.0  0.25348  0.95047  0.23194  1.0000
  H   H20       1.0  0.2983399999999999  0.23218  0.10708999999999998  1.0000
  C   C1        1.0  0.13709  0.06012  0.86278  1.0000
  C   C2        1.0  0.23316999999999993  0.11307999999999996  0.8075499999999998  1.0000
  C   C3        1.0  0.30201  0.22861  0.82719  1.0000
  C   C4        1.0  0.39464999999999983  0.28053999999999996  0.7777699999999997  1.0000
  C   C5        1.0  0.41566  0.21746  0.70662  1.0000
  C   C6        1.0  0.34444  0.10339999999999996  0.6861499999999998  1.0000
  C   C7        1.0  0.25373  0.05002  0.73755  1.0000
  C   C8        1.0  0.36024  0.03444  0.60928  1.0000
  C   C9        1.0  0.4451199999999999  0.46022999999999986  0.8607399999999997  1.0000
  C   C10       1.0  0.53446  0.57881  0.8629299999999998  1.0000
  C   C11       1.0  0.57976  0.73231  0.78359  1.0000
  C   C12       1.0  0.5481699999999999  0.7779300000000001  0.7176299999999998  1.0000
  C   C13       1.0  0.6091199999999998  0.8912600000000002  0.7117  1.0000
  C   C14       1.0  0.7008799999999997  0.9612499999999999  0.77199  1.0000
  C   C15       1.0  0.73243  0.9150299999999999  0.83689  1.0000
  C   C16       1.0  0.6736399999999998  0.8008499999999998  0.8423399999999998  1.0000
  C   C17       1.0  0.8283099999999998  0.98753  0.9018499999999998  1.0000
  C   C18       1.0  0.57313  0.93754  0.6417799999999998  1.0000
  C   C19       1.0  0.8629  0.93988  0.13722  1.0000
  C   C20       1.0  0.76682  0.88692  0.19245  1.0000
  C   C21       1.0  0.69799  0.7713800000000001  0.17279999999999998  1.0000
  C   C22       1.0  0.60536  0.71947  0.22223999999999994  1.0000
  C   C23       1.0  0.5843599999999999  0.78256  0.29339  1.0000
  C   C24       1.0  0.65555  0.89662  0.31387  1.0000
  C   C25       1.0  0.74627  0.94998  0.26246  1.0000
  C   C26       1.0  0.6397499999999998  0.96565  0.39077  1.0000
  C   C27       1.0  0.55488  0.53976  0.13925  1.0000
  C   C28       1.0  0.4655399999999999  0.42119  0.13706999999999994  1.0000
  C   C29       1.0  0.4202399999999999  0.26768  0.21641  1.0000
  C   C30       1.0  0.4518199999999999  0.22205999999999998  0.2823599999999999  1.0000
  C   C31       1.0  0.39091  0.10873  0.2883  1.0000
  C   C32       1.0  0.29913  0.038749999999999986  0.22801  1.0000
  C   C33       1.0  0.26757  0.08497  0.1631  1.0000
  C   C34       1.0  0.3263599999999999  0.19915  0.15765  1.0000
  C   C35       1.0  0.17169  0.012469999999999997  0.09814999999999999  1.0000
  C   C36       1.0  0.4269699999999999  0.06247999999999998  0.35832999999999987  1.0000
  N   N1        1.0  0.85239  0.63986  0.9914399999999998  1.0000
  N   N2        1.0  0.2719  0.64283  0.4976799999999999  1.0000
  N   N3        1.0  0.14761  0.36014  0.00855  1.0000
  N   N4        1.0  0.7281499999999997  0.3572199999999999  0.5022999999999999  1.0000
  O   O1        1.0  0.95909  0.6851999999999999  0.010999999999999996  1.0000
  O   O2        1.0  0.8217299999999997  0.6919099999999999  0.9390499999999998  1.0000
  O   O3        1.0  0.7850299999999998  0.5577  0.02134  1.0000
  O   O4        1.0  0.09865000000000002  0.957  0.8704  1.0000
  O   O5        1.0  0.09910999999999998  0.12329999999999997  0.9012299999999998  1.0000
  O   O6        1.0  0.4688  0.39127999999999996  0.7932599999999997  1.0000
  O   O7        1.0  0.51385  0.62168  0.78638  1.0000
  O   O8        1.0  0.8852199999999998  0.9459199999999999  0.9379699999999997  1.0000
  O   O9        1.0  0.8553299999999998  0.08966999999999997  0.9238999999999998  1.0000
  O   O10       1.0  0.64056  0.03523  0.62512  1.0000
  O   O11       1.0  0.47630000000000006  0.8772100000000002  0.6022299999999998  1.0000
  O   O12       1.0  0.28123  0.93824  0.58145  1.0000
  O   O13       1.0  0.4539899999999999  0.07103  0.5713099999999999  1.0000
  O   O14       1.0  0.22199999999999995  0.7036  0.51885  1.0000
  O   O15       1.0  0.3538699999999999  0.68581  0.4460599999999999  1.0000
  O   O16       1.0  0.24684999999999999  0.55575  0.52577  1.0000
  O   O17       1.0  0.04091  0.3148  0.9889999999999998  1.0000
  O   O18       1.0  0.17826999999999998  0.30808  0.06094999999999998  1.0000
  O   O19       1.0  0.21497  0.44229999999999997  0.97865  1.0000
  O   O20       1.0  0.90136  0.043  0.1296  1.0000
  O   O21       1.0  0.9008999999999999  0.8767  0.09876  1.0000
  O   O22       1.0  0.5312  0.60872  0.20673999999999995  1.0000
  O   O23       1.0  0.4861599999999999  0.37832  0.21360999999999994  1.0000
  O   O24       1.0  0.11477  0.05407999999999999  0.062019999999999985  1.0000
  O   O25       1.0  0.14466  0.91033  0.07609  1.0000
  O   O26       1.0  0.35947  0.96475  0.37488  1.0000
  O   O27       1.0  0.52376  0.12285999999999998  0.3979699999999999  1.0000
  O   O28       1.0  0.71874  0.06173999999999997  0.4186999999999999  1.0000
  O   O29       1.0  0.5459899999999998  0.92901  0.4287499999999999  1.0000
  O   O30       1.0  0.77806  0.29653  0.4812  1.0000
  O   O31       1.0  0.6461399999999999  0.3142400000000001  0.55395  1.0000
  O   O32       1.0  0.7531699999999998  0.44432  0.4742  1.0000
