data_image0
_chemical_formula_structural       Mn2H18C30N2O8
_chemical_formula_sum              "Mn2 H18 C30 N2 O8"
_cell_length_a       7.91277
_cell_length_b       10.04528
_cell_length_c       12.515680000000001
_cell_angle_alpha    103.46943
_cell_angle_beta     91.6491
_cell_angle_gamma    113.10389

_space_group_name_H-M_alt    "P 1"
_space_group_IT_number       1

loop_
  _space_group_symop_operation_xyz
  'x, y, z'

loop_
  _atom_site_type_symbol
  _atom_site_label
  _atom_site_symmetry_multiplicity
  _atom_site_fract_x
  _atom_site_fract_y
  _atom_site_fract_z
  _atom_site_occupancy
  Mn  Mn1       1.0  0.96342  0.28606  0.46479  1.0000
  Mn  Mn2       1.0  0.03657999999999996  0.71394  0.53521  1.0000
  H   H1        1.0  0.48106  0.81653  0.47484  1.0000
  H   H2        1.0  0.654  0.88259  0.16318  1.0000
  H   H3        1.0  0.23648  0.45488  0.17968999999999996  1.0000
  H   H4        1.0  0.48571999999999993  0.6828299999999999  0.9912499999999997  1.0000
  H   H5        1.0  0.2518499999999999  0.37233  0.01932  1.0000
  H   H6        1.0  0.88375  0.15157  0.667  1.0000
  H   H7        1.0  0.01322000000000002  0.20927000000000004  0.86452  1.0000
  H   H8        1.0  0.44554  0.61161  0.81973  1.0000
  H   H9        1.0  0.29876  0.53863  0.6270699999999999  1.0000
  H   H10       1.0  0.51894  0.18347  0.52516  1.0000
  H   H11       1.0  0.346  0.11740999999999996  0.8368199999999999  1.0000
  H   H12       1.0  0.76352  0.54511  0.82031  1.0000
  H   H13       1.0  0.51427  0.31717  0.00875  1.0000
  H   H14       1.0  0.7481499999999999  0.6276599999999999  0.9806799999999998  1.0000
  H   H15       1.0  0.11624999999999999  0.84843  0.3330099999999999  1.0000
  H   H16       1.0  0.98677  0.79073  0.13548  1.0000
  H   H17       1.0  0.55445  0.38839  0.18028  1.0000
  H   H18       1.0  0.7012400000000002  0.46137  0.37293  1.0000
  C   C1        1.0  0.22376999999999997  0.53163  0.39877  1.0000
  C   C2        1.0  0.34055  0.62787  0.33177999999999996  1.0000
  C   C3        1.0  0.46785  0.77365  0.38553  1.0000
  C   C4        1.0  0.58024  0.86471  0.32382999999999995  1.0000
  C   C5        1.0  0.72081  0.01886999999999997  0.38001999999999997  1.0000
  C   C6        1.0  0.56456  0.80907  0.20904  1.0000
  C   C7        1.0  0.4456300000000001  0.6601600000000001  0.15474  1.0000
  C   C8        1.0  0.33186  0.57095  0.21703  1.0000
  C   C9        1.0  0.47389  0.60062  0.03805  1.0000
  C   C10       1.0  0.3468899999999999  0.4383499999999999  0.9706899999999998  1.0000
  C   C11       1.0  0.0074299999999999575  0.25273999999999996  0.7051099999999999  1.0000
  C   C12       1.0  0.08135999999999999  0.28653999999999996  0.8153599999999998  1.0000
  C   C13       1.0  0.24449  0.41526  0.86072  1.0000
  C   C14       1.0  0.32056  0.50854  0.7913899999999999  1.0000
  C   C15       1.0  0.24059000000000003  0.46775000000000005  0.682  1.0000
  C   C16       1.0  0.77623  0.46836  0.60123  1.0000
  C   C17       1.0  0.65945  0.37213000000000007  0.66822  1.0000
  C   C18       1.0  0.53215  0.22635  0.61447  1.0000
  C   C19       1.0  0.41976  0.13529  0.67617  1.0000
  C   C20       1.0  0.27917999999999993  0.98112  0.61999  1.0000
  C   C21       1.0  0.43543000000000004  0.19093  0.79096  1.0000
  C   C22       1.0  0.55437  0.33984  0.84526  1.0000
  C   C23       1.0  0.66813  0.42904  0.7829699999999998  1.0000
  C   C24       1.0  0.52611  0.39938  0.96195  1.0000
  C   C25       1.0  0.65311  0.56165  0.029309999999999992  1.0000
  C   C26       1.0  0.9925699999999998  0.74726  0.29489  1.0000
  C   C27       1.0  0.91864  0.71346  0.18465  1.0000
  C   C28       1.0  0.75551  0.58473  0.13928  1.0000
  C   C29       1.0  0.67944  0.49146  0.20860999999999993  1.0000
  C   C30       1.0  0.75941  0.53224  0.318  1.0000
  N   N1        1.0  0.08777999999999994  0.3403599999999999  0.6374699999999999  1.0000
  N   N2        1.0  0.9122199999999999  0.65963  0.3625399999999999  1.0000
  O   O1        1.0  0.15386  0.38898  0.36161  1.0000
  O   O2        1.0  0.19965  0.59719  0.49479  1.0000
  O   O3        1.0  0.7749  0.05388  0.48375  1.0000
  O   O4        1.0  0.7864500000000001  0.11362  0.32242  1.0000
  O   O5        1.0  0.84613  0.61101  0.63839  1.0000
  O   O6        1.0  0.80035  0.4028  0.50521  1.0000
  O   O7        1.0  0.22510000000000005  0.9461100000000001  0.5162499999999999  1.0000
  O   O8        1.0  0.21354999999999996  0.88637  0.67759  1.0000
