data_image0
_chemical_formula_structural       La2H18C42S6O12
_chemical_formula_sum              "La2 H18 C42 S6 O12"
_cell_length_a       7.96389
_cell_length_b       14.28929
_cell_length_c       14.28939
_cell_angle_alpha    69.65465
_cell_angle_beta     88.40944
_cell_angle_gamma    88.40943

_space_group_name_H-M_alt    "P 1"
_space_group_IT_number       1

loop_
  _space_group_symop_operation_xyz
  'x, y, z'

loop_
  _atom_site_type_symbol
  _atom_site_label
  _atom_site_symmetry_multiplicity
  _atom_site_fract_x
  _atom_site_fract_y
  _atom_site_fract_z
  _atom_site_occupancy
  La  La1       1.0  0.99787  0.2553  0.22327  1.0000
  La  La2       1.0  0.49787  0.22327000000000002  0.2553  1.0000
  H   H1        1.0  0.4966400000000001  0.4278500000000001  0.6085499999999999  1.0000
  H   H2        1.0  0.57028  0.7242400000000002  0.39873  1.0000
  H   H3        1.0  0.73128  0.6474800000000003  0.70149  1.0000
  H   H4        1.0  0.53224  0.24625000000000005  0.95738  1.0000
  H   H5        1.0  0.46069  0.33985  0.76831  1.0000
  H   H6        1.0  0.20926  0.6042800000000003  0.20831  1.0000
  H   H7        1.0  0.3645400000000001  0.69592  0.31194  1.0000
  H   H8        1.0  0.96103  0.9690799999999999  0.56959  1.0000
  H   H9        1.0  0.87838  0.7799300000000002  0.65432  1.0000
  H   H10       1.0  0.99664  0.60855  0.42785  1.0000
  H   H11       1.0  0.07027999999999998  0.39873000000000003  0.72423  1.0000
  H   H12       1.0  0.23128  0.7015000000000002  0.64748  1.0000
  H   H13       1.0  0.03225  0.95738  0.24625  1.0000
  H   H14       1.0  0.9606899999999999  0.7683100000000003  0.33985  1.0000
  H   H15       1.0  0.70926  0.20831  0.60428  1.0000
  H   H16       1.0  0.8645300000000002  0.31193999999999994  0.69592  1.0000
  H   H17       1.0  0.46101999999999993  0.56959  0.96908  1.0000
  H   H18       1.0  0.37838  0.65432  0.77992  1.0000
  C   C1        1.0  0.61897  0.5286699999999999  0.66654  1.0000
  C   C2        1.0  0.54138  0.50321  0.59172  1.0000
  C   C3        1.0  0.51977  0.57353  0.4956  1.0000
  C   C4        1.0  0.58077  0.6703900000000003  0.47403  1.0000
  C   C5        1.0  0.65813  0.69798  0.54734  1.0000
  C   C6        1.0  0.67507  0.62635  0.64347  1.0000
  C   C7        1.0  0.63522  0.45545999999999986  0.7673300000000001  1.0000
  C   C8        1.0  0.70271  0.36546999999999996  0.94603  1.0000
  C   C9        1.0  0.58766  0.31581999999999993  0.91022  1.0000
  C   C10       1.0  0.55042  0.3660900000000001  0.80898  1.0000
  C   C11       1.0  0.77201  0.3343900000000001  0.04594  1.0000
  C   C12       1.0  0.4331100000000001  0.54888  0.41845  1.0000
  C   C13       1.0  0.28505  0.46413  0.32019  1.0000
  C   C14       1.0  0.27632  0.56741  0.27701  1.0000
  C   C15       1.0  0.36146  0.6153800000000001  0.33201  1.0000
  C   C16       1.0  0.20567  0.39278  0.284  1.0000
  C   C17       1.0  0.72289  0.79801  0.52546  1.0000
  C   C18       1.0  0.80228  0.9759800000000001  0.4469  1.0000
  C   C19       1.0  0.87564  0.92985  0.53889  1.0000
  C   C20       1.0  0.8300600000000002  0.82942  0.58362  1.0000
  C   C21       1.0  0.8372  0.07625999999999997  0.37778000000000006  1.0000
  C   C22       1.0  0.11896999999999999  0.66655  0.52867  1.0000
  C   C23       1.0  0.04138000000000002  0.59172  0.50321  1.0000
  C   C24       1.0  0.019770000000000006  0.49560000000000004  0.57352  1.0000
  C   C25       1.0  0.08077  0.47403000000000006  0.67039  1.0000
  C   C26       1.0  0.15813  0.54734  0.69798  1.0000
  C   C27       1.0  0.17507  0.64347  0.62635  1.0000
  C   C28       1.0  0.13522000000000003  0.76733  0.45545  1.0000
  C   C29       1.0  0.20270999999999997  0.9460400000000002  0.36547  1.0000
  C   C30       1.0  0.08766  0.91022  0.31582  1.0000
  C   C31       1.0  0.050419999999999986  0.8089800000000003  0.3660900000000001  1.0000
  C   C32       1.0  0.27201  0.045950000000000005  0.33439  1.0000
  C   C33       1.0  0.93311  0.41845  0.54888  1.0000
  C   C34       1.0  0.78505  0.32019  0.46412  1.0000
  C   C35       1.0  0.77632  0.27701  0.56741  1.0000
  C   C36       1.0  0.86146  0.33200999999999997  0.61538  1.0000
  C   C37       1.0  0.70567  0.2840000000000001  0.3927800000000001  1.0000
  C   C38       1.0  0.2228800000000001  0.52546  0.79801  1.0000
  C   C39       1.0  0.30227  0.44689999999999996  0.97598  1.0000
  C   C40       1.0  0.37563  0.5389  0.92984  1.0000
  C   C41       1.0  0.3300600000000001  0.58363  0.82942  1.0000
  C   C42       1.0  0.3372  0.37778  0.07626  1.0000
  S   S1        1.0  0.76536  0.47516  0.85413  1.0000
  S   S2        1.0  0.397  0.4266  0.42935  1.0000
  S   S3        1.0  0.67468  0.8951700000000001  0.4163700000000001  1.0000
  S   S4        1.0  0.26536  0.8541300000000001  0.47516  1.0000
  S   S5        1.0  0.897  0.42935000000000006  0.4266  1.0000
  S   S6        1.0  0.17467000000000002  0.41637  0.89516  1.0000
  O   O1        1.0  0.71698  0.25333  0.11399  1.0000
  O   O2        1.0  0.89016  0.38322  0.0641  1.0000
  O   O3        1.0  0.09041  0.42246000000000006  0.22039  1.0000
  O   O4        1.0  0.25004  0.29829  0.31960000000000005  1.0000
  O   O5        1.0  0.94983  0.12689  0.39841  1.0000
  O   O6        1.0  0.75903  0.11056000000000005  0.29306  1.0000
  O   O7        1.0  0.21698  0.11399000000000004  0.25333  1.0000
  O   O8        1.0  0.3901600000000001  0.06411000000000001  0.38322  1.0000
  O   O9        1.0  0.59041  0.22038999999999997  0.42246  1.0000
  O   O10       1.0  0.75004  0.3196000000000001  0.29829  1.0000
  O   O11       1.0  0.44982999999999995  0.3984100000000001  0.12689  1.0000
  O   O12       1.0  0.25903  0.29306  0.11055000000000001  1.0000
