data_image0
_chemical_formula_structural       Zn4H28C52N4O16
_chemical_formula_sum              "Zn4 H28 C52 N4 O16"
_cell_length_a       11.91636
_cell_length_b       14.1495
_cell_length_c       13.89764
_cell_angle_alpha    90.0
_cell_angle_beta     114.93638000000001
_cell_angle_gamma    90.0

_space_group_name_H-M_alt    "P 1"
_space_group_IT_number       1

loop_
  _space_group_symop_operation_xyz
  'x, y, z'

loop_
  _atom_site_type_symbol
  _atom_site_label
  _atom_site_symmetry_multiplicity
  _atom_site_fract_x
  _atom_site_fract_y
  _atom_site_fract_z
  _atom_site_occupancy
  Zn  Zn1       1.0  0.61181  0.9444500000000002  0.04828000000000002  1.0000
  Zn  Zn2       1.0  0.3881899999999999  0.4444500000000001  0.45171  1.0000
  Zn  Zn3       1.0  0.38819000000000004  0.05555000000000001  0.9517100000000001  1.0000
  Zn  Zn4       1.0  0.61181  0.55555  0.5482800000000001  1.0000
  H   H1        1.0  0.5142400000000001  0.7504700000000002  0.26350000000000007  1.0000
  H   H2        1.0  0.17219  0.6872200000000003  0.28371  1.0000
  H   H3        1.0  0.1946  0.91993  0.09026  1.0000
  H   H4        1.0  0.96355  0.6943  0.15522  1.0000
  H   H5        1.0  0.7476899999999999  0.75089  0.10531  1.0000
  H   H6        1.0  0.84952  0.02996  0.10235000000000002  1.0000
  H   H7        1.0  0.0701  0.98594  0.15325000000000003  1.0000
  H   H8        1.0  0.4857599999999999  0.25047  0.2365  1.0000
  H   H9        1.0  0.82781  0.18722  0.21629  1.0000
  H   H10       1.0  0.8054  0.41993000000000014  0.40974000000000005  1.0000
  H   H11       1.0  0.036449999999999996  0.19430000000000003  0.34478000000000003  1.0000
  H   H12       1.0  0.25231  0.25089  0.3946900000000001  1.0000
  H   H13       1.0  0.15047000000000002  0.52996  0.3976500000000001  1.0000
  H   H14       1.0  0.9299000000000002  0.48595  0.3467400000000001  1.0000
  H   H15       1.0  0.4857599999999999  0.24953000000000003  0.7365  1.0000
  H   H16       1.0  0.82781  0.31278  0.7162900000000002  1.0000
  H   H17       1.0  0.8054  0.08007  0.90974  1.0000
  H   H18       1.0  0.03644000000000011  0.3057  0.8447800000000002  1.0000
  H   H19       1.0  0.2523100000000001  0.24911000000000005  0.8946900000000002  1.0000
  H   H20       1.0  0.15047000000000008  0.9700400000000002  0.8976400000000002  1.0000
  H   H21       1.0  0.9299000000000002  0.014050000000000003  0.8467400000000003  1.0000
  H   H22       1.0  0.51424  0.74953  0.76349  1.0000
  H   H23       1.0  0.17219  0.81278  0.78371  1.0000
  H   H24       1.0  0.19459000000000007  0.5800700000000001  0.5902500000000002  1.0000
  H   H25       1.0  0.96355  0.8057000000000002  0.65522  1.0000
  H   H26       1.0  0.7476899999999999  0.7491100000000003  0.60531  1.0000
  H   H27       1.0  0.8495200000000002  0.4700400000000001  0.6023500000000002  1.0000
  H   H28       1.0  0.0700900000000001  0.5140500000000001  0.6532500000000002  1.0000
  C   C1        1.0  0.4268  0.8972200000000002  0.11966000000000003  1.0000
  C   C2        1.0  0.35967  0.8399200000000001  0.17008000000000004  1.0000
  C   C3        1.0  0.41693  0.76589  0.24050000000000005  1.0000
  C   C4        1.0  0.34814  0.71123  0.28047  1.0000
  C   C5        1.0  0.22276  0.73078  0.25084  1.0000
  C   C6        1.0  0.16597  0.8079300000000003  0.18453  1.0000
  C   C7        1.0  0.23574  0.86135  0.14428000000000002  1.0000
  C   C8        1.0  0.40895000000000004  0.63337  0.35854000000000014  1.0000
  C   C9        1.0  0.03671000000000002  0.8354  0.15785000000000002  1.0000
  C   C10       1.0  0.94317  0.76959  0.14567000000000002  1.0000
  C   C11       1.0  0.8224399999999997  0.8004200000000002  0.1175  1.0000
  C   C12       1.0  0.8796599999999998  0.95659  0.11502  1.0000
  C   C13       1.0  0.0016900000000000105  0.93122  0.14246000000000003  1.0000
  C   C14       1.0  0.57319  0.39722000000000013  0.38034  1.0000
  C   C15       1.0  0.64033  0.33992  0.32991  1.0000
  C   C16       1.0  0.58307  0.2659000000000001  0.2595  1.0000
  C   C17       1.0  0.6518500000000002  0.21123000000000006  0.21953000000000006  1.0000
  C   C18       1.0  0.7772299999999999  0.23078000000000007  0.24916000000000005  1.0000
  C   C19       1.0  0.83403  0.3079400000000001  0.31547000000000003  1.0000
  C   C20       1.0  0.76425  0.36135  0.35571  1.0000
  C   C21       1.0  0.59104  0.13337  0.14145  1.0000
  C   C22       1.0  0.9632800000000001  0.3354000000000001  0.3421500000000001  1.0000
  C   C23       1.0  0.05682000000000002  0.26959  0.3543300000000001  1.0000
  C   C24       1.0  0.17756000000000005  0.30042  0.38250000000000006  1.0000
  C   C25       1.0  0.12034  0.4565900000000001  0.38498  1.0000
  C   C26       1.0  0.9983  0.43122  0.35754  1.0000
  C   C27       1.0  0.5731900000000001  0.10278  0.8803400000000001  1.0000
  C   C28       1.0  0.64033  0.16008000000000006  0.8299100000000001  1.0000
  C   C29       1.0  0.58307  0.2341  0.7594900000000002  1.0000
  C   C30       1.0  0.65185  0.28877  0.7195300000000001  1.0000
  C   C31       1.0  0.7772299999999999  0.26922  0.74916  1.0000
  C   C32       1.0  0.83403  0.19206000000000004  0.81547  1.0000
  C   C33       1.0  0.76425  0.13865  0.85571  1.0000
  C   C34       1.0  0.59104  0.36663  0.64145  1.0000
  C   C35       1.0  0.9632800000000001  0.16460000000000005  0.8421400000000002  1.0000
  C   C36       1.0  0.05681999999999999  0.23041000000000006  0.85432  1.0000
  C   C37       1.0  0.17756  0.19957  0.8825  1.0000
  C   C38       1.0  0.12034000000000007  0.04341000000000001  0.88498  1.0000
  C   C39       1.0  0.9983000000000001  0.06877  0.8575400000000002  1.0000
  C   C40       1.0  0.42680000000000007  0.60278  0.6196600000000001  1.0000
  C   C41       1.0  0.35967  0.66008  0.67008  1.0000
  C   C42       1.0  0.41693000000000013  0.7341  0.7405000000000003  1.0000
  C   C43       1.0  0.34814  0.7887700000000001  0.78047  1.0000
  C   C44       1.0  0.2227600000000002  0.7692200000000001  0.7508400000000002  1.0000
  C   C45       1.0  0.16596000000000005  0.69206  0.6845200000000001  1.0000
  C   C46       1.0  0.2357400000000001  0.6386500000000003  0.6442800000000002  1.0000
  C   C47       1.0  0.40895000000000004  0.8666300000000001  0.8585400000000001  1.0000
  C   C48       1.0  0.03671000000000012  0.6646000000000002  0.6578500000000003  1.0000
  C   C49       1.0  0.94317  0.7304100000000002  0.6456700000000001  1.0000
  C   C50       1.0  0.8224399999999997  0.69957  0.6175  1.0000
  C   C51       1.0  0.8796600000000001  0.54341  0.6150200000000001  1.0000
  C   C52       1.0  0.0016900000000000105  0.56877  0.64245  1.0000
  N   N1        1.0  0.7902799999999999  0.89256  0.10190000000000002  1.0000
  N   N2        1.0  0.20971999999999996  0.3925700000000001  0.39809  1.0000
  N   N3        1.0  0.20971999999999993  0.10743000000000003  0.8980900000000002  1.0000
  N   N4        1.0  0.7902699999999999  0.6074300000000001  0.6019  1.0000
  O   O1        1.0  0.36621  0.9661500000000002  0.06227000000000001  1.0000
  O   O2        1.0  0.53636  0.8723200000000002  0.13641000000000003  1.0000
  O   O3        1.0  0.52054  0.64736  0.4241900000000001  1.0000
  O   O4        1.0  0.3421600000000001  0.5613800000000001  0.3529700000000001  1.0000
  O   O5        1.0  0.63379  0.46615000000000006  0.4377300000000001  1.0000
  O   O6        1.0  0.46364  0.37232  0.36359000000000014  1.0000
  O   O7        1.0  0.47945  0.14736  0.07581  1.0000
  O   O8        1.0  0.65784  0.06138000000000001  0.14703  1.0000
  O   O9        1.0  0.63379  0.03385  0.9377300000000002  1.0000
  O   O10       1.0  0.46364  0.12768000000000002  0.86358  1.0000
  O   O11       1.0  0.47945  0.35264  0.5758000000000001  1.0000
  O   O12       1.0  0.6578399999999999  0.43862  0.64703  1.0000
  O   O13       1.0  0.36621  0.53385  0.56226  1.0000
  O   O14       1.0  0.53636  0.62768  0.6364100000000001  1.0000
  O   O15       1.0  0.52054  0.8526400000000001  0.9241900000000002  1.0000
  O   O16       1.0  0.3421600000000002  0.9386100000000003  0.8529600000000003  1.0000
