data_image0
_chemical_formula_structural       Ca8H32C64O32
_chemical_formula_sum              "Ca8 H32 C64 O32"
_cell_length_a       10.0332
_cell_length_b       11.02477
_cell_length_c       22.404629999999997
_cell_angle_alpha    95.21351999999999
_cell_angle_beta     89.87132
_cell_angle_gamma    89.64469000000001

_space_group_name_H-M_alt    "P 1"
_space_group_IT_number       1

loop_
  _space_group_symop_operation_xyz
  'x, y, z'

loop_
  _atom_site_type_symbol
  _atom_site_label
  _atom_site_symmetry_multiplicity
  _atom_site_fract_x
  _atom_site_fract_y
  _atom_site_fract_z
  _atom_site_occupancy
  Ca  Ca1       1.0  0.9757400000000002  0.453  0.83739  1.0000
  Ca  Ca2       1.0  0.02427  0.54699  0.1626  1.0000
  Ca  Ca3       1.0  0.8238400000000001  0.7497600000000001  0.2501  1.0000
  Ca  Ca4       1.0  0.17616000000000004  0.25024  0.7498900000000001  1.0000
  Ca  Ca5       1.0  0.9748600000000001  0.04889  0.6630000000000001  1.0000
  Ca  Ca6       1.0  0.0  0.5  0.0  1.0000
  Ca  Ca7       1.0  0.0  0.0  0.5  1.0000
  Ca  Ca8       1.0  0.02515  0.9511099999999999  0.337  1.0000
  H   H1        1.0  0.6964400000000001  0.15754  0.4896000000000001  1.0000
  H   H2        1.0  0.14814000000000002  0.13744  0.00588  1.0000
  H   H3        1.0  0.52136  0.69427  0.9412600000000001  1.0000
  H   H4        1.0  0.19148  0.58686  0.50053  1.0000
  H   H5        1.0  0.8518600000000001  0.86255  0.99412  1.0000
  H   H6        1.0  0.7315600000000001  0.66799  0.9974300000000001  1.0000
  H   H7        1.0  0.008690000000000002  0.8739399999999999  0.81618  1.0000
  H   H8        1.0  0.8085200000000001  0.41313  0.49947  1.0000
  H   H9        1.0  0.4982900000000001  0.4118900000000001  0.8479400000000002  1.0000
  H   H10       1.0  0.8508700000000002  0.63711  0.50507  1.0000
  H   H11       1.0  0.47673  0.19405  0.44167  1.0000
  H   H12       1.0  0.30357  0.8424500000000001  0.51039  1.0000
  H   H13       1.0  0.99131  0.12606  0.18381  1.0000
  H   H14       1.0  0.9925200000000001  0.37173  0.31708  1.0000
  H   H15       1.0  0.809  0.08692  0.00097  1.0000
  H   H16       1.0  0.88095  0.20610999999999996  0.91768  1.0000
  H   H17       1.0  0.50331  0.9124  0.34758  1.0000
  H   H18       1.0  0.14914  0.36289  0.49493  1.0000
  H   H19       1.0  0.11907  0.70459  0.41667  1.0000
  H   H20       1.0  0.30217  0.65603  0.98913  1.0000
  H   H21       1.0  0.88094  0.29541  0.58333  1.0000
  H   H22       1.0  0.4967  0.08759  0.65241  1.0000
  H   H23       1.0  0.4786500000000001  0.30573  0.05874  1.0000
  H   H24       1.0  0.2684500000000001  0.33201  0.0025700000000000002  1.0000
  H   H25       1.0  0.191  0.9130699999999999  0.99903  1.0000
  H   H26       1.0  0.69784  0.34395999999999993  0.01087  1.0000
  H   H27       1.0  0.50171  0.5881  0.15206  1.0000
  H   H28       1.0  0.73347  0.83378  0.50209  1.0000
  H   H29       1.0  0.26653  0.16621000000000002  0.49791  1.0000
  H   H30       1.0  0.5232800000000001  0.80595  0.55832  1.0000
  H   H31       1.0  0.11906  0.7938899999999999  0.08232  1.0000
  H   H32       1.0  0.007489999999999998  0.6282600000000002  0.6829200000000001  1.0000
  C   C1        1.0  0.49269000000000013  0.38856  0.894  1.0000
  C   C2        1.0  0.93067  0.64657  0.59426  1.0000
  C   C3        1.0  0.03896  0.27986  0.0975  1.0000
  C   C4        1.0  0.36941000000000007  0.37272999999999995  0.92149  1.0000
  C   C5        1.0  0.26057  0.59071  0.10221  1.0000
  C   C6        1.0  0.0028299999999999996  0.61775  0.31351  1.0000
  C   C7        1.0  0.12493000000000001  0.085  0.04336  1.0000
  C   C8        1.0  0.7569000000000001  0.89575  0.3877900000000001  1.0000
  C   C9        1.0  0.05276  0.54561  0.36147  1.0000
  C   C10       1.0  0.8739700000000002  0.5853  0.54282  1.0000
  C   C11       1.0  0.03559  0.41882  0.35718  1.0000
  C   C12       1.0  0.48092000000000007  0.16997  0.48766  1.0000
  C   C13       1.0  0.03441  0.07929  0.1434  1.0000
  C   C14       1.0  0.24311  0.10425000000000001  0.6122  1.0000
  C   C15       1.0  0.73944  0.40928  0.8977900000000001  1.0000
  C   C16       1.0  0.96559  0.9206999999999999  0.8566000000000001  1.0000
  C   C17       1.0  0.052000000000000005  0.95231  0.13843  1.0000
  C   C18       1.0  0.51732  0.67024  0.98725  1.0000
  C   C19       1.0  0.51909  0.8300300000000002  0.51234  1.0000
  C   C20       1.0  0.7550700000000001  0.6068  0.11213  1.0000
  C   C21       1.0  0.85173  0.46004  0.5395800000000001  1.0000
  C   C22       1.0  0.002680000000000001  0.87982  0.18630000000000002  1.0000
  C   C23       1.0  0.89152  0.10753000000000007  0.9137700000000002  1.0000
  C   C24       1.0  0.06934  0.35342  0.40574  1.0000
  C   C25       1.0  0.39613000000000004  0.84947  0.48555  1.0000
  C   C26       1.0  0.10905000000000001  0.6061  0.41328  1.0000
  C   C27       1.0  0.99733  0.12017000000000001  0.8137000000000001  1.0000
  C   C28       1.0  0.1474  0.9594399999999998  0.03939  1.0000
  C   C29       1.0  0.9644200000000002  0.5811699999999997  0.64281  1.0000
  C   C30       1.0  0.8750800000000001  0.9150000000000001  0.9566400000000002  1.0000
  C   C31       1.0  0.12604000000000004  0.41468999999999995  0.45718  1.0000
  C   C32       1.0  0.94725  0.45439  0.63852  1.0000
  C   C33       1.0  0.96049  0.78017  0.5953  1.0000
  C   C34       1.0  0.14828  0.53995  0.46042000000000005  1.0000
  C   C35       1.0  0.039520000000000007  0.21983  0.40470000000000006  1.0000
  C   C36       1.0  0.9480100000000001  0.04768  0.86157  1.0000
  C   C37       1.0  0.3907400000000001  0.87992  0.42614  1.0000
  C   C38       1.0  0.63544  0.65637  0.018800000000000004  1.0000
  C   C39       1.0  0.10849  0.89246  0.08622  1.0000
  C   C40       1.0  0.3894100000000001  0.61941  0.07339  1.0000
  C   C41       1.0  0.36457  0.34363  0.9812  1.0000
  C   C42       1.0  0.49108  0.11092  0.60636  1.0000
  C   C43       1.0  0.48269000000000006  0.32975  0.01275  1.0000
  C   C44       1.0  0.8526  0.040560000000000054  0.9606000000000002  1.0000
  C   C45       1.0  0.26161  0.90738  0.397  1.0000
  C   C46       1.0  0.36773  0.12595  0.57888  1.0000
  C   C47       1.0  0.50893  0.88908  0.39364000000000005  1.0000
  C   C48       1.0  0.9971800000000001  0.38225  0.68649  1.0000
  C   C49       1.0  0.5073200000000001  0.61143  0.106  1.0000
  C   C50       1.0  0.36282  0.15524999999999994  0.5192  1.0000
  C   C51       1.0  0.39462000000000014  0.64997  0.01402  1.0000
  C   C52       1.0  0.6053900000000001  0.35002  0.9859800000000001  1.0000
  C   C53       1.0  0.6371900000000001  0.84474  0.48080000000000006  1.0000
  C   C54       1.0  0.73839  0.09262  0.60299  1.0000
  C   C55       1.0  0.6106  0.38058999999999993  0.9266  1.0000
  C   C56       1.0  0.8909500000000001  0.3939  0.58672  1.0000
  C   C57       1.0  0.9318600000000001  0.85435  0.9047900000000001  1.0000
  C   C58       1.0  0.24493  0.3932  0.8878700000000003  1.0000
  C   C59       1.0  0.96105  0.72014  0.9025  1.0000
  C   C60       1.0  0.6322800000000001  0.87404  0.42112000000000005  1.0000
  C   C61       1.0  0.06815000000000002  0.14564  0.09521000000000002  1.0000
  C   C62       1.0  0.6306000000000002  0.62726  0.07851  1.0000
  C   C63       1.0  0.60926  0.12007999999999999  0.57386  1.0000
  C   C64       1.0  0.60388  0.15053  0.51445  1.0000
  O   O1        1.0  0.96596  0.67322  0.95252  1.0000
  O   O2        1.0  0.0004999999999999989  0.76328  0.178  1.0000
  O   O3        1.0  0.046860000000000006  0.43603  0.735  1.0000
  O   O4        1.0  0.0003699999999999996  0.7343299999999999  0.32168  1.0000
  O   O5        1.0  0.01995  0.3386  0.14855  1.0000
  O   O6        1.0  0.9531200000000001  0.93358  0.23505  1.0000
  O   O7        1.0  0.03405  0.32678  0.04748  1.0000
  O   O8        1.0  0.86006  0.56926  0.08348  1.0000
  O   O9        1.0  0.13995  0.43073  0.9165200000000001  1.0000
  O   O10       1.0  0.84593  0.41769  0.93043  1.0000
  O   O11       1.0  0.15408000000000002  0.5823  0.06957  1.0000
  O   O12       1.0  0.8461900000000001  0.08491  0.57092  1.0000
  O   O13       1.0  0.2462  0.3755  0.83043  1.0000
  O   O14       1.0  0.7402  0.07781999999999997  0.65841  1.0000
  O   O15       1.0  0.24206  0.12151  0.66966  1.0000
  O   O16       1.0  0.95315  0.56397  0.265  1.0000
  O   O17       1.0  0.8603900000000001  0.93382  0.41671  1.0000
  O   O18       1.0  0.02027  0.15913  0.35427  1.0000
  O   O19       1.0  0.99951  0.23672  0.8219900000000001  1.0000
  O   O20       1.0  0.99963  0.26567  0.67831  1.0000
  O   O21       1.0  0.9658900000000001  0.8242399999999999  0.54459  1.0000
  O   O22       1.0  0.7538  0.6245  0.16957  1.0000
  O   O23       1.0  0.04689000000000001  0.06642000000000003  0.7649500000000001  1.0000
  O   O24       1.0  0.03412  0.17575  0.45541  1.0000
  O   O25       1.0  0.7418600000000001  0.42449  0.84239  1.0000
  O   O26       1.0  0.98005  0.66139  0.85144  1.0000
  O   O27       1.0  0.15382000000000004  0.91508  0.42908  1.0000
  O   O28       1.0  0.13962  0.06618000000000002  0.5832900000000001  1.0000
  O   O29       1.0  0.9797400000000002  0.84086  0.64573  1.0000
  O   O30       1.0  0.7579500000000001  0.8784899999999999  0.33034  1.0000
  O   O31       1.0  0.25981  0.9221699999999999  0.34159  1.0000
  O   O32       1.0  0.25815  0.57551  0.1576  1.0000
