data_image0
_chemical_formula_structural       Sm4H18C48N6O36
_chemical_formula_sum              "Sm4 H18 C48 N6 O36"
_cell_length_a       13.85479
_cell_length_b       13.8989
_cell_length_c       16.36991
_cell_angle_alpha    66.67360999999998
_cell_angle_beta     66.63991
_cell_angle_gamma    71.51493

_space_group_name_H-M_alt    "P 1"
_space_group_IT_number       1

loop_
  _space_group_symop_operation_xyz
  'x, y, z'

loop_
  _atom_site_type_symbol
  _atom_site_label
  _atom_site_symmetry_multiplicity
  _atom_site_fract_x
  _atom_site_fract_y
  _atom_site_fract_z
  _atom_site_occupancy
  Sm  Sm1       1.0  0.56681  0.8462000000000002  0.00014  1.0000
  Sm  Sm2       1.0  0.15391999999999997  0.4333200000000001  0.4996799999999999  1.0000
  Sm  Sm3       1.0  0.43777999999999995  0.15199000000000001  0.004  1.0000
  Sm  Sm4       1.0  0.84719  0.56206  0.49639  1.0000
  H   H1        1.0  0.7612599999999998  0.65243  0.76586  1.0000
  H   H2        1.0  0.10129000000000003  0.53264  0.71743  1.0000
  H   H3        1.0  0.9111199999999995  0.6439500000000001  0.9551  1.0000
  H   H4        1.0  0.86683  0.9223500000000003  0.85672  1.0000
  H   H5        1.0  0.34497000000000005  0.23765999999999998  0.73629  1.0000
  H   H6        1.0  0.46419999999999995  0.8988000000000003  0.78447  1.0000
  H   H7        1.0  0.3580400000000001  0.08938000000000004  0.54422  1.0000
  H   H8        1.0  0.07832000000000003  0.13263  0.64351  1.0000
  H   H9        1.0  0.22880000000000003  0.34997  0.23215  1.0000
  H   H10       1.0  0.8885700000000001  0.46076  0.27673  1.0000
  H   H11       1.0  0.08843000000000001  0.35409  0.03801  1.0000
  H   H12       1.0  0.1394  0.07202000000000001  0.14657  1.0000
  H   H13       1.0  0.64646  0.77049  0.27031  1.0000
  H   H14       1.0  0.53985  0.11042  0.22228  1.0000
  H   H15       1.0  0.6471899999999998  0.9130900000000001  0.46095  1.0000
  H   H16       1.0  0.9263399999999997  0.8604300000000001  0.35497  1.0000
  H   H17       1.0  0.7412599999999998  0.25765000000000005  0.7498499999999998  1.0000
  H   H18       1.0  0.26366  0.7356  0.2512  1.0000
  C   C1        1.0  0.9380699999999998  0.5692200000000001  0.6473799999999997  1.0000
  C   C2        1.0  0.9316199999999998  0.58981  0.73254  1.0000
  C   C3        1.0  0.8251499999999998  0.6515500000000004  0.86705  1.0000
  C   C4        1.0  0.7217799999999999  0.7000600000000001  0.92412  1.0000
  C   C5        1.0  0.9165599999999999  0.6284900000000001  0.8932999999999999  1.0000
  C   C6        1.0  0.7926199999999995  0.08903000000000007  0.8110999999999999  1.0000
  C   C7        1.0  0.68356  0.07226000000000012  0.87766  1.0000
  C   C8        1.0  0.8785899999999996  0.0021199999999999817  0.81051  1.0000
  C   C9        1.0  0.83242  0.6332000000000001  0.78654  1.0000
  C   C10       1.0  0.023749999999999914  0.5664000000000003  0.7583099999999999  1.0000
  C   C11       1.0  0.014359999999999977  0.5870800000000003  0.83801  1.0000
  C   C12       1.0  0.42569000000000007  0.059780000000000055  0.8558999999999998  1.0000
  C   C13       1.0  0.40708999999999984  0.06790000000000003  0.76934  1.0000
  C   C14       1.0  0.3480399999999999  0.17481000000000002  0.63345  1.0000
  C   C15       1.0  0.30009  0.27805000000000013  0.5760599999999999  1.0000
  C   C16       1.0  0.37204  0.08386000000000002  0.60673  1.0000
  C   C17       1.0  0.91108  0.20695000000000005  0.68825  1.0000
  C   C18       1.0  0.9279499999999998  0.31559000000000004  0.62131  1.0000
  C   C19       1.0  0.9981299999999999  0.12111  0.68942  1.0000
  C   C20       1.0  0.36468999999999996  0.1670800000000001  0.71496  1.0000
  C   C21       1.0  0.43147  0.97628  0.74305  1.0000
  C   C22       1.0  0.41253999999999974  0.9861800000000002  0.66245  1.0000
  C   C23       1.0  0.04488999999999991  0.4298300000000001  0.35003  1.0000
  C   C24       1.0  0.057709999999999956  0.40828  0.26355  1.0000
  C   C25       1.0  0.16941  0.34788  0.12925  1.0000
  C   C26       1.0  0.27491  0.29961  0.07404  1.0000
  C   C27       1.0  0.07984  0.36958  0.10075  1.0000
  C   C28       1.0  0.21355  0.9048200000000002  0.19067  1.0000
  C   C29       1.0  0.3235099999999999  0.9199000000000003  0.12561  1.0000
  C   C30       1.0  0.12770999999999993  0.9917800000000001  0.19154  1.0000
  C   C31       1.0  0.15880999999999998  0.3672200000000001  0.21035999999999994  1.0000
  C   C32       1.0  0.9673999999999997  0.4293900000000001  0.23591999999999996  1.0000
  C   C33       1.0  0.9802499999999998  0.40976  0.15485999999999997  1.0000
  C   C34       1.0  0.57058  0.95379  0.15002  1.0000
  C   C35       1.0  0.59091  0.94142  0.23696  1.0000
  C   C36       1.0  0.65078  0.8307300000000001  0.37178  1.0000
  C   C37       1.0  0.6985499999999997  0.7256900000000002  0.42782  1.0000
  C   C38       1.0  0.63061  0.92077  0.39894  1.0000
  C   C39       1.0  0.09412000000000002  0.78632  0.31095  1.0000
  C   C40       1.0  0.07969  0.67659  0.37592  1.0000
  C   C41       1.0  0.006889999999999956  0.8719600000000002  0.30993  1.0000
  C   C42       1.0  0.63065  0.8406500000000001  0.29118  1.0000
  C   C43       1.0  0.5706899999999999  0.03194000000000001  0.2636  1.0000
  C   C44       1.0  0.59062  0.019770000000000003  0.34434  1.0000
  C   C45       1.0  0.8087100000000002  0.19094  0.7496299999999999  1.0000
  C   C46       1.0  0.9800399999999998  0.02011000000000006  0.7501199999999999  1.0000
  C   C47       1.0  0.19670999999999997  0.80275  0.25085  1.0000
  C   C48       1.0  0.025760000000000043  0.97338  0.25066  1.0000
  N   N1        1.0  0.11070999999999989  0.5634400000000002  0.86602  1.0000
  N   N2        1.0  0.4362899999999999  0.8903700000000002  0.63432  1.0000
  N   N3        1.0  0.8851799999999997  0.4330600000000001  0.12514  1.0000
  N   N4        1.0  0.56871  0.11520000000000001  0.37267  1.0000
  N   N5        1.0  0.07166000000000004  0.92869  0.7507  1.0000
  N   N6        1.0  0.9344199999999999  0.06513  0.25042  1.0000
  O   O1        1.0  0.67115  0.9754200000000003  0.9212699999999999  1.0000
  O   O2        1.0  0.8523200000000001  0.5938600000000003  0.6263999999999997  1.0000
  O   O3        1.0  0.715  0.7041700000000002  0.00346  1.0000
  O   O4        1.0  0.6102499999999997  0.15328  0.88764  1.0000
  O   O5        1.0  0.02908000000000001  0.5284  0.59955  1.0000
  O   O6        1.0  0.6416  0.7437300000000001  0.8925499999999997  1.0000
  O   O7        1.0  0.19744999999999988  0.5278400000000001  0.81534  1.0000
  O   O8        1.0  0.09777000000000002  0.58016  0.93919  1.0000
  O   O9        1.0  0.051519999999999996  0.8384900000000001  0.79949  1.0000
  O   O10       1.0  0.025080000000000005  0.32858000000000004  0.57839  1.0000
  O   O11       1.0  0.39625  0.14324000000000012  0.88073  1.0000
  O   O12       1.0  0.29589  0.2850300000000001  0.4966699999999999  1.0000
  O   O13       1.0  0.84642  0.3877700000000002  0.61063  1.0000
  O   O14       1.0  0.4701099999999995  0.9693500000000003  0.90104  1.0000
  O   O15       1.0  0.2568099999999999  0.35795  0.60767  1.0000
  O   O16       1.0  0.47148  0.80374  0.68514  1.0000
  O   O17       1.0  0.41982  0.90368  0.56093  1.0000
  O   O18       1.0  0.16248999999999994  0.9482900000000002  0.70245  1.0000
  O   O19       1.0  0.34337  0.014319999999999998  0.09221  1.0000
  O   O20       1.0  0.12807  0.41938000000000014  0.3702099999999999  1.0000
  O   O21       1.0  0.2838  0.29042  0.99614  1.0000
  O   O22       1.0  0.39049  0.83836  0.10725999999999997  1.0000
  O   O23       1.0  0.9493599999999996  0.4583200000000001  0.39997  1.0000
  O   O24       1.0  0.35425  0.26163999999999993  0.1067  1.0000
  O   O25       1.0  0.7972099999999999  0.4663100000000001  0.17600999999999994  1.0000
  O   O26       1.0  0.9001399999999997  0.4187400000000001  0.05038999999999998  1.0000
  O   O27       1.0  0.9545899999999997  0.15475  0.19913  1.0000
  O   O28       1.0  0.9848799999999998  0.6564700000000001  0.4113  1.0000
  O   O29       1.0  0.5813999999999998  0.8707800000000002  0.12987  1.0000
  O   O30       1.0  0.71523  0.72027  0.50155  1.0000
  O   O31       1.0  0.1621299999999998  0.6095000000000003  0.39236  1.0000
  O   O32       1.0  0.54284  0.04879000000000001  0.09945  1.0000
  O   O33       1.0  0.72867  0.6432  0.40035999999999994  1.0000
  O   O34       1.0  0.53795  0.20288  0.32020999999999994  1.0000
  O   O35       1.0  0.5817399999999999  0.10069999999999998  0.44784  1.0000
  O   O36       1.0  0.84392  0.04651000000000003  0.30139999999999995  1.0000
