data_image0
_chemical_formula_structural       Cu4H28C52N4O16
_chemical_formula_sum              "Cu4 H28 C52 N4 O16"
_cell_length_a       10.58727
_cell_length_b       10.90127
_cell_length_c       14.80106
_cell_angle_alpha    90.08901000000002
_cell_angle_beta     108.50575999999998
_cell_angle_gamma    89.96237

_space_group_name_H-M_alt    "P 1"
_space_group_IT_number       1

loop_
  _space_group_symop_operation_xyz
  'x, y, z'

loop_
  _atom_site_type_symbol
  _atom_site_label
  _atom_site_symmetry_multiplicity
  _atom_site_fract_x
  _atom_site_fract_y
  _atom_site_fract_z
  _atom_site_occupancy
  Cu  Cu1       1.0  0.09321  0.0841  0.01062  1.0000
  Cu  Cu2       1.0  0.90749  0.58458  0.48961  1.0000
  Cu  Cu3       1.0  0.9067899999999998  0.9158899999999999  0.98938  1.0000
  Cu  Cu4       1.0  0.09251  0.41541999999999996  0.51039  1.0000
  H   H1        1.0  0.036489999999999995  0.72478  0.77113  1.0000
  H   H2        1.0  0.5647099999999998  0.46209999999999996  0.93264  1.0000
  H   H3        1.0  0.3977799999999999  0.54551  0.77114  1.0000
  H   H4        1.0  0.4040499999999999  0.81316  0.9886200000000002  1.0000
  H   H5        1.0  0.9460599999999999  0.6440999999999999  0.03967  1.0000
  H   H6        1.0  0.6077200000000001  0.8559699999999999  0.9348600000000002  1.0000
  H   H7        1.0  0.8127999999999999  0.44821999999999995  0.0085  1.0000
  H   H8        1.0  0.9632999999999999  0.22424999999999998  0.72882  1.0000
  H   H9        1.0  0.43534999999999996  0.96208  0.56741  1.0000
  H   H10       1.0  0.60193  0.04582  0.7287  1.0000
  H   H11       1.0  0.59591  0.31284  0.5114  1.0000
  H   H12       1.0  0.05388000000000003  0.14404  0.46026  1.0000
  H   H13       1.0  0.39211  0.3559399999999999  0.56506  1.0000
  H   H14       1.0  0.1872  0.94806  0.4914800000000001  1.0000
  H   H15       1.0  0.9635099999999999  0.27522  0.22887  1.0000
  H   H16       1.0  0.43528999999999995  0.5379  0.06736  1.0000
  H   H17       1.0  0.60222  0.45449  0.22886  1.0000
  H   H18       1.0  0.59595  0.18682999999999997  0.01138  1.0000
  H   H19       1.0  0.05393999999999993  0.3559  0.96033  1.0000
  H   H20       1.0  0.39228  0.14402  0.06514  1.0000
  H   H21       1.0  0.1872  0.5517799999999999  0.9915  1.0000
  H   H22       1.0  0.03670000000000002  0.7757499999999999  0.27118  1.0000
  H   H23       1.0  0.56464  0.03792  0.43259  1.0000
  H   H24       1.0  0.39807  0.9541799999999999  0.2713  1.0000
  H   H25       1.0  0.40409  0.6871499999999999  0.4886  1.0000
  H   H26       1.0  0.94612  0.85596  0.53974  1.0000
  H   H27       1.0  0.6078899999999999  0.64406  0.43494  1.0000
  H   H28       1.0  0.8127999999999999  0.05194  0.50852  1.0000
  C   C1        1.0  0.13902000000000012  0.86134  0.9295800000000002  1.0000
  C   C2        1.0  0.5650500000000002  0.66042  0.92875  1.0000
  C   C3        1.0  0.13560999999999995  0.57201  0.66826  1.0000
  C   C4        1.0  0.4191099999999999  0.6759999999999999  0.88604  1.0000
  C   C5        1.0  0.14290999999999998  0.71081  0.80377  1.0000
  C   C6        1.0  0.21314000000000005  0.77545  0.8857900000000002  1.0000
  C   C7        1.0  0.62576  0.54464  0.94822  1.0000
  C   C8        1.0  0.34722  0.6095499999999999  0.80448  1.0000
  C   C9        1.0  0.3510399999999999  0.76056  0.92542  1.0000
  C   C10       1.0  0.21047999999999997  0.62971  0.76195  1.0000
  C   C11       1.0  0.83814  0.6446  0.00814  1.0000
  C   C12       1.0  0.64856  0.76371  0.9500200000000002  1.0000
  C   C13       1.0  0.7636399999999999  0.53668  0.9897800000000001  1.0000
  C   C14       1.0  0.86126  0.35942  0.57002  1.0000
  C   C15       1.0  0.4347700000000001  0.16042  0.5711700000000002  1.0000
  C   C16       1.0  0.86269  0.07187  0.83171  1.0000
  C   C17       1.0  0.58062  0.17607  0.61388  1.0000
  C   C18       1.0  0.8568599999999998  0.21032999999999993  0.69623  1.0000
  C   C19       1.0  0.78681  0.27451  0.6140500000000001  1.0000
  C   C20       1.0  0.3742  0.04457  0.55176  1.0000
  C   C21       1.0  0.65235  0.10971999999999998  0.6953300000000001  1.0000
  C   C22       1.0  0.6488300000000001  0.26023  0.57453  1.0000
  C   C23       1.0  0.7890099999999999  0.1298  0.73804  1.0000
  C   C24       1.0  0.16179  0.14448  0.49175  1.0000
  C   C25       1.0  0.35127  0.26367  0.54988  1.0000
  C   C26       1.0  0.23632000000000006  0.03655  0.51018  1.0000
  C   C27       1.0  0.86098  0.13866  0.07043  1.0000
  C   C28       1.0  0.4349499999999999  0.33957  0.07125  1.0000
  C   C29       1.0  0.86439  0.42799  0.3317400000000001  1.0000
  C   C30       1.0  0.58089  0.32399  0.11396  1.0000
  C   C31       1.0  0.8570899999999999  0.28918  0.19623000000000004  1.0000
  C   C32       1.0  0.78685  0.22454999999999994  0.11422000000000002  1.0000
  C   C33       1.0  0.37423999999999996  0.45536  0.05178  1.0000
  C   C34       1.0  0.65278  0.39044999999999996  0.19552  1.0000
  C   C35       1.0  0.64896  0.23944  0.07459  1.0000
  C   C36       1.0  0.7895199999999999  0.37029  0.23805000000000007  1.0000
  C   C37       1.0  0.16185999999999998  0.35538999999999993  0.99186  1.0000
  C   C38       1.0  0.35144  0.23629  0.04998  1.0000
  C   C39       1.0  0.23636  0.46332  0.01022  1.0000
  C   C40       1.0  0.13874  0.64058  0.4299800000000001  1.0000
  C   C41       1.0  0.56523  0.83958  0.4288300000000001  1.0000
  C   C42       1.0  0.13731  0.92813  0.16829  1.0000
  C   C43       1.0  0.41938  0.8239299999999999  0.3861200000000001  1.0000
  C   C44       1.0  0.14314  0.7896699999999999  0.3037700000000001  1.0000
  C   C45       1.0  0.21319  0.72549  0.38595  1.0000
  C   C46       1.0  0.6258000000000001  0.95542  0.44824  1.0000
  C   C47       1.0  0.34765  0.89028  0.30467  1.0000
  C   C48       1.0  0.35117  0.73977  0.42547  1.0000
  C   C49       1.0  0.21099  0.8702  0.26196  1.0000
  C   C50       1.0  0.83821  0.85552  0.50825  1.0000
  C   C51       1.0  0.64873  0.73633  0.45012  1.0000
  C   C52       1.0  0.76367  0.96345  0.48982000000000003  1.0000
  N   N1        1.0  0.78169  0.75632  0.98733  1.0000
  N   N2        1.0  0.21817  0.25622  0.51251  1.0000
  N   N3        1.0  0.21831000000000006  0.24367  0.012670000000000004  1.0000
  N   N4        1.0  0.78183  0.74378  0.4874900000000001  1.0000
  O   O1        1.0  0.1946  0.9638499999999999  0.95926  1.0000
  O   O2        1.0  0.026310000000000035  0.82344  0.9322600000000001  1.0000
  O   O3        1.0  0.18836000000000003  0.47975  0.64098  1.0000
  O   O4        1.0  0.025599999999999987  0.62377  0.62275  1.0000
  O   O5        1.0  0.80604  0.46184999999999987  0.53997  1.0000
  O   O6        1.0  0.97385  0.32084  0.56754  1.0000
  O   O7        1.0  0.8070399999999999  0.98206  0.8593  1.0000
  O   O8        1.0  0.9743  0.12104  0.87697  1.0000
  O   O9        1.0  0.8054  0.03615  0.04074  1.0000
  O   O10       1.0  0.97369  0.17656  0.06774  1.0000
  O   O11       1.0  0.8116399999999999  0.52025  0.35902000000000006  1.0000
  O   O12       1.0  0.9743900000000002  0.37623  0.3772500000000001  1.0000
  O   O13       1.0  0.19396  0.5381399999999998  0.46003  1.0000
  O   O14       1.0  0.02614999999999997  0.67916  0.43246  1.0000
  O   O15       1.0  0.19296  0.017939999999999998  0.1407  1.0000
  O   O16       1.0  0.0257  0.87895  0.12303  1.0000
