data_image0
_chemical_formula_structural       Zn6H40C62N4O30
_chemical_formula_sum              "Zn6 H40 C62 N4 O30"
_cell_length_a       11.74615
_cell_length_b       13.46135
_cell_length_c       15.74472
_cell_angle_alpha    113.93703999999998
_cell_angle_beta     99.04007
_cell_angle_gamma    102.19968000000001

_space_group_name_H-M_alt    "P 1"
_space_group_IT_number       1

loop_
  _space_group_symop_operation_xyz
  'x, y, z'

loop_
  _atom_site_type_symbol
  _atom_site_label
  _atom_site_symmetry_multiplicity
  _atom_site_fract_x
  _atom_site_fract_y
  _atom_site_fract_z
  _atom_site_occupancy
  Zn  Zn1       1.0  0.35171  0.34578  0.65463  1.0000
  Zn  Zn2       1.0  0.47831000000000007  0.8062500000000001  0.3083399999999999  1.0000
  Zn  Zn3       1.0  0.09197999999999994  0.4359999999999999  0.6915399999999998  1.0000
  Zn  Zn4       1.0  0.64829  0.65421  0.34537  1.0000
  Zn  Zn5       1.0  0.52168  0.19374999999999995  0.6916599999999998  1.0000
  Zn  Zn6       1.0  0.9080099999999999  0.56399  0.30846  1.0000
  H   H1        1.0  0.11835999999999992  0.005689999999999939  0.3770199999999999  1.0000
  H   H2        1.0  0.8984  0.8367300000000002  0.29391  1.0000
  H   H3        1.0  0.5346199999999999  0.65255  0.94986  1.0000
  H   H4        1.0  0.6542  0.7410700000000002  0.14342  1.0000
  H   H5        1.0  0.18022  0.73136  0.64034  1.0000
  H   H6        1.0  0.26370000000000005  0.8215000000000001  0.5246  1.0000
  H   H7        1.0  0.9960299999999997  0.45448000000000005  0.41681  1.0000
  H   H8        1.0  0.16681999999999994  0.37749999999999995  0.4432799999999999  1.0000
  H   H9        1.0  0.12448999999999996  0.54626  0.21984999999999996  1.0000
  H   H10       1.0  0.29974  0.4721000000000001  0.23809999999999995  1.0000
  H   H11       1.0  0.35762  0.3530400000000001  0.4164199999999999  1.0000
  H   H12       1.0  0.43832  0.44834  0.3807599999999999  1.0000
  H   H13       1.0  0.35106999999999994  0.30102  0.20548  1.0000
  H   H14       1.0  0.44849  0.26512  0.2768399999999999  1.0000
  H   H15       1.0  0.18888999999999997  0.17903000000000005  0.27161  1.0000
  H   H16       1.0  0.21254000000000003  0.12517000000000006  0.15572  1.0000
  H   H17       1.0  0.31842999999999994  0.9844600000000001  0.10482  1.0000
  H   H18       1.0  0.31481  0.1455  0.40386  1.0000
  H   H19       1.0  0.40302999999999994  0.0029299999999999322  0.4275899999999999  1.0000
  H   H20       1.0  0.4037200000000001  0.8455200000000003  0.13981  1.0000
  H   H21       1.0  0.8816399999999999  0.99431  0.62298  1.0000
  H   H22       1.0  0.10158999999999999  0.16327  0.7060899999999999  1.0000
  H   H23       1.0  0.4653699999999999  0.34744  0.05014  1.0000
  H   H24       1.0  0.3457899999999999  0.2589199999999999  0.8565799999999998  1.0000
  H   H25       1.0  0.8197799999999997  0.26863  0.35966  1.0000
  H   H26       1.0  0.73629  0.1785  0.4754  1.0000
  H   H27       1.0  0.003959999999999957  0.54551  0.5831899999999998  1.0000
  H   H28       1.0  0.8331799999999999  0.6225000000000003  0.55672  1.0000
  H   H29       1.0  0.87551  0.45373  0.7801499999999998  1.0000
  H   H30       1.0  0.7002599999999999  0.5278900000000002  0.7619  1.0000
  H   H31       1.0  0.64238  0.64696  0.58358  1.0000
  H   H32       1.0  0.5616799999999997  0.55165  0.61924  1.0000
  H   H33       1.0  0.6489299999999999  0.6989799999999999  0.7945199999999998  1.0000
  H   H34       1.0  0.5515099999999997  0.73488  0.72316  1.0000
  H   H35       1.0  0.8111  0.8209700000000001  0.7283899999999998  1.0000
  H   H36       1.0  0.78746  0.8748200000000002  0.8442799999999998  1.0000
  H   H37       1.0  0.6815699999999997  0.015529999999999926  0.8951799999999998  1.0000
  H   H38       1.0  0.68518  0.8544900000000001  0.5961399999999998  1.0000
  H   H39       1.0  0.59697  0.9970600000000004  0.57241  1.0000
  H   H40       1.0  0.5962699999999999  0.15447000000000005  0.8601899999999999  1.0000
  C   C1        1.0  0.09244  0.22217000000000006  0.525  1.0000
  C   C2        1.0  0.011509999999999975  0.10735999999999998  0.45533999999999997  1.0000
  C   C3        1.0  0.03164999999999996  0.011599999999999944  0.3900799999999999  1.0000
  C   C4        1.0  0.9185899999999998  0.9244500000000002  0.34728  1.0000
  C   C5        1.0  0.8361999999999999  0.9712500000000002  0.3900499999999999  1.0000
  C   C6        1.0  0.70837  0.9251400000000001  0.3832599999999999  1.0000
  C   C7        1.0  0.5617799999999997  0.4220899999999999  0.8374899999999997  1.0000
  C   C8        1.0  0.61258  0.51465  0.93696  1.0000
  C   C9        1.0  0.59119  0.61768  0.98392  1.0000
  C   C10       1.0  0.65217  0.6630800000000001  0.08309  1.0000
  C   C11       1.0  0.7086  0.58562  0.09056999999999997  1.0000
  C   C12       1.0  0.7840399999999997  0.585  0.17368999999999996  1.0000
  C   C13       1.0  0.29233  0.55433  0.6432599999999998  1.0000
  C   C14       1.0  0.30926999999999993  0.6354000000000001  0.60245  1.0000
  C   C15       1.0  0.24799  0.7124  0.60218  1.0000
  C   C16       1.0  0.28989999999999994  0.7581500000000001  0.5422299999999999  1.0000
  C   C17       1.0  0.37531000000000003  0.7072200000000002  0.51013  1.0000
  C   C18       1.0  0.44733  0.7225000000000003  0.4456999999999999  1.0000
  C   C19       1.0  0.06581000000000002  0.4571600000000001  0.37903  1.0000
  C   C20       1.0  0.16026999999999997  0.4132100000000001  0.3924199999999999  1.0000
  C   C21       1.0  0.24842  0.41806  0.34242  1.0000
  C   C22       1.0  0.13702000000000003  0.5081300000000001  0.26844  1.0000
  C   C23       1.0  0.23371  0.46586  0.27848999999999996  1.0000
  C   C24       1.0  0.35554000000000013  0.37665000000000004  0.35724  1.0000
  C   C25       1.0  0.3589700000000002  0.27725  0.26466  1.0000
  C   C26       1.0  0.25843  0.1628  0.23299  1.0000
  C   C27       1.0  0.30898  0.07742000000000002  0.2515  1.0000
  C   C28       1.0  0.33623000000000003  0.9918600000000002  0.17743999999999993  1.0000
  C   C29       1.0  0.3340099999999999  0.08139999999999997  0.34318  1.0000
  C   C30       1.0  0.3839  0.0025099999999999775  0.3574399999999999  1.0000
  C   C31       1.0  0.38469999999999993  0.9148899999999999  0.19614  1.0000
  C   C32       1.0  0.90756  0.77782  0.47501  1.0000
  C   C33       1.0  0.98848  0.8926299999999999  0.5446599999999999  1.0000
  C   C34       1.0  0.96835  0.98839  0.60992  1.0000
  C   C35       1.0  0.08141000000000002  0.07554000000000008  0.65272  1.0000
  C   C36       1.0  0.16379999999999997  0.028749999999999967  0.6099499999999999  1.0000
  C   C37       1.0  0.2916299999999999  0.07484999999999987  0.6167399999999998  1.0000
  C   C38       1.0  0.43821  0.5779  0.16251  1.0000
  C   C39       1.0  0.38742  0.4853500000000001  0.06304  1.0000
  C   C40       1.0  0.40880999999999995  0.3823100000000001  0.01608  1.0000
  C   C41       1.0  0.34781999999999996  0.33690999999999993  0.91691  1.0000
  C   C42       1.0  0.29139999999999994  0.41438  0.9094399999999998  1.0000
  C   C43       1.0  0.2159599999999999  0.4149999999999999  0.8263099999999998  1.0000
  C   C44       1.0  0.7076599999999998  0.44567  0.35674  1.0000
  C   C45       1.0  0.6907299999999998  0.36459  0.3975499999999999  1.0000
  C   C46       1.0  0.75201  0.28759000000000007  0.39781999999999995  1.0000
  C   C47       1.0  0.7101  0.24184000000000005  0.45777  1.0000
  C   C48       1.0  0.62469  0.29277  0.4898699999999999  1.0000
  C   C49       1.0  0.5526699999999999  0.27749  0.5543  1.0000
  C   C50       1.0  0.93419  0.54284  0.62097  1.0000
  C   C51       1.0  0.8397299999999999  0.58679  0.6075799999999998  1.0000
  C   C52       1.0  0.75157  0.58194  0.6575799999999998  1.0000
  C   C53       1.0  0.8629799999999997  0.49187  0.7315599999999998  1.0000
  C   C54       1.0  0.7662899999999998  0.5341300000000001  0.7215099999999999  1.0000
  C   C55       1.0  0.64446  0.62334  0.64276  1.0000
  C   C56       1.0  0.6410299999999998  0.7227399999999999  0.7353399999999998  1.0000
  C   C57       1.0  0.74156  0.8372000000000003  0.76702  1.0000
  C   C58       1.0  0.6910099999999998  0.9225700000000001  0.7484999999999998  1.0000
  C   C59       1.0  0.66377  0.008139999999999956  0.82256  1.0000
  C   C60       1.0  0.66598  0.9186000000000001  0.65682  1.0000
  C   C61       1.0  0.6161  0.99748  0.64256  1.0000
  C   C62       1.0  0.6152999999999998  0.08509999999999994  0.8038599999999999  1.0000
  N   N1        1.0  0.05379000000000002  0.5046800000000001  0.31851  1.0000
  N   N2        1.0  0.40871999999999997  0.9201600000000002  0.28490999999999994  1.0000
  N   N3        1.0  0.9461999999999998  0.4953099999999999  0.6814899999999998  1.0000
  N   N4        1.0  0.5912799999999997  0.07983999999999994  0.7150899999999999  1.0000
  O   O1        1.0  0.20543999999999998  0.23519000000000004  0.5371799999999999  1.0000
  O   O2        1.0  0.040069999999999995  0.29624  0.56478  1.0000
  O   O3        1.0  0.8920099999999999  0.08375  0.45537  1.0000
  O   O4        1.0  0.65291  0.81973  0.31565  1.0000
  O   O5        1.0  0.6563  0.9848600000000002  0.4371  1.0000
  O   O6        1.0  0.5935099999999999  0.33191000000000004  0.81903  1.0000
  O   O7        1.0  0.49107  0.4413  0.78002  1.0000
  O   O8        1.0  0.6862399999999999  0.49515000000000003  0.00143  1.0000
  O   O9        1.0  0.7762499999999999  0.6461400000000003  0.25887  1.0000
  O   O10       1.0  0.85864  0.5275000000000001  0.16252999999999995  1.0000
  O   O11       1.0  0.21182999999999996  0.56228  0.69016  1.0000
  O   O12       1.0  0.35381  0.4851300000000001  0.62803  1.0000
  O   O13       1.0  0.3887  0.6321400000000003  0.5466499999999997  1.0000
  O   O14       1.0  0.5358  0.68268  0.43758  1.0000
  O   O15       1.0  0.41061  0.77884  0.40388  1.0000
  O   O16       1.0  0.7945499999999999  0.7648000000000001  0.46282  1.0000
  O   O17       1.0  0.9599299999999998  0.70375  0.4352199999999999  1.0000
  O   O18       1.0  0.10797999999999998  0.9162400000000002  0.54464  1.0000
  O   O19       1.0  0.34708  0.1802700000000001  0.68435  1.0000
  O   O20       1.0  0.34368999999999994  0.015130000000000015  0.5629  1.0000
  O   O21       1.0  0.40649000000000013  0.6680900000000002  0.18096999999999996  1.0000
  O   O22       1.0  0.50893  0.5586900000000001  0.21997999999999995  1.0000
  O   O23       1.0  0.3137599999999999  0.50485  0.9985699999999998  1.0000
  O   O24       1.0  0.22374999999999995  0.35384999999999994  0.7411299999999997  1.0000
  O   O25       1.0  0.14135  0.47249  0.83747  1.0000
  O   O26       1.0  0.78817  0.43772000000000005  0.3098399999999999  1.0000
  O   O27       1.0  0.64619  0.51486  0.3719699999999999  1.0000
  O   O28       1.0  0.6112999999999998  0.36786  0.45334999999999986  1.0000
  O   O29       1.0  0.46419999999999995  0.31730999999999987  0.5624199999999998  1.0000
  O   O30       1.0  0.58939  0.2211500000000001  0.59612  1.0000
