data_image0
_chemical_formula_structural       Ho4P4H28C32N4O32
_chemical_formula_sum              "Ho4 P4 H28 C32 N4 O32"
_cell_length_a       9.58303
_cell_length_b       10.31917
_cell_length_c       15.55648
_cell_angle_alpha    90.24952999999998
_cell_angle_beta     98.54028999999998
_cell_angle_gamma    90.32669

_space_group_name_H-M_alt    "P 1"
_space_group_IT_number       1

loop_
  _space_group_symop_operation_xyz
  'x, y, z'

loop_
  _atom_site_type_symbol
  _atom_site_label
  _atom_site_symmetry_multiplicity
  _atom_site_fract_x
  _atom_site_fract_y
  _atom_site_fract_z
  _atom_site_occupancy
  Ho  Ho1       1.0  0.23012999999999997  0.10395  0.40032  1.0000
  Ho  Ho2       1.0  0.2705  0.60068  0.10376  1.0000
  Ho  Ho3       1.0  0.77  0.8960499999999999  0.59969  1.0000
  Ho  Ho4       1.0  0.7293899999999998  0.39933  0.8962099999999997  1.0000
  P   P1        1.0  0.17685999999999996  0.8524299999999998  0.23206999999999994  1.0000
  P   P2        1.0  0.32447  0.3527899999999999  0.27017999999999986  1.0000
  P   P3        1.0  0.8231599999999999  0.14755  0.76792  1.0000
  P   P4        1.0  0.67552  0.64722  0.72983  1.0000
  H   H1        1.0  0.3254899999999999  0.86259  0.91955  1.0000
  H   H2        1.0  0.39189999999999997  0.10044999999999998  0.9128399999999998  1.0000
  H   H3        1.0  0.29326  0.25702  0.01305  1.0000
  H   H4        1.0  0.14396999999999996  0.16956999999999997  0.11867  1.0000
  H   H5        1.0  0.0022499999999999964  0.8329599999999999  0.10513  1.0000
  H   H6        1.0  0.99537  0.9870799999999998  0.15823999999999994  1.0000
  H   H7        1.0  0.04813000000000001  0.82434  0.33202  1.0000
  H   H8        1.0  0.17493999999999996  0.36774  0.5824999999999998  1.0000
  H   H9        1.0  0.10809  0.6050099999999999  0.58797  1.0000
  H   H10       1.0  0.20523999999999995  0.7598699999999999  0.48623  1.0000
  H   H11       1.0  0.35428  0.67151  0.3809  1.0000
  H   H12       1.0  0.49905999999999995  0.33717  0.39774  1.0000
  H   H13       1.0  0.5063999999999999  0.49049  0.34446  1.0000
  H   H14       1.0  0.45287999999999995  0.32454999999999995  0.16964  1.0000
  H   H15       1.0  0.67456  0.1374  0.08044  1.0000
  H   H16       1.0  0.6080599999999999  0.8995399999999999  0.08712  1.0000
  H   H17       1.0  0.7066499999999999  0.7429699999999999  0.9869599999999997  1.0000
  H   H18       1.0  0.85598  0.8303999999999998  0.8812999999999998  1.0000
  H   H19       1.0  0.99774  0.16702  0.8948799999999998  1.0000
  H   H20       1.0  0.004659999999999939  0.01292  0.8417499999999998  1.0000
  H   H21       1.0  0.9519499999999999  0.17563  0.66803  1.0000
  H   H22       1.0  0.8251  0.63224  0.41749  1.0000
  H   H23       1.0  0.8919799999999999  0.39496999999999993  0.4120099999999999  1.0000
  H   H24       1.0  0.79485  0.24012999999999995  0.51376  1.0000
  H   H25       1.0  0.6457599999999999  0.32846999999999993  0.61907  1.0000
  H   H26       1.0  0.50099  0.66278  0.60226  1.0000
  H   H27       1.0  0.49366  0.50947  0.65555  1.0000
  H   H28       1.0  0.54562  0.6750199999999998  0.8297399999999998  1.0000
  C   C1        1.0  0.28833999999999993  0.9374599999999997  0.9596599999999997  1.0000
  C   C2        1.0  0.32289  0.06772  0.95805  1.0000
  C   C3        1.0  0.26988  0.15404  0.01445  1.0000
  C   C4        1.0  0.18494  0.10593999999999999  0.07245999999999997  1.0000
  C   C5        1.0  0.15078  0.9746  0.0737  1.0000
  C   C6        1.0  0.06508  0.9147799999999999  0.13539  1.0000
  C   C7        1.0  0.54247  0.03346999999999999  0.46757  1.0000
  C   C8        1.0  0.006800000000000018  0.06298  0.52676  1.0000
  C   C9        1.0  0.21153999999999998  0.44203999999999993  0.5418399999999998  1.0000
  C   C10       1.0  0.17665  0.5719  0.54267  1.0000
  C   C11       1.0  0.22899  0.6571699999999998  0.48548  1.0000
  C   C12       1.0  0.314  0.60865  0.42772  1.0000
  C   C13       1.0  0.3492  0.47784  0.42766  1.0000
  C   C14       1.0  0.43633999999999995  0.41767999999999994  0.36692  1.0000
  C   C15       1.0  0.95721  0.5321099999999999  0.03276  1.0000
  C   C16       1.0  0.49127  0.56289  0.97303  1.0000
  C   C17       1.0  0.7116699999999999  0.06252  0.04032  1.0000
  C   C18       1.0  0.67708  0.93227  0.041919999999999985  1.0000
  C   C19       1.0  0.73006  0.84595  0.98551  1.0000
  C   C20       1.0  0.8150299999999999  0.89403  0.92752  1.0000
  C   C21       1.0  0.84923  0.025369999999999997  0.9262799999999999  1.0000
  C   C22       1.0  0.9349299999999999  0.08519999999999998  0.8646099999999998  1.0000
  C   C23       1.0  0.45748000000000005  0.9665199999999998  0.53243  1.0000
  C   C24       1.0  0.99328  0.93708  0.47328  1.0000
  C   C25       1.0  0.78848  0.55794  0.45814  1.0000
  C   C26       1.0  0.82338  0.42807999999999996  0.4573099999999999  1.0000
  C   C27       1.0  0.77105  0.34281  0.51449  1.0000
  C   C28       1.0  0.6860400000000001  0.39132999999999996  0.57225  1.0000
  C   C29       1.0  0.65082  0.5221299999999999  0.57232  1.0000
  C   C30       1.0  0.56372  0.5822699999999998  0.63307  1.0000
  C   C31       1.0  0.04235000000000001  0.4680099999999999  0.96718  1.0000
  C   C32       1.0  0.50634  0.43696  0.02559  1.0000
  N   N1        1.0  0.20304  0.8924699999999999  0.01616  1.0000
  N   N2        1.0  0.29673  0.3966799999999999  0.48549  1.0000
  N   N3        1.0  0.7969599999999998  0.10751999999999999  0.98382  1.0000
  N   N4        1.0  0.7032799999999999  0.60328  0.51448  1.0000
  O   O1        1.0  0.23751  0.96794  0.28642  1.0000
  O   O2        1.0  0.07088  0.77154  0.28143  1.0000
  O   O3        1.0  0.28519  0.76024  0.20282  1.0000
  O   O4        1.0  0.16673  0.76841  0.0134  1.0000
  O   O5        1.0  0.6762499999999999  0.02587  0.48501  1.0000
  O   O6        1.0  0.47307  0.09022  0.40347  1.0000
  O   O7        1.0  0.06876999999999997  0.15786  0.4981199999999999  1.0000
  O   O8        1.0  0.9516099999999998  0.059079999999999994  0.5964499999999998  1.0000
  O   O9        1.0  0.26343  0.46724  0.21618  1.0000
  O   O10       1.0  0.4299799999999999  0.27266  0.22039999999999996  1.0000
  O   O11       1.0  0.21602  0.26014  0.29951  1.0000
  O   O12       1.0  0.33344  0.27307999999999993  0.489  1.0000
  O   O13       1.0  0.82339  0.5267299999999999  0.01325  1.0000
  O   O14       1.0  0.026729999999999997  0.58425  0.0993  1.0000
  O   O15       1.0  0.43128  0.65695  0.0038399999999999992  1.0000
  O   O16       1.0  0.54328  0.55927  0.90202  1.0000
  O   O17       1.0  0.76247  0.03207  0.71358  1.0000
  O   O18       1.0  0.9290999999999999  0.22847999999999993  0.71857  1.0000
  O   O19       1.0  0.7148699999999999  0.23978999999999992  0.7972299999999998  1.0000
  O   O20       1.0  0.8332299999999999  0.23159  0.98657  1.0000
  O   O21       1.0  0.32368  0.9741399999999998  0.51498  1.0000
  O   O22       1.0  0.5269  0.9097699999999997  0.59652  1.0000
  O   O23       1.0  0.9312199999999999  0.8422  0.5019  1.0000
  O   O24       1.0  0.04841  0.94093  0.40356  1.0000
  O   O25       1.0  0.73652  0.5328  0.7838899999999999  1.0000
  O   O26       1.0  0.5701299999999999  0.7274599999999999  0.77954  1.0000
  O   O27       1.0  0.784  0.7398499999999999  0.70046  1.0000
  O   O28       1.0  0.6665700000000001  0.72691  0.511  1.0000
  O   O29       1.0  0.17606  0.47342999999999996  0.98665  1.0000
  O   O30       1.0  0.9728999999999999  0.41571  0.90063  1.0000
  O   O31       1.0  0.56876  0.34331  0.9960999999999998  1.0000
  O   O32       1.0  0.45142  0.4399  0.09556  1.0000
