data_image0
_chemical_formula_structural       Zn2H38C44N10O8
_chemical_formula_sum              "Zn2 H38 C44 N10 O8"
_cell_length_a       11.80134
_cell_length_b       11.785529999999998
_cell_length_c       13.60565
_cell_angle_alpha    110.32424999999999
_cell_angle_beta     90.06270999999998
_cell_angle_gamma    119.86097

_space_group_name_H-M_alt    "P 1"
_space_group_IT_number       1

loop_
  _space_group_symop_operation_xyz
  'x, y, z'

loop_
  _atom_site_type_symbol
  _atom_site_label
  _atom_site_symmetry_multiplicity
  _atom_site_fract_x
  _atom_site_fract_y
  _atom_site_fract_z
  _atom_site_occupancy
  Zn  Zn1       1.0  0.33622  0.7200599999999999  0.75747  1.0000
  Zn  Zn2       1.0  0.3847500000000001  0.72208  0.25825  1.0000
  H   H1        1.0  0.5324700000000001  0.43173  0.17227000000000006  1.0000
  H   H2        1.0  0.15599000000000005  0.2098500000000001  0.9553500000000001  1.0000
  H   H3        1.0  0.19785000000000005  0.015200000000000088  0.8509500000000001  1.0000
  H   H4        1.0  0.38611  0.55318  0.53245  1.0000
  H   H5        1.0  0.5719800000000002  0.9916500000000001  0.72868  1.0000
  H   H6        1.0  0.70553  0.96041  0.56153  1.0000
  H   H7        1.0  0.6085500000000001  0.71985  0.3699900000000001  1.0000
  H   H8        1.0  0.5208000000000002  0.5577  0.38781  1.0000
  H   H9        1.0  0.6408  0.50425  0.50235  1.0000
  H   H10       1.0  0.8581200000000001  0.54424  0.57259  1.0000
  H   H11       1.0  0.06809000000000004  0.92041  0.5057  1.0000
  H   H12       1.0  0.8513100000000002  0.8804  0.43524  1.0000
  H   H13       1.0  0.09886  0.70233  0.6381100000000001  1.0000
  H   H14       1.0  0.18696  0.86907  0.6271  1.0000
  H   H15       1.0  0.3302800000000001  0.88299  0.48611000000000004  1.0000
  H   H16       1.0  0.14347000000000013  0.4489400000000002  0.27654000000000006  1.0000
  H   H17       1.0  0.0055300000000000175  0.47156000000000003  0.44252  1.0000
  H   H18       1.0  0.6200900000000001  0.17284  0.02414  1.0000
  H   H19       1.0  0.67584  0.33637  0.13442  1.0000
  H   H20       1.0  0.9005600000000001  0.4329500000000001  0.6717300000000002  1.0000
  H   H21       1.0  0.05238000000000003  0.20683000000000004  0.45448000000000005  1.0000
  H   H22       1.0  0.8160800000000002  0.014079999999999994  0.35041  1.0000
  H   H23       1.0  0.16714  0.55331  0.03570000000000001  1.0000
  H   H24       1.0  0.41915  0.99334  0.22643000000000005  1.0000
  H   H25       1.0  0.25271  0.95783  0.057860000000000016  1.0000
  H   H26       1.0  0.10847000000000018  0.7143500000000003  0.8685100000000002  1.0000
  H   H27       1.0  0.034900000000000056  0.5543100000000001  0.8893000000000002  1.0000
  H   H28       1.0  0.86249  0.50263  0.00224  1.0000
  H   H29       1.0  0.6860900000000002  0.5442600000000001  0.07265000000000002  1.0000
  H   H30       1.0  0.85262  0.92096  0.00615  1.0000
  H   H31       1.0  0.028550000000000027  0.8794  0.93561  1.0000
  H   H32       1.0  0.6051800000000002  0.70558  0.13928000000000001  1.0000
  H   H33       1.0  0.6833900000000003  0.8713  0.12626  1.0000
  H   H34       1.0  0.5526400000000002  0.8823200000000002  0.9830200000000002  1.0000
  H   H35       1.0  0.30616  0.44680000000000003  0.77825  1.0000
  H   H36       1.0  0.46714  0.4725500000000001  0.94603  1.0000
  H   H37       1.0  0.5529500000000002  0.17391000000000006  0.5241700000000001  1.0000
  H   H38       1.0  0.6611000000000002  0.33834000000000014  0.6335100000000001  1.0000
  C   C1        1.0  0.4069900000000003  0.9948600000000002  0.8898700000000002  1.0000
  C   C2        1.0  0.38812000000000013  0.11376000000000014  0.9521200000000002  1.0000
  C   C3        1.0  0.4858000000000003  0.23325000000000004  0.044260000000000015  1.0000
  C   C4        1.0  0.45978000000000013  0.34023  0.10133  1.0000
  C   C5        1.0  0.3422000000000001  0.33087  0.06939  1.0000
  C   C6        1.0  0.24610000000000007  0.21328999999999998  0.9785500000000001  1.0000
  C   C7        1.0  0.27026000000000006  0.10724000000000002  0.9216900000000001  1.0000
  C   C8        1.0  0.31785000000000013  0.44765000000000005  0.12870000000000004  1.0000
  C   C9        1.0  0.45464  0.66784  0.56304  1.0000
  C   C10       1.0  0.5535100000000002  0.89692  0.66207  1.0000
  C   C11       1.0  0.6203500000000001  0.88258  0.5808  1.0000
  C   C12       1.0  0.6002800000000001  0.67079  0.427  1.0000
  C   C13       1.0  0.7315800000000001  0.68967  0.46404  1.0000
  C   C14       1.0  0.73447  0.59563  0.50318  1.0000
  C   C15       1.0  0.85631  0.6187200000000002  0.54354  1.0000
  C   C16       1.0  0.9775100000000002  0.73614  0.54557  1.0000
  C   C17       1.0  0.9746700000000001  0.82969  0.50571  1.0000
  C   C18       1.0  0.8527300000000004  0.8065600000000003  0.4652000000000001  1.0000
  C   C19       1.0  0.10895  0.75604  0.5840400000000001  1.0000
  C   C20       1.0  0.2607300000000001  0.76833  0.45139000000000007  1.0000
  C   C21       1.0  0.1610900000000001  0.5410600000000001  0.3456800000000001  1.0000
  C   C22       1.0  0.09236999999999998  0.55131  0.42617  1.0000
  C   C23       1.0  0.58861  0.9954700000000002  0.38979  1.0000
  C   C24       1.0  0.72589  0.11419000000000008  0.4519400000000001  1.0000
  C   C25       1.0  0.74765  0.23405000000000006  0.54395  1.0000
  C   C26       1.0  0.88049  0.34054  0.6008  1.0000
  C   C27       1.0  0.9882700000000001  0.33013  0.56891  1.0000
  C   C28       1.0  0.96663  0.21196  0.47814000000000006  1.0000
  C   C29       1.0  0.83664  0.10661000000000001  0.42137  1.0000
  C   C30       1.0  0.12894000000000008  0.44681000000000004  0.6286700000000001  1.0000
  C   C31       1.0  0.21284  0.6678  0.06432  1.0000
  C   C32       1.0  0.34275000000000005  0.89763  0.16069  1.0000
  C   C33       1.0  0.26077000000000017  0.8812700000000002  0.07876000000000001  1.0000
  C   C34       1.0  0.06870000000000011  0.6676800000000003  0.9268800000000003  1.0000
  C   C35       1.0  0.9570500000000004  0.6880300000000003  0.9639500000000002  1.0000
  C   C36       1.0  0.8603400000000002  0.59438  0.0031100000000000004  1.0000
  C   C37       1.0  0.7622100000000002  0.61852  0.04365  1.0000
  C   C38       1.0  0.75902  0.73668  0.04593  1.0000
  C   C39       1.0  0.8551500000000001  0.82983  0.00602  1.0000
  C   C40       1.0  0.95335  0.8056500000000001  0.96536  1.0000
  C   C41       1.0  0.6481800000000001  0.7579  0.08441000000000001  1.0000
  C   C42       1.0  0.5077600000000001  0.76767  0.95022  1.0000
  C   C43       1.0  0.38070000000000004  0.53972  0.84672  1.0000
  C   C44       1.0  0.45987000000000017  0.5514900000000001  0.9280700000000001  1.0000
  N   N1        1.0  0.45045000000000013  0.76234  0.65031  1.0000
  N   N2        1.0  0.5562000000000002  0.7373000000000001  0.51858  1.0000
  N   N3        1.0  0.2658500000000001  0.6771200000000002  0.36224000000000006  1.0000
  N   N4        1.0  0.15663000000000005  0.6953100000000001  0.4923600000000001  1.0000
  N   N5        1.0  0.60024  0.2422  0.07929  1.0000
  N   N6        1.0  0.31187  0.76374  0.15094  1.0000
  N   N7        1.0  0.17987000000000006  0.73561  0.018240000000000003  1.0000
  N   N8        1.0  0.4114300000000002  0.6752500000000001  0.8613800000000003  1.0000
  N   N9        1.0  0.53934  0.69598  0.99282  1.0000
  N   N10       1.0  0.6423500000000001  0.24368000000000004  0.57885  1.0000
  O   O1        1.0  0.52022  0.008850000000000064  0.9028200000000001  1.0000
  O   O2        1.0  0.30144000000000015  0.8776000000000002  0.8237  1.0000
  O   O3        1.0  0.42193000000000014  0.56634  0.19595  1.0000
  O   O4        1.0  0.20394000000000007  0.42774  0.11068  1.0000
  O   O5        1.0  0.48934000000000005  0.009390000000000006  0.40286  1.0000
  O   O6        1.0  0.57712  0.87807  0.3234900000000001  1.0000
  O   O7        1.0  0.14325000000000004  0.5658300000000002  0.6956  1.0000
  O   O8        1.0  0.2231400000000001  0.42690000000000006  0.6115300000000001  1.0000
