data_image0
_chemical_formula_structural       Cu8H32C44N16O28
_chemical_formula_sum              "Cu8 H32 C44 N16 O28"
_cell_length_a       7.84945
_cell_length_b       13.84967
_cell_length_c       16.19121
_cell_angle_alpha    90.0
_cell_angle_beta     99.3294
_cell_angle_gamma    90.0

_space_group_name_H-M_alt    "P 1"
_space_group_IT_number       1

loop_
  _space_group_symop_operation_xyz
  'x, y, z'

loop_
  _atom_site_type_symbol
  _atom_site_label
  _atom_site_symmetry_multiplicity
  _atom_site_fract_x
  _atom_site_fract_y
  _atom_site_fract_z
  _atom_site_occupancy
  Cu  Cu1       1.0  0.8237499999999996  0.39895  0.5550499999999998  1.0000
  Cu  Cu2       1.0  0.4748899999999998  0.45502  0.4135099999999999  1.0000
  Cu  Cu3       1.0  0.6762499999999997  0.8989499999999999  0.9449399999999998  1.0000
  Cu  Cu4       1.0  0.025109999999999983  0.9550199999999999  0.08648999999999997  1.0000
  Cu  Cu5       1.0  0.17624999999999993  0.60105  0.44495  1.0000
  Cu  Cu6       1.0  0.5251099999999997  0.54498  0.58649  1.0000
  Cu  Cu7       1.0  0.32375  0.10105  0.05505  1.0000
  Cu  Cu8       1.0  0.9748899999999998  0.04498  0.91351  1.0000
  H   H1        1.0  0.7346399999999998  0.55629  0.47671999999999987  1.0000
  H   H2        1.0  0.2296099999999999  0.54069  0.7090299999999998  1.0000
  H   H3        1.0  0.8064999999999997  0.11301  0.27655999999999986  1.0000
  H   H4        1.0  0.6242999999999999  0.07334  0.3037  1.0000
  H   H5        1.0  0.43900999999999996  0.63645  0.8091899999999997  1.0000
  H   H6        1.0  0.8211099999999996  0.72987  0.75491  1.0000
  H   H7        1.0  0.46335999999999994  0.23995  0.3047999999999999  1.0000
  H   H8        1.0  0.95772  0.20212  0.45095  1.0000
  H   H9        1.0  0.76535  0.05629  0.02328  1.0000
  H   H10       1.0  0.27038999999999996  0.04068999999999999  0.7909599999999998  1.0000
  H   H11       1.0  0.6934899999999998  0.61301  0.22343999999999994  1.0000
  H   H12       1.0  0.8756899999999997  0.57334  0.19629999999999995  1.0000
  H   H13       1.0  0.060980000000000006  0.13645  0.69081  1.0000
  H   H14       1.0  0.67889  0.22987  0.74509  1.0000
  H   H15       1.0  0.036639999999999964  0.73995  0.19519999999999996  1.0000
  H   H16       1.0  0.54228  0.70213  0.04904999999999999  1.0000
  H   H17       1.0  0.2653499999999998  0.44371  0.5232799999999997  1.0000
  H   H18       1.0  0.77039  0.45931  0.2909599999999999  1.0000
  H   H19       1.0  0.19348999999999997  0.887  0.72344  1.0000
  H   H20       1.0  0.37569  0.92666  0.6963  1.0000
  H   H21       1.0  0.5609799999999998  0.36355  0.19081  1.0000
  H   H22       1.0  0.17889  0.27013  0.24509  1.0000
  H   H23       1.0  0.53664  0.76005  0.6951999999999998  1.0000
  H   H24       1.0  0.04228  0.79788  0.54904  1.0000
  H   H25       1.0  0.2346499999999999  0.94371  0.9767199999999998  1.0000
  H   H26       1.0  0.72961  0.95931  0.20903999999999995  1.0000
  H   H27       1.0  0.30650999999999995  0.387  0.77656  1.0000
  H   H28       1.0  0.12430999999999996  0.4266599999999999  0.8037  1.0000
  H   H29       1.0  0.93901  0.8635499999999998  0.30919  1.0000
  H   H30       1.0  0.32111  0.77014  0.25491  1.0000
  H   H31       1.0  0.9633499999999998  0.26005  0.8047999999999997  1.0000
  H   H32       1.0  0.45771999999999985  0.29788  0.9509499999999997  1.0000
  C   C1        1.0  0.8826799999999998  0.56988  0.66891  1.0000
  C   C2        1.0  0.011410000000000007  0.62902  0.72598  1.0000
  C   C3        1.0  0.18621999999999986  0.60258  0.7414399999999998  1.0000
  C   C4        1.0  0.3035899999999999  0.6573199999999999  0.79614  1.0000
  C   C5        1.0  0.25030999999999987  0.74055  0.8345199999999998  1.0000
  C   C6        1.0  0.37897  0.79939  0.89261  1.0000
  C   C7        1.0  0.07490999999999993  0.7673099999999998  0.8181999999999998  1.0000
  C   C8        1.0  0.0043400000000000305  0.8549499999999998  0.85587  1.0000
  C   C9        1.0  0.9570699999999998  0.71071  0.7652299999999997  1.0000
  C   C10       1.0  0.5769099999999998  0.25134  0.35138  1.0000
  C   C11       1.0  0.8326799999999996  0.23222999999999994  0.4263299999999999  1.0000
  C   C12       1.0  0.6173199999999998  0.06988  0.83109  1.0000
  C   C13       1.0  0.4885899999999998  0.12902  0.7740199999999998  1.0000
  C   C14       1.0  0.31377999999999984  0.10258  0.7585599999999998  1.0000
  C   C15       1.0  0.1964  0.15732  0.70386  1.0000
  C   C16       1.0  0.24968999999999988  0.24055  0.6654799999999997  1.0000
  C   C17       1.0  0.12102999999999994  0.29938999999999993  0.60739  1.0000
  C   C18       1.0  0.4250899999999999  0.26731  0.6818  1.0000
  C   C19       1.0  0.4956599999999999  0.35495  0.64413  1.0000
  C   C20       1.0  0.5429199999999998  0.21071  0.7347599999999997  1.0000
  C   C21       1.0  0.9230899999999997  0.7513399999999998  0.14862  1.0000
  C   C22       1.0  0.6673099999999997  0.73223  0.07367  1.0000
  C   C23       1.0  0.11731999999999992  0.4301199999999999  0.3310899999999999  1.0000
  C   C24       1.0  0.98859  0.37098  0.27402  1.0000
  C   C25       1.0  0.81378  0.39742  0.2585599999999999  1.0000
  C   C26       1.0  0.6964  0.34268999999999994  0.20385999999999996  1.0000
  C   C27       1.0  0.7496799999999998  0.25945  0.16548  1.0000
  C   C28       1.0  0.6210299999999997  0.20060999999999996  0.10738999999999997  1.0000
  C   C29       1.0  0.9250899999999997  0.23269  0.1818  1.0000
  C   C30       1.0  0.9956599999999998  0.14505  0.14413  1.0000
  C   C31       1.0  0.042919999999999986  0.28928999999999994  0.23476  1.0000
  C   C32       1.0  0.42309  0.74866  0.64862  1.0000
  C   C33       1.0  0.16730999999999993  0.76777  0.57367  1.0000
  C   C34       1.0  0.3826799999999999  0.93012  0.16891  1.0000
  C   C35       1.0  0.51141  0.87098  0.22597999999999993  1.0000
  C   C36       1.0  0.68622  0.8974199999999999  0.24144  1.0000
  C   C37       1.0  0.80359  0.84269  0.2961399999999999  1.0000
  C   C38       1.0  0.7503099999999998  0.7594499999999997  0.33452  1.0000
  C   C39       1.0  0.8789699999999998  0.7006099999999998  0.3926099999999999  1.0000
  C   C40       1.0  0.5748999999999997  0.73269  0.3182  1.0000
  C   C41       1.0  0.50434  0.64505  0.35587  1.0000
  C   C42       1.0  0.45706999999999987  0.78929  0.26524  1.0000
  C   C43       1.0  0.07691  0.24866  0.85138  1.0000
  C   C44       1.0  0.3326899999999999  0.26777  0.92633  1.0000
  N   N1        1.0  0.76724  0.31368999999999997  0.44987  1.0000
  N   N2        1.0  0.6054999999999998  0.32506  0.40366999999999986  1.0000
  N   N3        1.0  0.7170199999999997  0.19118999999999997  0.3641599999999999  1.0000
  N   N4        1.0  0.7425999999999998  0.10208  0.32656  1.0000
  N   N5        1.0  0.73275  0.81369  0.05013  1.0000
  N   N6        1.0  0.8944999999999997  0.8250599999999998  0.09632999999999997  1.0000
  N   N7        1.0  0.78298  0.6911899999999999  0.13584  1.0000
  N   N8        1.0  0.7573899999999998  0.60208  0.17343999999999996  1.0000
  N   N9        1.0  0.23274999999999987  0.68631  0.5501299999999998  1.0000
  N   N10       1.0  0.3944999999999999  0.67494  0.59633  1.0000
  N   N11       1.0  0.28297999999999984  0.80881  0.6358399999999997  1.0000
  N   N12       1.0  0.25739  0.89792  0.67344  1.0000
  N   N13       1.0  0.26723999999999987  0.18631  0.94987  1.0000
  N   N14       1.0  0.10549999999999993  0.17494  0.90367  1.0000
  N   N15       1.0  0.21701999999999985  0.30880999999999986  0.8641599999999998  1.0000
  N   N16       1.0  0.2426  0.3979199999999999  0.82656  1.0000
  O   O1        1.0  0.67165  0.50055  0.4966099999999999  1.0000
  O   O2        1.0  0.72607  0.59958  0.65885  1.0000
  O   O3        1.0  0.9415499999999997  0.49538  0.63735  1.0000
  O   O4        1.0  0.9075099999999996  0.83777  0.90878  1.0000
  O   O5        1.0  0.041609999999999925  0.93825  0.8289799999999998  1.0000
  O   O6        1.0  0.3340099999999999  0.8426099999999999  0.9540499999999997  1.0000
  O   O7        1.0  0.53394  0.8000199999999997  0.87546  1.0000
  O   O8        1.0  0.82835  0.00055  0.003389999999999999  1.0000
  O   O9        1.0  0.7739199999999999  0.09957  0.84114  1.0000
  O   O10       1.0  0.55845  0.99538  0.86265  1.0000
  O   O11       1.0  0.5924799999999998  0.33776999999999996  0.59122  1.0000
  O   O12       1.0  0.4583899999999999  0.43825  0.6710199999999997  1.0000
  O   O13       1.0  0.16598999999999992  0.34261  0.5459499999999998  1.0000
  O   O14       1.0  0.96605  0.3000199999999999  0.62454  1.0000
  O   O15       1.0  0.32834999999999975  0.49946  0.5033899999999998  1.0000
  O   O16       1.0  0.27392  0.40043  0.3411399999999999  1.0000
  O   O17       1.0  0.05844999999999999  0.50462  0.36265  1.0000
  O   O18       1.0  0.09248  0.16223  0.09121999999999997  1.0000
  O   O19       1.0  0.9583899999999997  0.06174999999999999  0.17102  1.0000
  O   O20       1.0  0.6659899999999997  0.15738999999999995  0.04595  1.0000
  O   O21       1.0  0.46606  0.19997999999999994  0.12454  1.0000
  O   O22       1.0  0.17164999999999986  0.99946  0.9966099999999998  1.0000
  O   O23       1.0  0.2260699999999999  0.90043  0.15885999999999995  1.0000
  O   O24       1.0  0.4415499999999999  0.004619999999999999  0.13735  1.0000
  O   O25       1.0  0.40751  0.66223  0.40878  1.0000
  O   O26       1.0  0.5416099999999998  0.56175  0.32898  1.0000
  O   O27       1.0  0.8340099999999997  0.65739  0.4540499999999999  1.0000
  O   O28       1.0  0.03393999999999999  0.69998  0.37546  1.0000
