data_image0
_chemical_formula_structural       Eu4H32C48N12O36
_chemical_formula_sum              "Eu4 H32 C48 N12 O36"
_cell_length_a       10.37051
_cell_length_b       11.76575
_cell_length_c       17.74827
_cell_angle_alpha    89.96468000000002
_cell_angle_beta     90.01532999999999
_cell_angle_gamma    109.76731000000001

_space_group_name_H-M_alt    "P 1"
_space_group_IT_number       1

loop_
  _space_group_symop_operation_xyz
  'x, y, z'

loop_
  _atom_site_type_symbol
  _atom_site_label
  _atom_site_symmetry_multiplicity
  _atom_site_fract_x
  _atom_site_fract_y
  _atom_site_fract_z
  _atom_site_occupancy
  Eu  Eu1       1.0  0.4904  0.32339  0.9913200000000001  1.0000
  Eu  Eu2       1.0  0.50973  0.17662  0.49139  1.0000
  Eu  Eu3       1.0  0.50961  0.67661  0.00868  1.0000
  Eu  Eu4       1.0  0.4902800000000001  0.82338  0.50861  1.0000
  H   H1        1.0  0.3983300000000001  0.35555  0.7136  1.0000
  H   H2        1.0  0.45578000000000013  0.46251000000000003  0.58866  1.0000
  H   H3        1.0  0.6482500000000001  0.79247  0.6923  1.0000
  H   H4        1.0  0.59572  0.6994  0.82231  1.0000
  H   H5        1.0  0.02660000000000001  0.2066  0.00542  1.0000
  H   H6        1.0  0.77119  0.14666  0.02265  1.0000
  H   H7        1.0  0.80748  0.47233  0.12544  1.0000
  H   H8        1.0  0.06715  0.54851  0.10868  1.0000
  H   H9        1.0  0.60232  0.14512  0.21407  1.0000
  H   H10       1.0  0.54513  0.03925  0.08878  1.0000
  H   H11       1.0  0.35199  0.70846  0.19166  1.0000
  H   H12       1.0  0.40431  0.8004600000000001  0.32191  1.0000
  H   H13       1.0  0.97464  0.29433  0.50552  1.0000
  H   H14       1.0  0.23003  0.3528  0.52282  1.0000
  H   H15       1.0  0.19091  0.026220000000000004  0.62543  1.0000
  H   H16       1.0  0.9313200000000001  0.95143  0.60856  1.0000
  H   H17       1.0  0.6016800000000001  0.64445  0.2864  1.0000
  H   H18       1.0  0.54423  0.53749  0.41134  1.0000
  H   H19       1.0  0.35176  0.20752  0.3077  1.0000
  H   H20       1.0  0.40429000000000004  0.3006  0.17769  1.0000
  H   H21       1.0  0.9734100000000002  0.7934000000000001  0.9945799999999999  1.0000
  H   H22       1.0  0.22881999999999997  0.85334  0.97735  1.0000
  H   H23       1.0  0.19253000000000003  0.52767  0.87457  1.0000
  H   H24       1.0  0.9328500000000001  0.45149  0.89132  1.0000
  H   H25       1.0  0.39769000000000004  0.85488  0.78593  1.0000
  H   H26       1.0  0.45488  0.96075  0.9112199999999999  1.0000
  H   H27       1.0  0.6480200000000002  0.29154  0.80834  1.0000
  H   H28       1.0  0.59569  0.19953  0.67809  1.0000
  H   H29       1.0  0.02536000000000002  0.70566  0.49448  1.0000
  H   H30       1.0  0.76998  0.6472  0.47718000000000005  1.0000
  H   H31       1.0  0.8091  0.97378  0.37457  1.0000
  H   H32       1.0  0.06869  0.04857  0.39144  1.0000
  C   C1        1.0  0.46535  0.45847  0.85327  1.0000
  C   C2        1.0  0.49082  0.51992  0.77808  1.0000
  C   C3        1.0  0.45116  0.4526  0.71168  1.0000
  C   C4        1.0  0.4811300000000001  0.50861  0.64238  1.0000
  C   C5        1.0  0.5925900000000001  0.69751  0.70197  1.0000
  C   C6        1.0  0.5618000000000001  0.64432  0.7721  1.0000
  C   C7        1.0  0.21810000000000002  0.42597  0.03909  1.0000
  C   C8        1.0  0.06659  0.38284  0.0558  1.0000
  C   C9        1.0  0.9824600000000002  0.2681  0.03228  1.0000
  C   C10       1.0  0.84206  0.23263000000000003  0.04154  1.0000
  C   C11       1.0  0.8642600000000001  0.41983  0.10009  1.0000
  C   C12       1.0  0.004680000000000031  0.45829000000000003  0.09057  1.0000
  C   C13       1.0  0.53466  0.04175  0.35334  1.0000
  C   C14       1.0  0.50934  0.98045  0.27812  1.0000
  C   C15       1.0  0.54926  0.04812000000000001  0.21183  1.0000
  C   C16       1.0  0.51933  0.99266  0.14238  1.0000
  C   C17       1.0  0.40754  0.80338  0.20164  1.0000
  C   C18       1.0  0.43831  0.85608  0.27189  1.0000
  C   C19       1.0  0.7817700000000001  0.07569  0.53902  1.0000
  C   C20       1.0  0.93327  0.11780999999999998  0.55575  1.0000
  C   C21       1.0  0.018220000000000017  0.23236000000000004  0.53234  1.0000
  C   C22       1.0  0.15858  0.26697  0.5416  1.0000
  C   C23       1.0  0.13468  0.07918  0.60002  1.0000
  C   C24       1.0  0.9942900000000001  0.04157  0.59049  1.0000
  C   C25       1.0  0.53466  0.54152  0.14673  1.0000
  C   C26       1.0  0.50919  0.48008  0.22193  1.0000
  C   C27       1.0  0.54885  0.5474  0.28832  1.0000
  C   C28       1.0  0.51888  0.49139  0.35762  1.0000
  C   C29       1.0  0.40742  0.30249  0.29803  1.0000
  C   C30       1.0  0.43820000000000003  0.35568  0.2279  1.0000
  C   C31       1.0  0.7819  0.57403  0.96092  1.0000
  C   C32       1.0  0.9334200000000001  0.61715  0.9442  1.0000
  C   C33       1.0  0.017549999999999934  0.7318999999999999  0.96772  1.0000
  C   C34       1.0  0.15795000000000006  0.76736  0.95846  1.0000
  C   C35       1.0  0.13575  0.58017  0.89991  1.0000
  C   C36       1.0  0.99533  0.5417  0.9094299999999998  1.0000
  C   C37       1.0  0.46535  0.95824  0.64666  1.0000
  C   C38       1.0  0.49067  0.01955  0.72188  1.0000
  C   C39       1.0  0.45074  0.95188  0.78818  1.0000
  C   C40       1.0  0.4806700000000001  0.007340000000000001  0.85762  1.0000
  C   C41       1.0  0.5924700000000002  0.19662  0.79836  1.0000
  C   C42       1.0  0.5617000000000001  0.14392  0.72812  1.0000
  C   C43       1.0  0.21824000000000002  0.92431  0.46098  1.0000
  C   C44       1.0  0.06674000000000006  0.8821900000000001  0.44425  1.0000
  C   C45       1.0  0.98179  0.76763  0.46765999999999996  1.0000
  C   C46       1.0  0.84143  0.73303  0.4584  1.0000
  C   C47       1.0  0.8653300000000002  0.92081  0.39998  1.0000
  C   C48       1.0  0.005719999999999995  0.95843  0.40951  1.0000
  N   N1        1.0  0.26985  0.08971  0.03367  1.0000
  N   N2        1.0  0.55241  0.62968  0.63798  1.0000
  N   N3        1.0  0.78391  0.30819  0.075  1.0000
  N   N4        1.0  0.72986  0.4119  0.53355  1.0000
  N   N5        1.0  0.44777000000000006  0.87163  0.13776  1.0000
  N   N6        1.0  0.21585000000000001  0.19061  0.57495  1.0000
  N   N7        1.0  0.7301499999999999  0.9102899999999999  0.96633  1.0000
  N   N8        1.0  0.44760000000000005  0.37032000000000004  0.36202  1.0000
  N   N9        1.0  0.21610000000000001  0.69181  0.9249999999999999  1.0000
  N   N10       1.0  0.27015  0.58809  0.46646000000000004  1.0000
  N   N11       1.0  0.55224  0.12837  0.86224  1.0000
  N   N12       1.0  0.7841600000000001  0.80939  0.42506  1.0000
  O   O1        1.0  0.35042999999999996  0.15429  0.08382  1.0000
  O   O2        1.0  0.29877  0.12014000000000001  0.9648500000000001  1.0000
  O   O3        1.0  0.44039  0.34523  0.85551  1.0000
  O   O4        1.0  0.47357  0.52247  0.9123699999999999  1.0000
  O   O5        1.0  0.58515  0.67998  0.5715  1.0000
  O   O6        1.0  0.26585  0.34761  0.01397  1.0000
  O   O7        1.0  0.2833000000000001  0.53795  0.04936  1.0000
  O   O8        1.0  0.65034  0.27355  0.0834  1.0000
  O   O9        1.0  0.16872000000000004  0.0006900000000000001  0.05034  1.0000
  O   O10       1.0  0.6487700000000001  0.34819  0.58377  1.0000
  O   O11       1.0  0.70102  0.3814100000000001  0.46477  1.0000
  O   O12       1.0  0.55977  0.15498  0.35543  1.0000
  O   O13       1.0  0.5262000000000001  0.9777500000000001  0.41251  1.0000
  O   O14       1.0  0.4149  0.8217499999999999  0.07123  1.0000
  O   O15       1.0  0.73462  0.15484  0.51439  1.0000
  O   O16       1.0  0.7160700000000001  0.9637599999999998  0.54903  1.0000
  O   O17       1.0  0.34931  0.22426  0.58341  1.0000
  O   O18       1.0  0.8318000000000002  0.50029  0.55012  1.0000
  O   O19       1.0  0.64958  0.84571  0.9161800000000001  1.0000
  O   O20       1.0  0.70124  0.87986  0.03515  1.0000
  O   O21       1.0  0.55962  0.65477  0.1445  1.0000
  O   O22       1.0  0.52644  0.47753  0.08763  1.0000
  O   O23       1.0  0.4148500000000001  0.32002  0.4285  1.0000
  O   O24       1.0  0.7341600000000001  0.65239  0.98603  1.0000
  O   O25       1.0  0.71671  0.46205  0.95064  1.0000
  O   O26       1.0  0.34967000000000004  0.72645  0.9166000000000001  1.0000
  O   O27       1.0  0.8312900000000001  0.99931  0.9496599999999998  1.0000
  O   O28       1.0  0.35124  0.65181  0.41624  1.0000
  O   O29       1.0  0.29897999999999997  0.61859  0.53523  1.0000
  O   O30       1.0  0.44023999999999996  0.8450099999999999  0.64457  1.0000
  O   O31       1.0  0.4738000000000001  0.022240000000000003  0.58749  1.0000
  O   O32       1.0  0.5851  0.17824  0.9287699999999999  1.0000
  O   O33       1.0  0.26539000000000007  0.84516  0.48561  1.0000
  O   O34       1.0  0.28394  0.03624  0.4509699999999999  1.0000
  O   O35       1.0  0.6507  0.77573  0.41659  1.0000
  O   O36       1.0  0.16821  0.49971  0.44988  1.0000
