data_image0
_chemical_formula_structural       Co2H40C60N6O8
_chemical_formula_sum              "Co2 H40 C60 N6 O8"
_cell_length_a       11.39099
_cell_length_b       12.93663
_cell_length_c       14.367450000000002
_cell_angle_alpha    80.4022
_cell_angle_beta     72.35407
_cell_angle_gamma    76.69511

_space_group_name_H-M_alt    "P 1"
_space_group_IT_number       1

loop_
  _space_group_symop_operation_xyz
  'x, y, z'

loop_
  _atom_site_type_symbol
  _atom_site_label
  _atom_site_symmetry_multiplicity
  _atom_site_fract_x
  _atom_site_fract_y
  _atom_site_fract_z
  _atom_site_occupancy
  Co  Co1       1.0  0.50285  0.9974600000000001  0.99785  1.0000
  Co  Co2       1.0  0.50006  0.49826  0.9978100000000001  1.0000
  H   H1        1.0  0.4545799999999999  0.22555  0.25415000000000004  1.0000
  H   H2        1.0  0.53982  0.08784  0.37406  1.0000
  H   H3        1.0  0.87801  0.21611000000000002  0.28899  1.0000
  H   H4        1.0  0.7869  0.35944000000000004  0.17427000000000004  1.0000
  H   H5        1.0  0.5218699999999998  0.18912999999999994  0.6887000000000002  1.0000
  H   H6        1.0  0.61502  0.21093000000000006  0.5079  1.0000
  H   H7        1.0  0.80992  0.8831200000000002  0.52044  1.0000
  H   H8        1.0  0.7171699999999998  0.8634700000000002  0.7010700000000001  1.0000
  H   H9        1.0  0.22369000000000003  0.52407  0.08572  1.0000
  H   H10       1.0  0.04712999999999991  0.6531300000000002  0.17886000000000005  1.0000
  H   H11       1.0  0.32319000000000003  0.8292  0.188  1.0000
  H   H12       1.0  0.4862300000000001  0.69298  0.09769000000000001  1.0000
  H   H13       1.0  0.9312299999999999  0.8149100000000002  0.17569000000000007  1.0000
  H   H14       1.0  0.7584599999999999  0.94598  0.26725  1.0000
  H   H15       1.0  0.005809999999999953  0.008799999999999994  0.4166100000000001  1.0000
  H   H16       1.0  0.17832999999999996  0.8756600000000002  0.32792000000000004  1.0000
  H   H17       1.0  0.23929  0.10585  0.10221000000000002  1.0000
  H   H18       1.0  0.018919999999999996  0.11741  0.10156  1.0000
  H   H19       1.0  0.15981999999999993  0.8706200000000002  0.9030600000000002  1.0000
  H   H20       1.0  0.37158999999999986  0.87039  0.9132900000000003  1.0000
  H   H21       1.0  0.5485999999999998  0.7725700000000002  0.74308  1.0000
  H   H22       1.0  0.46575999999999995  0.91011  0.62203  1.0000
  H   H23       1.0  0.12665999999999986  0.78333  0.7046900000000003  1.0000
  H   H24       1.0  0.21575999999999998  0.63981  0.8205400000000002  1.0000
  H   H25       1.0  0.4814899999999999  0.80771  0.3073800000000001  1.0000
  H   H26       1.0  0.38889  0.7875300000000002  0.48827  1.0000
  H   H27       1.0  0.19581999999999994  0.11621999999999998  0.4734600000000001  1.0000
  H   H28       1.0  0.28793  0.13359  0.29281000000000007  1.0000
  H   H29       1.0  0.7738799999999999  0.47342000000000006  0.9108600000000002  1.0000
  H   H30       1.0  0.9519900000000001  0.3457600000000001  0.81742  1.0000
  H   H31       1.0  0.6786999999999999  0.16685  0.8077200000000002  1.0000
  H   H32       1.0  0.5144599999999998  0.30172999999999994  0.8980300000000002  1.0000
  H   H33       1.0  0.06941999999999994  0.1831  0.8216800000000002  1.0000
  H   H34       1.0  0.2441599999999999  0.05366999999999998  0.7299400000000003  1.0000
  H   H35       1.0  0.9997600000000001  0.9890800000000002  0.5787  1.0000
  H   H36       1.0  0.82556  0.12027999999999998  0.6676300000000001  1.0000
  H   H37       1.0  0.7663299999999998  0.8916300000000003  0.89352  1.0000
  H   H38       1.0  0.9864100000000001  0.8809400000000002  0.8941400000000003  1.0000
  H   H39       1.0  0.84408  0.12610000000000002  0.09431  1.0000
  H   H40       1.0  0.63253  0.12594  0.08357  1.0000
  C   C1        1.0  0.5652599999999998  0.3810799999999999  0.13492  1.0000
  C   C2        1.0  0.6150999999999998  0.30123000000000005  0.20821000000000006  1.0000
  C   C3        1.0  0.54533  0.22488000000000005  0.2647  1.0000
  C   C4        1.0  0.5935799999999998  0.14739000000000002  0.3304  1.0000
  C   C5        1.0  0.7141599999999997  0.14428  0.3380400000000001  1.0000
  C   C6        1.0  0.7847399999999999  0.22004  0.28159  1.0000
  C   C7        1.0  0.73471  0.29897  0.21788  1.0000
  C   C8        1.0  0.5599999999999999  0.012789999999999982  0.8153200000000003  1.0000
  C   C9        1.0  0.61215  0.024400000000000015  0.70718  1.0000
  C   C10       1.0  0.5842599999999998  0.12223  0.65119  1.0000
  C   C11       1.0  0.63633  0.13462  0.55012  1.0000
  C   C12       1.0  0.71861  0.04850000000000002  0.50102  1.0000
  C   C13       1.0  0.7473399999999998  0.9503  0.5570600000000001  1.0000
  C   C14       1.0  0.69496  0.9392600000000001  0.65819  1.0000
  C   C15       1.0  0.24074999999999994  0.5926600000000001  0.11079  1.0000
  C   C16       1.0  0.14286999999999989  0.6657500000000002  0.16185  1.0000
  C   C17       1.0  0.16856000000000002  0.7539000000000001  0.1926  1.0000
  C   C18       1.0  0.29503  0.7623400000000002  0.16948  1.0000
  C   C19       1.0  0.38794999999999996  0.6862200000000003  0.11778000000000002  1.0000
  C   C20       1.0  0.06697999999999998  0.83358  0.24628  1.0000
  C   C21       1.0  0.94761  0.8552500000000002  0.22996000000000005  1.0000
  C   C22       1.0  0.85034  0.92946  0.28059  1.0000
  C   C23       1.0  0.87048  0.9841000000000001  0.34912  1.0000
  C   C24       1.0  0.9894600000000001  0.9644900000000002  0.36516000000000004  1.0000
  C   C25       1.0  0.08665999999999993  0.89001  0.3143400000000001  1.0000
  C   C26       1.0  0.21602  0.055950000000000014  0.05902  1.0000
  C   C27       1.0  0.0932  0.06171  0.057600000000000005  1.0000
  C   C28       1.0  0.06708999999999996  0.9960300000000002  0.0007200000000000002  1.0000
  C   C29       1.0  0.17013  0.92524  0.94866  1.0000
  C   C30       1.0  0.29047999999999985  0.92394  0.9537200000000002  1.0000
  C   C31       1.0  0.43622999999999995  0.6176100000000001  0.8615300000000001  1.0000
  C   C32       1.0  0.3875299999999999  0.69768  0.78792  1.0000
  C   C33       1.0  0.45816999999999986  0.77362  0.7317700000000003  1.0000
  C   C34       1.0  0.4110999999999999  0.8510800000000001  0.66549  1.0000
  C   C35       1.0  0.29061999999999993  0.85489  0.6572800000000002  1.0000
  C   C36       1.0  0.21949999999999983  0.77917  0.7130200000000002  1.0000
  C   C37       1.0  0.26838999999999996  0.7001700000000002  0.7772800000000001  1.0000
  C   C38       1.0  0.44549  0.9831200000000001  0.18008000000000005  1.0000
  C   C39       1.0  0.3927600000000002  0.97253  0.28812  1.0000
  C   C40       1.0  0.41983999999999977  0.8750300000000002  0.34463  1.0000
  C   C41       1.0  0.3677699999999998  0.8636100000000002  0.4457100000000001  1.0000
  C   C42       1.0  0.2861999999999999  0.9504300000000002  0.49425000000000013  1.0000
  C   C43       1.0  0.2577599999999999  0.04831  0.43754  1.0000
  C   C44       1.0  0.31012  0.05826000000000001  0.33638000000000007  1.0000
  C   C45       1.0  0.75815  0.40443000000000007  0.88552  1.0000
  C   C46       1.0  0.85676  0.33196  0.8343500000000001  1.0000
  C   C47       1.0  0.83243  0.24329  0.8033900000000003  1.0000
  C   C48       1.0  0.70619  0.23394  0.82643  1.0000
  C   C49       1.0  0.6124200000000001  0.30948  0.87824  1.0000
  C   C50       1.0  0.9350699999999997  0.16394  0.7499600000000002  1.0000
  C   C51       1.0  0.05418000000000001  0.14283000000000007  0.76684  1.0000
  C   C52       1.0  0.15261999999999998  0.06946  0.7160200000000001  1.0000
  C   C53       1.0  0.1341199999999999  0.015089999999999973  0.6464800000000003  1.0000
  C   C54       1.0  0.01521000000000001  0.033530000000000004  0.63046  1.0000
  C   C55       1.0  0.91691  0.10707999999999998  0.68153  1.0000
  C   C56       1.0  0.7892599999999997  0.9415000000000002  0.93692  1.0000
  C   C57       1.0  0.91188  0.9360899999999998  0.9385300000000002  1.0000
  C   C58       1.0  0.93742  0.001449999999999985  0.9959900000000002  1.0000
  C   C59       1.0  0.83406  0.07181  0.04826000000000001  1.0000
  C   C60       1.0  0.7139  0.07288  0.04285000000000001  1.0000
  N   N1        1.0  0.7701499999999999  0.06114000000000003  0.39943  1.0000
  N   N2        1.0  0.36215  0.60213  0.08833  1.0000
  N   N3        1.0  0.3143499999999999  0.98869  0.007510000000000002  1.0000
  N   N4        1.0  0.23532999999999998  0.93871  0.59598  1.0000
  N   N5        1.0  0.63705  0.39409000000000005  0.9077500000000002  1.0000
  N   N6        1.0  0.69056  0.008289999999999962  0.9886000000000003  1.0000
  O   O1        1.0  0.4701799999999999  0.3685200000000001  0.11123000000000002  1.0000
  O   O2        1.0  0.6212500000000001  0.45896  0.09343000000000001  1.0000
  O   O3        1.0  0.5003299999999998  0.09496000000000004  0.86066  1.0000
  O   O4        1.0  0.57846  0.92113  0.8651800000000002  1.0000
  O   O5        1.0  0.5302899999999998  0.6303  0.8864900000000002  1.0000
  O   O6        1.0  0.38037999999999994  0.53932  0.90192  1.0000
  O   O7        1.0  0.5040199999999999  0.9005000000000002  0.13494  1.0000
  O   O8        1.0  0.42827  0.07485  0.13015  1.0000
