data_image0
_chemical_formula_structural       Zn8H40C64N24O16
_chemical_formula_sum              "Zn8 H40 C64 N24 O16"
_cell_length_a       9.2303
_cell_length_b       10.15068
_cell_length_c       27.32707
_cell_angle_alpha    90.0
_cell_angle_beta     90.0
_cell_angle_gamma    90.0

_space_group_name_H-M_alt    "P 1"
_space_group_IT_number       1

loop_
  _space_group_symop_operation_xyz
  'x, y, z'

loop_
  _atom_site_type_symbol
  _atom_site_label
  _atom_site_symmetry_multiplicity
  _atom_site_fract_x
  _atom_site_fract_y
  _atom_site_fract_z
  _atom_site_occupancy
  Zn  Zn1       1.0  0.08018  0.8912299999999999  0.55146  1.0000
  Zn  Zn2       1.0  0.58017  0.60877  0.4485499999999999  1.0000
  Zn  Zn3       1.0  0.91982  0.10877  0.05146  1.0000
  Zn  Zn4       1.0  0.41982  0.39123  0.9485499999999998  1.0000
  Zn  Zn5       1.0  0.91982  0.10877  0.4485499999999999  1.0000
  Zn  Zn6       1.0  0.41982  0.39123  0.55146  1.0000
  Zn  Zn7       1.0  0.08018  0.8912299999999999  0.9485499999999998  1.0000
  Zn  Zn8       1.0  0.58017  0.60877  0.05146  1.0000
  H   H1        1.0  0.97461  0.64242  0.6590599999999998  1.0000
  H   H2        1.0  0.86102  0.45852999999999994  0.7043599999999998  1.0000
  H   H3        1.0  0.25434  0.02131  0.70458  1.0000
  H   H4        1.0  0.3135  0.81713  0.45708  1.0000
  H   H5        1.0  0.19948  0.6144499999999999  0.58601  1.0000
  H   H6        1.0  0.4746099999999999  0.85758  0.34094  1.0000
  H   H7        1.0  0.36102  0.04147  0.2956399999999999  1.0000
  H   H8        1.0  0.75434  0.47868999999999995  0.29541999999999996  1.0000
  H   H9        1.0  0.8135  0.68288  0.54292  1.0000
  H   H10       1.0  0.69948  0.88555  0.41399  1.0000
  H   H11       1.0  0.02539  0.35758  0.15906  1.0000
  H   H12       1.0  0.13898  0.54148  0.20435999999999996  1.0000
  H   H13       1.0  0.74565  0.97869  0.20457999999999996  1.0000
  H   H14       1.0  0.68649  0.18288  0.95708  1.0000
  H   H15       1.0  0.80052  0.38555  0.08600999999999999  1.0000
  H   H16       1.0  0.52539  0.14242  0.84094  1.0000
  H   H17       1.0  0.63898  0.9585299999999998  0.79564  1.0000
  H   H18       1.0  0.24565000000000003  0.52132  0.7954199999999998  1.0000
  H   H19       1.0  0.1865  0.31712  0.04291999999999999  1.0000
  H   H20       1.0  0.30052  0.11445  0.9139899999999999  1.0000
  H   H21       1.0  0.02539  0.35758  0.34094  1.0000
  H   H22       1.0  0.13898  0.54148  0.2956399999999999  1.0000
  H   H23       1.0  0.74565  0.97869  0.29541999999999996  1.0000
  H   H24       1.0  0.68649  0.18288  0.54292  1.0000
  H   H25       1.0  0.80052  0.38555  0.41399  1.0000
  H   H26       1.0  0.52539  0.14242  0.6590599999999998  1.0000
  H   H27       1.0  0.63898  0.9585299999999998  0.7043599999999998  1.0000
  H   H28       1.0  0.24566  0.52132  0.70458  1.0000
  H   H29       1.0  0.1865  0.31712  0.45708  1.0000
  H   H30       1.0  0.30052  0.11445  0.58601  1.0000
  H   H31       1.0  0.97461  0.64242  0.84094  1.0000
  H   H32       1.0  0.86102  0.45852999999999994  0.79564  1.0000
  H   H33       1.0  0.25434  0.02131  0.7954199999999998  1.0000
  H   H34       1.0  0.3135  0.81713  0.04291999999999999  1.0000
  H   H35       1.0  0.19948  0.6144499999999999  0.9139899999999999  1.0000
  H   H36       1.0  0.4746099999999999  0.85758  0.15906  1.0000
  H   H37       1.0  0.36102  0.04147  0.20435999999999996  1.0000
  H   H38       1.0  0.75434  0.47868999999999995  0.20457999999999996  1.0000
  H   H39       1.0  0.8135  0.68288  0.95708  1.0000
  H   H40       1.0  0.69948  0.88555  0.08600999999999999  1.0000
  C   C1        1.0  0.12233  0.8679499999999999  0.6435599999999998  1.0000
  C   C2        1.0  0.11885  0.8514899999999999  0.69801  1.0000
  C   C3        1.0  0.04384  0.74815  0.72349  1.0000
  C   C4        1.0  0.97476  0.64199  0.6987499999999999  1.0000
  C   C5        1.0  0.9106500000000001  0.53988  0.72417  1.0000
  C   C6        1.0  0.19484  0.9458599999999999  0.72437  1.0000
  C   C7        1.0  0.30902  0.74565  0.4864999999999999  1.0000
  C   C8        1.0  0.25041  0.6430699999999999  0.55191  1.0000
  C   C9        1.0  0.62233  0.63206  0.3564399999999999  1.0000
  C   C10       1.0  0.61885  0.64851  0.30199  1.0000
  C   C11       1.0  0.54384  0.75186  0.27651  1.0000
  C   C12       1.0  0.47476  0.85801  0.30125  1.0000
  C   C13       1.0  0.41065  0.9601199999999999  0.27583  1.0000
  C   C14       1.0  0.69484  0.55414  0.27563  1.0000
  C   C15       1.0  0.80902  0.75436  0.5135  1.0000
  C   C16       1.0  0.7504  0.85694  0.44809  1.0000
  C   C17       1.0  0.87766  0.13205  0.14356  1.0000
  C   C18       1.0  0.88115  0.14851  0.19801  1.0000
  C   C19       1.0  0.95616  0.25185  0.22349  1.0000
  C   C20       1.0  0.02524  0.35800999999999994  0.19875  1.0000
  C   C21       1.0  0.08935  0.46012  0.22417  1.0000
  C   C22       1.0  0.80516  0.05414  0.22436999999999996  1.0000
  C   C23       1.0  0.69098  0.25436  0.9864999999999998  1.0000
  C   C24       1.0  0.74959  0.35693  0.05191  1.0000
  C   C25       1.0  0.37767  0.36795  0.85644  1.0000
  C   C26       1.0  0.38115  0.35149  0.8019899999999999  1.0000
  C   C27       1.0  0.45616  0.24815  0.7765099999999998  1.0000
  C   C28       1.0  0.52523  0.14199  0.80125  1.0000
  C   C29       1.0  0.58934  0.03987999999999999  0.7758299999999998  1.0000
  C   C30       1.0  0.30516  0.44586  0.7756299999999999  1.0000
  C   C31       1.0  0.19098  0.24564999999999998  0.0135  1.0000
  C   C32       1.0  0.24959  0.14307  0.94809  1.0000
  C   C33       1.0  0.8776700000000001  0.13206  0.3564399999999999  1.0000
  C   C34       1.0  0.8811400000000001  0.14851  0.30199  1.0000
  C   C35       1.0  0.95616  0.25185  0.27651  1.0000
  C   C36       1.0  0.02524  0.35800999999999994  0.30125  1.0000
  C   C37       1.0  0.08935  0.46012  0.27583  1.0000
  C   C38       1.0  0.80516  0.05414  0.27563  1.0000
  C   C39       1.0  0.69098  0.25435  0.5135  1.0000
  C   C40       1.0  0.74959  0.35693  0.44809  1.0000
  C   C41       1.0  0.37767  0.36795  0.6435599999999998  1.0000
  C   C42       1.0  0.38115  0.35149  0.69801  1.0000
  C   C43       1.0  0.45616  0.24815  0.72349  1.0000
  C   C44       1.0  0.52523  0.14199  0.6987499999999999  1.0000
  C   C45       1.0  0.58934  0.03987999999999999  0.72417  1.0000
  C   C46       1.0  0.30516  0.44586  0.72437  1.0000
  C   C47       1.0  0.19098  0.24564999999999998  0.4864999999999999  1.0000
  C   C48       1.0  0.24959  0.14307  0.55191  1.0000
  C   C49       1.0  0.12233  0.8679499999999999  0.85644  1.0000
  C   C50       1.0  0.11885  0.8514899999999999  0.8019899999999999  1.0000
  C   C51       1.0  0.04384  0.74815  0.7765099999999998  1.0000
  C   C52       1.0  0.97476  0.64199  0.80125  1.0000
  C   C53       1.0  0.9106500000000001  0.53988  0.7758299999999998  1.0000
  C   C54       1.0  0.19484  0.9458599999999999  0.7756299999999999  1.0000
  C   C55       1.0  0.30902  0.74565  0.0135  1.0000
  C   C56       1.0  0.25041  0.6430699999999999  0.94809  1.0000
  C   C57       1.0  0.62233  0.63205  0.14356  1.0000
  C   C58       1.0  0.61885  0.64851  0.19801  1.0000
  C   C59       1.0  0.54384  0.75186  0.22349  1.0000
  C   C60       1.0  0.47476  0.85801  0.19875  1.0000
  C   C61       1.0  0.41065  0.9601199999999999  0.22417  1.0000
  C   C62       1.0  0.69484  0.55414  0.22436999999999996  1.0000
  C   C63       1.0  0.80902  0.75436  0.9864999999999998  1.0000
  C   C64       1.0  0.75041  0.8569299999999999  0.05191  1.0000
  N   N1        1.0  0.21795  0.75172  0.52532  1.0000
  N   N2        1.0  0.35574  0.5733299999999999  0.53077  1.0000
  N   N3        1.0  0.39356  0.6392  0.4885699999999999  1.0000
  N   N4        1.0  0.71795  0.74829  0.47467999999999994  1.0000
  N   N5        1.0  0.85574  0.9266799999999998  0.46922999999999987  1.0000
  N   N6        1.0  0.8935600000000001  0.8608099999999999  0.51143  1.0000
  N   N7        1.0  0.78205  0.24828  0.02532  1.0000
  N   N8        1.0  0.64426  0.42667  0.030769999999999992  1.0000
  N   N9        1.0  0.60643  0.36081  0.98857  1.0000
  N   N10       1.0  0.28205  0.25172  0.97468  1.0000
  N   N11       1.0  0.14426  0.07333  0.96923  1.0000
  N   N12       1.0  0.10643  0.13919  0.01143  1.0000
  N   N13       1.0  0.78205  0.24828  0.47467999999999994  1.0000
  N   N14       1.0  0.64426  0.42667  0.46922999999999987  1.0000
  N   N15       1.0  0.60643  0.36081  0.51143  1.0000
  N   N16       1.0  0.28205  0.25172  0.52532  1.0000
  N   N17       1.0  0.14426  0.07333  0.53077  1.0000
  N   N18       1.0  0.10643  0.1392  0.4885699999999999  1.0000
  N   N19       1.0  0.21795  0.75172  0.97468  1.0000
  N   N20       1.0  0.35574  0.5733299999999999  0.96923  1.0000
  N   N21       1.0  0.39356  0.6392  0.01143  1.0000
  N   N22       1.0  0.71795  0.7482799999999998  0.02532  1.0000
  N   N23       1.0  0.85574  0.9266799999999998  0.030769999999999992  1.0000
  N   N24       1.0  0.8935600000000001  0.8608099999999999  0.98857  1.0000
  O   O1        1.0  0.01401  0.8261599999999999  0.6169599999999997  1.0000
  O   O2        1.0  0.22799000000000003  0.9263799999999999  0.6237699999999999  1.0000
  O   O3        1.0  0.514  0.67385  0.38303999999999994  1.0000
  O   O4        1.0  0.72799  0.57363  0.37623  1.0000
  O   O5        1.0  0.98599  0.17385  0.11695999999999997  1.0000
  O   O6        1.0  0.77201  0.07362  0.12377  1.0000
  O   O7        1.0  0.48599  0.32616  0.88304  1.0000
  O   O8        1.0  0.27201  0.42638  0.87623  1.0000
  O   O9        1.0  0.98599  0.17385  0.38303999999999994  1.0000
  O   O10       1.0  0.772  0.07362  0.37623  1.0000
  O   O11       1.0  0.48599  0.32616  0.6169599999999997  1.0000
  O   O12       1.0  0.27201  0.42638  0.6237699999999999  1.0000
  O   O13       1.0  0.014000000000000002  0.8261599999999999  0.88304  1.0000
  O   O14       1.0  0.22799000000000003  0.9263799999999999  0.87623  1.0000
  O   O15       1.0  0.514  0.67385  0.11695999999999997  1.0000
  O   O16       1.0  0.72799  0.57363  0.12377  1.0000
