data_image0
_chemical_formula_structural       Ni4H36C60S8N8O16
_chemical_formula_sum              "Ni4 H36 C60 S8 N8 O16"
_cell_length_a       10.5374
_cell_length_b       10.55826
_cell_length_c       19.65626
_cell_angle_alpha    88.47962999999999
_cell_angle_beta     88.57968
_cell_angle_gamma    79.84794

_space_group_name_H-M_alt    "P 1"
_space_group_IT_number       1

loop_
  _space_group_symop_operation_xyz
  'x, y, z'

loop_
  _atom_site_type_symbol
  _atom_site_label
  _atom_site_symmetry_multiplicity
  _atom_site_fract_x
  _atom_site_fract_y
  _atom_site_fract_z
  _atom_site_occupancy
  Ni  Ni1       1.0  0.25953  0.17247  0.80023  1.0000
  Ni  Ni2       1.0  0.82743  0.74107  0.69885  1.0000
  Ni  Ni3       1.0  0.7404700000000002  0.8275199999999999  0.19979  1.0000
  Ni  Ni4       1.0  0.17257000000000006  0.25893  0.30114  1.0000
  H   H1        1.0  0.09442  0.98041  0.82219  1.0000
  H   H2        1.0  0.86538  0.96942  0.84959  1.0000
  H   H3        1.0  0.7864200000000001  0.38641000000000003  0.83314  1.0000
  H   H4        1.0  0.01892  0.37878  0.80759  1.0000
  H   H5        1.0  0.67735  0.15446999999999997  0.999  1.0000
  H   H6        1.0  0.69318  0.70407  0.07402  1.0000
  H   H7        1.0  0.71416  0.08023  0.1196  1.0000
  H   H8        1.0  0.6521  0.76239  0.95105  1.0000
  H   H9        1.0  0.018430000000000005  0.90693  0.67758  1.0000
  H   H10       1.0  0.029270000000000015  0.1358  0.65079  1.0000
  H   H11       1.0  0.61139  0.21393  0.6661  1.0000
  H   H12       1.0  0.61943  0.9814400000000001  0.69106  1.0000
  H   H13       1.0  0.84492  0.32262  0.50183  1.0000
  H   H14       1.0  0.29639  0.30638  0.42768  1.0000
  H   H15       1.0  0.91969  0.28472  0.38154  1.0000
  H   H16       1.0  0.23751000000000003  0.34798  0.55043  1.0000
  H   H17       1.0  0.90557  0.019599999999999996  0.17783  1.0000
  H   H18       1.0  0.1346  0.03059  0.15042  1.0000
  H   H19       1.0  0.21358  0.61361  0.16686  1.0000
  H   H20       1.0  0.98108  0.62122  0.19241  1.0000
  H   H21       1.0  0.32266999999999996  0.84553  0.00101  1.0000
  H   H22       1.0  0.30683  0.29595  0.926  1.0000
  H   H23       1.0  0.28581999999999996  0.91979  0.8804100000000001  1.0000
  H   H24       1.0  0.34791  0.23762  0.04896  1.0000
  H   H25       1.0  0.98157  0.09307000000000003  0.32242  1.0000
  H   H26       1.0  0.9707300000000001  0.86421  0.34921  1.0000
  H   H27       1.0  0.38861000000000007  0.78608  0.33389  1.0000
  H   H28       1.0  0.38057  0.01856  0.30894  1.0000
  H   H29       1.0  0.15508  0.67738  0.49816  1.0000
  H   H30       1.0  0.7036100000000001  0.69363  0.57232  1.0000
  H   H31       1.0  0.08030999999999999  0.71529  0.61845  1.0000
  H   H32       1.0  0.7624900000000001  0.65203  0.44956000000000007  1.0000
  H   H33       1.0  0.52541  0.47332  0.74828  1.0000
  H   H34       1.0  0.16288000000000005  0.83786  0.75001  1.0000
  H   H35       1.0  0.4746  0.52662  0.25171  1.0000
  H   H36       1.0  0.8371600000000001  0.16211  0.25  1.0000
  C   C1        1.0  0.023229999999999994  0.06773  0.82651  1.0000
  C   C2        1.0  0.89515  0.06230000000000002  0.8416399999999999  1.0000
  C   C3        1.0  0.8060600000000001  0.17729999999999999  0.84453  1.0000
  C   C4        1.0  0.8507400000000002  0.29358  0.83223  1.0000
  C   C5        1.0  0.65983  0.96452  0.9654099999999999  1.0000
  C   C6        1.0  0.4717200000000001  0.68005  0.74726  1.0000
  C   C7        1.0  0.36749  0.78417  0.74956  1.0000
  C   C8        1.0  0.38324  0.92203  0.75611  1.0000
  C   C9        1.0  0.98145  0.29047  0.81823  1.0000
  C   C10       1.0  0.67985  0.05399  0.01355  1.0000
  C   C11       1.0  0.6877800000000001  0.8024799999999999  0.0549  1.0000
  C   C12       1.0  0.70092  0.01275  0.08064  1.0000
  C   C13       1.0  0.66495  0.8357200000000001  0.9869900000000001  1.0000
  C   C14       1.0  0.60848  0.70203  0.73818  1.0000
  C   C15       1.0  0.9308899999999998  0.9779  0.67304  1.0000
  C   C16       1.0  0.93622  0.10592  0.65835  1.0000
  C   C17       1.0  0.82094  0.19476  0.65537  1.0000
  C   C18       1.0  0.7044699999999999  0.14982000000000004  0.6671  1.0000
  C   C19       1.0  0.03500999999999999  0.34051  0.53571  1.0000
  C   C20       1.0  0.31835  0.52871  0.75151  1.0000
  C   C21       1.0  0.21461000000000002  0.63369  0.75019  1.0000
  C   C22       1.0  0.07529  0.62078  0.74468  1.0000
  C   C23       1.0  0.70776  0.019160000000000003  0.68063  1.0000
  C   C24       1.0  0.9456500000000001  0.31999  0.48746  1.0000
  C   C25       1.0  0.1977  0.31168  0.44655  1.0000
  C   C26       1.0  0.98727  0.2983  0.42049999999999993  1.0000
  C   C27       1.0  0.16417999999999996  0.33499  0.51436  1.0000
  C   C28       1.0  0.29658  0.39210000000000006  0.76082  1.0000
  C   C29       1.0  0.9767599999999997  0.93227  0.1735  1.0000
  C   C30       1.0  0.10483999999999997  0.93771  0.15837  1.0000
  C   C31       1.0  0.19392  0.82271  0.15548  1.0000
  C   C32       1.0  0.14925  0.70643  0.16777  1.0000
  C   C33       1.0  0.34018  0.03549  0.0346  1.0000
  C   C34       1.0  0.5283  0.31989  0.25273  1.0000
  C   C35       1.0  0.63254  0.21576000000000004  0.25046  1.0000
  C   C36       1.0  0.6167900000000001  0.07788  0.24396999999999996  1.0000
  C   C37       1.0  0.018550000000000018  0.70953  0.18177  1.0000
  C   C38       1.0  0.32016000000000006  0.9460199999999999  0.98646  1.0000
  C   C39       1.0  0.31222000000000005  0.19752999999999998  0.94512  1.0000
  C   C40       1.0  0.29907  0.98726  0.91937  1.0000
  C   C41       1.0  0.33506  0.16429  0.01302  1.0000
  C   C42       1.0  0.39154  0.29795  0.2618  1.0000
  C   C43       1.0  0.06911000000000002  0.022110000000000008  0.32696  1.0000
  C   C44       1.0  0.06378000000000002  0.8940899999999999  0.34165  1.0000
  C   C45       1.0  0.17906000000000002  0.80525  0.34462  1.0000
  C   C46       1.0  0.29553000000000007  0.8501899999999999  0.3329  1.0000
  C   C47       1.0  0.965  0.65949  0.46429000000000004  1.0000
  C   C48       1.0  0.68166  0.47126  0.24848000000000003  1.0000
  C   C49       1.0  0.7854  0.36629  0.24979  1.0000
  C   C50       1.0  0.92472  0.37921000000000005  0.2553  1.0000
  C   C51       1.0  0.29224  0.98085  0.31937  1.0000
  C   C52       1.0  0.05435000000000001  0.68001  0.51254  1.0000
  C   C53       1.0  0.8023  0.68832  0.55345  1.0000
  C   C54       1.0  0.012730000000000007  0.70171  0.57949  1.0000
  C   C55       1.0  0.8358300000000001  0.66501  0.48563  1.0000
  C   C56       1.0  0.70342  0.60787  0.23917  1.0000
  C   C57       1.0  0.44521000000000005  0.55396  0.74898  1.0000
  C   C58       1.0  0.24264999999999984  0.75774  0.74992  1.0000
  C   C59       1.0  0.55481  0.44599  0.251  1.0000
  C   C60       1.0  0.7573699999999999  0.24222000000000002  0.25009  1.0000
  S   S1        1.0  0.63871  0.18480999999999997  0.8630000000000001  1.0000
  S   S2        1.0  0.6211100000000002  0.99703  0.8790099999999998  1.0000
  S   S3        1.0  0.81336  0.3620499999999999  0.63746  1.0000
  S   S4        1.0  0.0015999999999999962  0.37981000000000004  0.62196  1.0000
  S   S5        1.0  0.36127  0.8151999999999999  0.137  1.0000
  S   S6        1.0  0.37889  0.00298  0.12101  1.0000
  S   S7        1.0  0.18663999999999997  0.63796  0.36253  1.0000
  S   S8        1.0  0.9984  0.6202  0.37803  1.0000
  N   N1        1.0  0.06711  0.17933000000000002  0.81482  1.0000
  N   N2        1.0  0.70472  0.8893599999999999  0.10176  1.0000
  N   N3        1.0  0.8191400000000001  0.93372  0.68416  1.0000
  N   N4        1.0  0.11091000000000001  0.29443  0.3995  1.0000
  N   N5        1.0  0.93288  0.82067  0.18519  1.0000
  N   N6        1.0  0.29527  0.11066  0.89826  1.0000
  N   N7        1.0  0.18086000000000002  0.06628  0.31584  1.0000
  N   N8        1.0  0.88909  0.7055700000000001  0.60049  1.0000
  O   O1        1.0  0.49253  0.95064  0.76088  1.0000
  O   O2        1.0  0.2747299999999999  0.0025499999999999997  0.76018  1.0000
  O   O3        1.0  0.6437899999999999  0.7255  0.67643  1.0000
  O   O4        1.0  0.6872900000000001  0.69298  0.78623  1.0000
  O   O5        1.0  0.04361  0.51289  0.74052  1.0000
  O   O6        1.0  0.9958400000000001  0.73011  0.74077  1.0000
  O   O7        1.0  0.27336  0.35673  0.82257  1.0000
  O   O8        1.0  0.30622  0.31278  0.71311  1.0000
  O   O9        1.0  0.50748  0.049349999999999984  0.23911000000000002  1.0000
  O   O10       1.0  0.7252600000000001  0.99727  0.24001  1.0000
  O   O11       1.0  0.35620999999999997  0.2745  0.32356  1.0000
  O   O12       1.0  0.31273  0.30701  0.21374999999999997  1.0000
  O   O13       1.0  0.9563900000000001  0.4871  0.25948  1.0000
  O   O14       1.0  0.004179999999999997  0.26988  0.25922  1.0000
  O   O15       1.0  0.72665  0.64325  0.17743  1.0000
  O   O16       1.0  0.69377  0.68719  0.28689  1.0000
