data_image0
_chemical_formula_structural       Cu4H32C48N8O16
_chemical_formula_sum              "Cu4 H32 C48 N8 O16"
_cell_length_a       11.52871
_cell_length_b       12.26339
_cell_length_c       12.68262
_cell_angle_alpha    90.02950999999999
_cell_angle_beta     118.26609
_cell_angle_gamma    89.92337

_space_group_name_H-M_alt    "P 1"
_space_group_IT_number       1

loop_
  _space_group_symop_operation_xyz
  'x, y, z'

loop_
  _atom_site_type_symbol
  _atom_site_label
  _atom_site_symmetry_multiplicity
  _atom_site_fract_x
  _atom_site_fract_y
  _atom_site_fract_z
  _atom_site_occupancy
  Cu  Cu1       1.0  0.17790000000000003  0.9679300000000001  0.46624  1.0000
  Cu  Cu2       1.0  0.32056  0.4669000000000001  0.03234  1.0000
  Cu  Cu3       1.0  0.8221  0.03207  0.53376  1.0000
  Cu  Cu4       1.0  0.67944  0.5331  0.96765  1.0000
  H   H1        1.0  0.09645  0.76404  0.14581  1.0000
  H   H2        1.0  0.11652999999999998  0.61173  0.0252  1.0000
  H   H3        1.0  0.51874  0.58515  0.25043  1.0000
  H   H4        1.0  0.51424  0.74066  0.37954  1.0000
  H   H5        1.0  0.40242  0.26382  0.35231  1.0000
  H   H6        1.0  0.38302  0.11289000000000003  0.47506  1.0000
  H   H7        1.0  0.9806999999999999  0.08657000000000001  0.25114  1.0000
  H   H8        1.0  0.9843199999999999  0.24012000000000006  0.11972  1.0000
  H   H9        1.0  0.008659999999999996  0.20073  0.7308000000000001  1.0000
  H   H10       1.0  0.08708000000000006  0.35293  0.8823700000000001  1.0000
  H   H11       1.0  0.40695  0.17272  0.78691  1.0000
  H   H12       1.0  0.47025999999999996  0.32261  0.94059  1.0000
  H   H13       1.0  0.49156999999999995  0.70206  0.76975  1.0000
  H   H14       1.0  0.41213  0.8522  0.61558  1.0000
  H   H15       1.0  0.09302000000000006  0.6734700000000002  0.7124  1.0000
  H   H16       1.0  0.02891000000000003  0.8213000000000001  0.55683  1.0000
  H   H17       1.0  0.9913399999999999  0.79926  0.2692  1.0000
  H   H18       1.0  0.9129199999999998  0.64706  0.11763  1.0000
  H   H19       1.0  0.59305  0.82728  0.21309  1.0000
  H   H20       1.0  0.52974  0.6773900000000003  0.05940999999999999  1.0000
  H   H21       1.0  0.50843  0.29794  0.23025  1.0000
  H   H22       1.0  0.58787  0.1478  0.38442  1.0000
  H   H23       1.0  0.90698  0.32653  0.2876  1.0000
  H   H24       1.0  0.97109  0.17870000000000005  0.44317  1.0000
  H   H25       1.0  0.90355  0.23595000000000005  0.85419  1.0000
  H   H26       1.0  0.8834699999999999  0.38827000000000006  0.9748  1.0000
  H   H27       1.0  0.4812600000000001  0.41484  0.7495700000000001  1.0000
  H   H28       1.0  0.48576  0.25934  0.62046  1.0000
  H   H29       1.0  0.59758  0.7361800000000002  0.64769  1.0000
  H   H30       1.0  0.61698  0.8871100000000001  0.52494  1.0000
  H   H31       1.0  0.019300000000000036  0.9134300000000001  0.74886  1.0000
  H   H32       1.0  0.01568  0.75988  0.88028  1.0000
  C   C1        1.0  0.29649  0.8492600000000001  0.35598  1.0000
  C   C2        1.0  0.19195  0.7272000000000002  0.17166  1.0000
  C   C3        1.0  0.20295  0.6429400000000001  0.10332  1.0000
  C   C4        1.0  0.30406  0.7633500000000001  0.27373  1.0000
  C   C5        1.0  0.42843999999999993  0.62853  0.23102  1.0000
  C   C6        1.0  0.4246599999999999  0.7135600000000001  0.30202  1.0000
  C   C7        1.0  0.20249  0.3473800000000001  0.14197  1.0000
  C   C8        1.0  0.30716  0.22710000000000002  0.32734  1.0000
  C   C9        1.0  0.29654  0.14375  0.39669000000000004  1.0000
  C   C10       1.0  0.1948  0.26256  0.22495  1.0000
  C   C11       1.0  0.07083  0.12947  0.2695  1.0000
  C   C12       1.0  0.07417  0.21351000000000006  0.19741  1.0000
  C   C13       1.0  0.15621  0.08729  0.65274  1.0000
  C   C14       1.0  0.20268000000000008  0.17529000000000003  0.7474400000000001  1.0000
  C   C15       1.0  0.11150999999999994  0.22607000000000002  0.77476  1.0000
  C   C16       1.0  0.15385000000000004  0.30981  0.8584600000000001  1.0000
  C   C17       1.0  0.3340899999999999  0.20977000000000004  0.80726  1.0000
  C   C18       1.0  0.36982000000000004  0.29251  0.8922200000000001  1.0000
  C   C19       1.0  0.34436  0.5879800000000001  0.84734  1.0000
  C   C20       1.0  0.29759  0.6763600000000002  0.7528  1.0000
  C   C21       1.0  0.38846  0.72689  0.72504  1.0000
  C   C22       1.0  0.34557  0.8096000000000002  0.64001  1.0000
  C   C23       1.0  0.1659  0.7102100000000002  0.69202  1.0000
  C   C24       1.0  0.12970999999999996  0.79203  0.60596  1.0000
  C   C25       1.0  0.84379  0.9127100000000002  0.34726  1.0000
  C   C26       1.0  0.7973199999999999  0.82471  0.25256  1.0000
  C   C27       1.0  0.88849  0.77393  0.22524  1.0000
  C   C28       1.0  0.84615  0.6901900000000001  0.14153  1.0000
  C   C29       1.0  0.66591  0.79022  0.19273999999999997  1.0000
  C   C30       1.0  0.63018  0.70749  0.10778  1.0000
  C   C31       1.0  0.65564  0.4120100000000001  0.15266  1.0000
  C   C32       1.0  0.7024099999999999  0.32364  0.2472  1.0000
  C   C33       1.0  0.61154  0.2731  0.27495  1.0000
  C   C34       1.0  0.65443  0.19040000000000004  0.35999  1.0000
  C   C35       1.0  0.8340999999999998  0.28978  0.30798  1.0000
  C   C36       1.0  0.8702899999999999  0.20797000000000002  0.39404000000000006  1.0000
  C   C37       1.0  0.70351  0.15074000000000004  0.64402  1.0000
  C   C38       1.0  0.8080499999999999  0.2728  0.8283400000000001  1.0000
  C   C39       1.0  0.7970499999999999  0.35705  0.89668  1.0000
  C   C40       1.0  0.69594  0.23665  0.7262600000000001  1.0000
  C   C41       1.0  0.5715599999999997  0.37147000000000013  0.76898  1.0000
  C   C42       1.0  0.57534  0.2864300000000001  0.69798  1.0000
  C   C43       1.0  0.79751  0.65262  0.8580300000000001  1.0000
  C   C44       1.0  0.6928400000000001  0.7728900000000002  0.67265  1.0000
  C   C45       1.0  0.70346  0.8562500000000001  0.60331  1.0000
  C   C46       1.0  0.8052  0.7374400000000002  0.77505  1.0000
  C   C47       1.0  0.9291700000000002  0.8705300000000002  0.7305000000000001  1.0000
  C   C48       1.0  0.9258300000000003  0.7864900000000001  0.8025900000000001  1.0000
  N   N1        1.0  0.31948  0.5941  0.13322  1.0000
  N   N2        1.0  0.18003  0.09540000000000001  0.36725  1.0000
  N   N3        1.0  0.28104  0.34185000000000004  0.91723  1.0000
  N   N4        1.0  0.21814  0.84135  0.58064  1.0000
  N   N5        1.0  0.71896  0.65815  0.08277  1.0000
  N   N6        1.0  0.7818599999999999  0.15865  0.41936  1.0000
  N   N7        1.0  0.68052  0.4059  0.86678  1.0000
  N   N8        1.0  0.81997  0.9046000000000001  0.63275  1.0000
  O   O1        1.0  0.1786  0.86773  0.34007  1.0000
  O   O2        1.0  0.39966  0.8929600000000001  0.43349  1.0000
  O   O3        1.0  0.32021  0.3652  0.15745  1.0000
  O   O4        1.0  0.09935999999999999  0.3912000000000001  0.06431  1.0000
  O   O5        1.0  0.05226  0.03657  0.62975  1.0000
  O   O6        1.0  0.22938000000000003  0.07359  0.60246  1.0000
  O   O7        1.0  0.44961  0.53878  0.87128  1.0000
  O   O8        1.0  0.26995  0.57211  0.89601  1.0000
  O   O9        1.0  0.94774  0.9634300000000002  0.37025  1.0000
  O   O10       1.0  0.7706199999999999  0.92641  0.39753  1.0000
  O   O11       1.0  0.55039  0.46122  0.12872  1.0000
  O   O12       1.0  0.7300499999999999  0.42789000000000005  0.10399  1.0000
  O   O13       1.0  0.8214  0.13227  0.65993  1.0000
  O   O14       1.0  0.60034  0.10704  0.56651  1.0000
  O   O15       1.0  0.67979  0.63479  0.8425400000000001  1.0000
  O   O16       1.0  0.90064  0.60879  0.9356800000000001  1.0000
