data_image0
_chemical_formula_structural       Zn7H28C44N18O16
_chemical_formula_sum              "Zn7 H28 C44 N18 O16"
_cell_length_a       9.79785
_cell_length_b       11.97443
_cell_length_c       15.33847
_cell_angle_alpha    96.4901
_cell_angle_beta     98.76925
_cell_angle_gamma    112.99153

_space_group_name_H-M_alt    "P 1"
_space_group_IT_number       1

loop_
  _space_group_symop_operation_xyz
  'x, y, z'

loop_
  _atom_site_type_symbol
  _atom_site_label
  _atom_site_symmetry_multiplicity
  _atom_site_fract_x
  _atom_site_fract_y
  _atom_site_fract_z
  _atom_site_occupancy
  Zn  Zn1       1.0  0.9893600000000001  0.57277  0.29648  1.0000
  Zn  Zn2       1.0  0.89107  0.69174  0.67263  1.0000
  Zn  Zn3       1.0  0.4415299999999999  0.60707  0.06884  1.0000
  Zn  Zn4       1.0  0.010639999999999985  0.42722  0.70353  1.0000
  Zn  Zn5       1.0  0.10892999999999994  0.30826  0.3273699999999999  1.0000
  Zn  Zn6       1.0  0.55846  0.39293000000000006  0.93117  1.0000
  Zn  Zn7       1.0  0.5  0.5  0.5  1.0000
  H   H1        1.0  0.29857  0.0033299999999999823  0.81773  1.0000
  H   H2        1.0  0.74158  0.05256999999999997  0.9516  1.0000
  H   H3        1.0  0.67268  0.82724  0.90036  1.0000
  H   H4        1.0  0.41557999999999995  0.69309  0.80295  1.0000
  H   H5        1.0  0.82021  0.01123999999999999  0.66398  1.0000
  H   H6        1.0  0.4613399999999999  0.12778999999999996  0.5985599999999998  1.0000
  H   H7        1.0  0.2700799999999999  0.90888  0.57234  1.0000
  H   H8        1.0  0.35736  0.73969  0.58079  1.0000
  H   H9        1.0  0.17295  0.64672  0.1423  1.0000
  H   H10       1.0  0.35640999999999995  0.39298  0.20174999999999998  1.0000
  H   H11       1.0  0.07981999999999992  0.68331  0.51945  1.0000
  H   H12       1.0  0.66112  0.45292  0.34753  1.0000
  H   H13       1.0  0.7193000000000002  0.6728100000000001  0.23823999999999995  1.0000
  H   H14       1.0  0.82227  0.40824  0.09047  1.0000
  H   H15       1.0  0.7014300000000001  0.9966600000000001  0.18227  1.0000
  H   H16       1.0  0.25842  0.94743  0.0484  1.0000
  H   H17       1.0  0.32731  0.17276  0.09965  1.0000
  H   H18       1.0  0.58442  0.30691  0.19705  1.0000
  H   H19       1.0  0.17978999999999995  0.9887600000000001  0.33602  1.0000
  H   H20       1.0  0.5386600000000001  0.8722100000000002  0.40145  1.0000
  H   H21       1.0  0.72991  0.09112  0.42766  1.0000
  H   H22       1.0  0.64264  0.2603  0.41921  1.0000
  H   H23       1.0  0.82705  0.35328  0.8577  1.0000
  H   H24       1.0  0.6435800000000002  0.6070100000000002  0.7982499999999998  1.0000
  H   H25       1.0  0.9201799999999998  0.3166900000000001  0.48055  1.0000
  H   H26       1.0  0.33888000000000007  0.5470800000000002  0.65247  1.0000
  H   H27       1.0  0.28069  0.32718  0.7617699999999997  1.0000
  H   H28       1.0  0.17773  0.59176  0.90953  1.0000
  C   C1        1.0  0.34192999999999996  0.83968  0.80466  1.0000
  C   C2        1.0  0.3804000000000001  0.9648800000000002  0.8353599999999998  1.0000
  C   C3        1.0  0.52497  0.04122999999999998  0.88739  1.0000
  C   C4        1.0  0.6302100000000002  0.9913600000000001  0.9107299999999998  1.0000
  C   C5        1.0  0.5911799999999999  0.86583  0.88155  1.0000
  C   C6        1.0  0.44812  0.79062  0.8279  1.0000
  C   C7        1.0  0.18963999999999998  0.75956  0.7466399999999999  1.0000
  C   C8        1.0  0.56765  0.17597  0.9157  1.0000
  C   C9        1.0  0.59368  0.8645  0.6235199999999997  1.0000
  C   C10       1.0  0.69999  0.98847  0.64243  1.0000
  C   C11       1.0  0.65237  0.08275000000000003  0.6312  1.0000
  C   C12       1.0  0.49663  0.05331  0.6066  1.0000
  C   C13       1.0  0.39053000000000004  0.9306700000000002  0.59088  1.0000
  C   C14       1.0  0.43857000000000007  0.8358400000000001  0.59689  1.0000
  C   C15       1.0  0.64855  0.76598  0.6328299999999998  1.0000
  C   C16       1.0  0.76682  0.21368000000000004  0.64256  1.0000
  C   C17       1.0  0.19406  0.57447  0.17053  1.0000
  C   C18       1.0  0.28969  0.44691000000000003  0.20076  1.0000
  C   C19       1.0  0.95903  0.63153  0.49275  1.0000
  C   C20       1.0  0.7468899999999999  0.51495  0.40471  1.0000
  C   C21       1.0  0.71797  0.60318  0.18608  1.0000
  C   C22       1.0  0.7723400000000001  0.47044  0.11132999999999997  1.0000
  C   C23       1.0  0.65807  0.16031999999999996  0.19534999999999994  1.0000
  C   C24       1.0  0.61959  0.035109999999999995  0.16464999999999994  1.0000
  C   C25       1.0  0.4750199999999999  0.9587699999999999  0.11262  1.0000
  C   C26       1.0  0.36978  0.008640000000000005  0.08928  1.0000
  C   C27       1.0  0.40881  0.13417  0.11846  1.0000
  C   C28       1.0  0.55187  0.20938  0.1721  1.0000
  C   C29       1.0  0.81035  0.24044000000000001  0.25337  1.0000
  C   C30       1.0  0.43235  0.82403  0.0843  1.0000
  C   C31       1.0  0.40630999999999995  0.1355  0.37647999999999987  1.0000
  C   C32       1.0  0.30001  0.01153  0.35757  1.0000
  C   C33       1.0  0.34763  0.91724  0.3688  1.0000
  C   C34       1.0  0.50336  0.94669  0.39341  1.0000
  C   C35       1.0  0.60947  0.06931999999999998  0.4091299999999999  1.0000
  C   C36       1.0  0.56142  0.16416  0.40312  1.0000
  C   C37       1.0  0.35144999999999993  0.23400999999999994  0.3671699999999999  1.0000
  C   C38       1.0  0.23318000000000005  0.7863200000000001  0.35744  1.0000
  C   C39       1.0  0.80593  0.4255200000000001  0.8294699999999998  1.0000
  C   C40       1.0  0.7103000000000002  0.5530800000000001  0.79925  1.0000
  C   C41       1.0  0.04096000000000001  0.36847  0.50726  1.0000
  C   C42       1.0  0.25311000000000006  0.4850500000000001  0.5953  1.0000
  C   C43       1.0  0.28202  0.39682  0.81393  1.0000
  C   C44       1.0  0.22765999999999997  0.52956  0.88867  1.0000
  N   N1        1.0  0.18640999999999994  0.43501  0.25068  1.0000
  N   N2        1.0  0.12482000000000004  0.5165500000000001  0.23094  1.0000
  N   N3        1.0  0.29809  0.53325  0.14941999999999994  1.0000
  N   N4        1.0  0.8527499999999999  0.6207000000000001  0.5403599999999997  1.0000
  N   N5        1.0  0.7152600000000001  0.5457300000000002  0.48328  1.0000
  N   N6        1.0  0.8973999999999999  0.5673699999999999  0.4075499999999999  1.0000
  N   N7        1.0  0.81564  0.54846  0.19131  1.0000
  N   N8        1.0  0.6538699999999997  0.4762  0.05934  1.0000
  N   N9        1.0  0.61823  0.56122  0.10741999999999997  1.0000
  N   N10       1.0  0.8135900000000001  0.5649900000000001  0.74932  1.0000
  N   N11       1.0  0.87518  0.48345000000000005  0.76907  1.0000
  N   N12       1.0  0.70191  0.46675000000000005  0.85059  1.0000
  N   N13       1.0  0.14725  0.3793  0.45965  1.0000
  N   N14       1.0  0.28474  0.45426  0.51673  1.0000
  N   N15       1.0  0.10259000000000001  0.43263  0.59245  1.0000
  N   N16       1.0  0.18435  0.45154  0.80869  1.0000
  N   N17       1.0  0.3461300000000001  0.5238000000000002  0.94066  1.0000
  N   N18       1.0  0.38177  0.43878  0.89258  1.0000
  O   O1        1.0  0.15822999999999998  0.6487599999999999  0.7133899999999999  1.0000
  O   O2        1.0  0.09575  0.81085  0.73248  1.0000
  O   O3        1.0  0.4602899999999999  0.2129  0.89364  1.0000
  O   O4        1.0  0.70034  0.24908  0.95621  1.0000
  O   O5        1.0  0.5594999999999999  0.65226  0.5993999999999999  1.0000
  O   O6        1.0  0.78456  0.80093  0.67673  1.0000
  O   O7        1.0  0.8994699999999999  0.24178000000000005  0.69283  1.0000
  O   O8        1.0  0.7329400000000001  0.29001000000000005  0.60443  1.0000
  O   O9        1.0  0.84177  0.35124  0.28661  1.0000
  O   O10       1.0  0.90424  0.18915000000000007  0.26752  1.0000
  O   O11       1.0  0.53971  0.7871  0.10635999999999997  1.0000
  O   O12       1.0  0.29966  0.75092  0.04379  1.0000
  O   O13       1.0  0.4405  0.34774  0.4006  1.0000
  O   O14       1.0  0.21544  0.19907  0.32327  1.0000
  O   O15       1.0  0.10053000000000004  0.7582100000000002  0.30716999999999994  1.0000
  O   O16       1.0  0.26706  0.70999  0.39557999999999993  1.0000
