data_image0
_chemical_formula_structural       Mn4H24C48S8N8O16
_chemical_formula_sum              "Mn4 H24 C48 S8 N8 O16"
_cell_length_a       9.50172
_cell_length_b       14.09701
_cell_length_c       14.09703
_cell_angle_alpha    70.31485
_cell_angle_beta     86.46303000000002
_cell_angle_gamma    86.46257

_space_group_name_H-M_alt    "P 1"
_space_group_IT_number       1

loop_
  _space_group_symop_operation_xyz
  'x, y, z'

loop_
  _atom_site_type_symbol
  _atom_site_label
  _atom_site_symmetry_multiplicity
  _atom_site_fract_x
  _atom_site_fract_y
  _atom_site_fract_z
  _atom_site_occupancy
  Mn  Mn1       1.0  0.0  0.0  0.0  1.0000
  Mn  Mn2       1.0  0.5  0.0  0.0  1.0000
  Mn  Mn3       1.0  0.25001  0.15294  0.84706  1.0000
  Mn  Mn4       1.0  0.74999  0.8470600000000003  0.15294  1.0000
  H   H1        1.0  0.67373  0.22124000000000002  0.8885  1.0000
  H   H2        1.0  0.8190899999999998  0.57114  0.7367999999999998  1.0000
  H   H3        1.0  0.005109999999999974  0.43222000000000016  0.7959  1.0000
  H   H4        1.0  0.58124  0.73208  0.9692699999999999  1.0000
  H   H5        1.0  0.82677  0.9407600000000002  0.73251  1.0000
  H   H6        1.0  0.7575699999999999  0.8535500000000003  0.6155999999999998  1.0000
  H   H7        1.0  0.8262899999999999  0.11149999999999999  0.77876  1.0000
  H   H8        1.0  0.68092  0.26320000000000005  0.4288599999999999  1.0000
  H   H9        1.0  0.4949  0.20409999999999998  0.56778  1.0000
  H   H10       1.0  0.9187699999999999  0.030729999999999997  0.26792  1.0000
  H   H11       1.0  0.67323  0.2674900000000001  0.05923999999999999  1.0000
  H   H12       1.0  0.74244  0.3844  0.14645  1.0000
  H   H13       1.0  0.32628  0.7787600000000002  0.1115  1.0000
  H   H14       1.0  0.18091  0.42886000000000024  0.26319  1.0000
  H   H15       1.0  0.9948900000000002  0.56778  0.2041  1.0000
  H   H16       1.0  0.41876  0.26791  0.03073  1.0000
  H   H17       1.0  0.17323  0.05924  0.26749  1.0000
  H   H18       1.0  0.24244000000000004  0.14645000000000002  0.38439999999999996  1.0000
  H   H19       1.0  0.17371999999999996  0.8885000000000002  0.22124  1.0000
  H   H20       1.0  0.31908999999999993  0.7368  0.57114  1.0000
  H   H21       1.0  0.5050999999999999  0.7959  0.43222  1.0000
  H   H22       1.0  0.08124000000000002  0.9692700000000001  0.73208  1.0000
  H   H23       1.0  0.3267699999999999  0.7325100000000001  0.9407599999999999  1.0000
  H   H24       1.0  0.25757  0.6156  0.85355  1.0000
  C   C1        1.0  0.9596399999999999  0.23129000000000013  0.8737599999999998  1.0000
  C   C2        1.0  0.85292  0.31628000000000006  0.8445399999999998  1.0000
  C   C3        1.0  0.70822  0.29807  0.8544799999999998  1.0000
  C   C4        1.0  0.64997  0.46591  0.77837  1.0000
  C   C5        1.0  0.7907700000000001  0.49299000000000015  0.7694999999999999  1.0000
  C   C6        1.0  0.89352  0.41634  0.80256  1.0000
  C   C7        1.0  0.63451  0.74535  0.73455  1.0000
  C   C8        1.0  0.62201  0.76016  0.8913699999999999  1.0000
  C   C9        1.0  0.7087399999999997  0.8430400000000002  0.8598799999999999  1.0000
  C   C10       1.0  0.75821  0.8773500000000002  0.7589199999999998  1.0000
  C   C11       1.0  0.7192700000000001  0.82917  0.6940299999999999  1.0000
  C   C12       1.0  0.7522599999999999  0.8883600000000001  0.9334599999999998  1.0000
  C   C13       1.0  0.54038  0.12624000000000007  0.7687099999999998  1.0000
  C   C14       1.0  0.64709  0.1554600000000001  0.6837199999999999  1.0000
  C   C15       1.0  0.7917899999999999  0.14552000000000004  0.70193  1.0000
  C   C16       1.0  0.8500400000000001  0.22162999999999997  0.53409  1.0000
  C   C17       1.0  0.70924  0.23049999999999998  0.50701  1.0000
  C   C18       1.0  0.60649  0.19744  0.58366  1.0000
  C   C19       1.0  0.86549  0.26545  0.25465  1.0000
  C   C20       1.0  0.8779999999999999  0.10862  0.23983999999999997  1.0000
  C   C21       1.0  0.7912699999999999  0.14012  0.15696  1.0000
  C   C22       1.0  0.74179  0.24108000000000004  0.12265  1.0000
  C   C23       1.0  0.78073  0.30596000000000007  0.17082999999999995  1.0000
  C   C24       1.0  0.74775  0.06654  0.11163999999999999  1.0000
  C   C25       1.0  0.04037  0.76871  0.12624  1.0000
  C   C26       1.0  0.14707999999999993  0.6837200000000001  0.15545999999999996  1.0000
  C   C27       1.0  0.29178  0.70193  0.14551  1.0000
  C   C28       1.0  0.35004  0.53409  0.22162999999999994  1.0000
  C   C29       1.0  0.20923  0.5070099999999998  0.2305  1.0000
  C   C30       1.0  0.10647999999999991  0.58366  0.19744  1.0000
  C   C31       1.0  0.3654899999999999  0.25465  0.26545  1.0000
  C   C32       1.0  0.378  0.23984  0.10863  1.0000
  C   C33       1.0  0.29127  0.15696  0.14012  1.0000
  C   C34       1.0  0.24179  0.12265  0.24108  1.0000
  C   C35       1.0  0.28073  0.17083000000000007  0.30595999999999995  1.0000
  C   C36       1.0  0.24774  0.11164  0.06654  1.0000
  C   C37       1.0  0.4596299999999999  0.87376  0.23128999999999997  1.0000
  C   C38       1.0  0.3529100000000001  0.84454  0.3162799999999999  1.0000
  C   C39       1.0  0.20820999999999995  0.8544800000000001  0.29807  1.0000
  C   C40       1.0  0.14996  0.7783700000000001  0.46590999999999994  1.0000
  C   C41       1.0  0.29077  0.7695  0.49298999999999993  1.0000
  C   C42       1.0  0.39350999999999997  0.8025600000000003  0.41634  1.0000
  C   C43       1.0  0.13451  0.73455  0.7453499999999997  1.0000
  C   C44       1.0  0.12201  0.89137  0.7601599999999997  1.0000
  C   C45       1.0  0.20873  0.8598800000000001  0.8430399999999999  1.0000
  C   C46       1.0  0.25821  0.75892  0.87735  1.0000
  C   C47       1.0  0.21927  0.69404  0.82917  1.0000
  C   C48       1.0  0.25225999999999993  0.93346  0.88836  1.0000
  S   S1        1.0  0.50387  0.5522200000000002  0.7344899999999998  1.0000
  S   S2        1.0  0.59282  0.6828  0.64854  1.0000
  S   S3        1.0  0.99614  0.2655100000000001  0.44777999999999996  1.0000
  S   S4        1.0  0.9071799999999999  0.35145999999999994  0.3172  1.0000
  S   S5        1.0  0.49613  0.44778000000000007  0.26551  1.0000
  S   S6        1.0  0.40718000000000004  0.3172  0.35146  1.0000
  S   S7        1.0  0.003870000000000013  0.73449  0.55222  1.0000
  S   S8        1.0  0.09282  0.64854  0.6827999999999997  1.0000
  N   N1        1.0  0.60748  0.37113  0.82144  1.0000
  N   N2        1.0  0.58701  0.71065  0.8305999999999998  1.0000
  N   N3        1.0  0.8925299999999999  0.17856000000000008  0.6288699999999999  1.0000
  N   N4        1.0  0.913  0.16940000000000005  0.28935  1.0000
  N   N5        1.0  0.3925199999999999  0.62887  0.17856  1.0000
  N   N6        1.0  0.4129900000000001  0.2893500000000001  0.16939999999999997  1.0000
  N   N7        1.0  0.10747999999999999  0.82144  0.37113  1.0000
  N   N8        1.0  0.08700999999999998  0.8306000000000001  0.71065  1.0000
  O   O1        1.0  0.91685  0.14368999999999998  0.92222  1.0000
  O   O2        1.0  0.08911000000000001  0.25225  0.84519  1.0000
  O   O3        1.0  0.66656  0.87637  0.0132  1.0000
  O   O4        1.0  0.86612  0.93328  0.91847  1.0000
  O   O5        1.0  0.58316  0.07778000000000009  0.85631  1.0000
  O   O6        1.0  0.41089999999999993  0.15481000000000003  0.74775  1.0000
  O   O7        1.0  0.83344  0.9868  0.12363  1.0000
  O   O8        1.0  0.63389  0.08153  0.06671999999999999  1.0000
  O   O9        1.0  0.08314999999999997  0.8563100000000002  0.07777999999999997  1.0000
  O   O10       1.0  0.9109  0.74775  0.1548  1.0000
  O   O11       1.0  0.33344  0.12363000000000003  0.9867999999999998  1.0000
  O   O12       1.0  0.13389000000000004  0.06672000000000003  0.08152999999999998  1.0000
  O   O13       1.0  0.41684  0.9222200000000003  0.14369  1.0000
  O   O14       1.0  0.5891  0.84519  0.25225  1.0000
  O   O15       1.0  0.16657  0.013200000000000007  0.87637  1.0000
  O   O16       1.0  0.36612  0.9184699999999999  0.93328  1.0000
