data_image0
_chemical_formula_structural       Cd6H24C48O24
_chemical_formula_sum              "Cd6 H24 C48 O24"
_cell_length_a       11.2335
_cell_length_b       13.835310000000002
_cell_length_c       14.80281
_cell_angle_alpha    75.4673
_cell_angle_beta     67.77268
_cell_angle_gamma    66.14731999999998

_space_group_name_H-M_alt    "P 1"
_space_group_IT_number       1

loop_
  _space_group_symop_operation_xyz
  'x, y, z'

loop_
  _atom_site_type_symbol
  _atom_site_label
  _atom_site_symmetry_multiplicity
  _atom_site_fract_x
  _atom_site_fract_y
  _atom_site_fract_z
  _atom_site_occupancy
  Cd  Cd1       1.0  0.97522  0.03331  0.6234700000000001  1.0000
  Cd  Cd2       1.0  0.63319  0.46701000000000004  0.87657  1.0000
  Cd  Cd3       1.0  0.024769999999999955  0.96669  0.3765400000000001  1.0000
  Cd  Cd4       1.0  0.36679  0.533  0.12344000000000001  1.0000
  Cd  Cd5       1.0  0.7055999999999998  0.25001  0.7501900000000001  1.0000
  Cd  Cd6       1.0  0.29439000000000004  0.75  0.24981  1.0000
  H   H1        1.0  0.44019999999999987  0.05019999999999996  0.9153400000000003  1.0000
  H   H2        1.0  0.3436299999999999  0.9095800000000003  0.01913  1.0000
  H   H3        1.0  0.68908  0.67305  0.84809  1.0000
  H   H4        1.0  0.7843499999999999  0.81336  0.7477300000000001  1.0000
  H   H5        1.0  0.14539999999999983  0.8608900000000002  0.8867900000000002  1.0000
  H   H6        1.0  0.85793  0.17611  0.93753  1.0000
  H   H7        1.0  0.4062300000000001  0.44976  0.58418  1.0000
  H   H8        1.0  0.27290999999999993  0.59054  0.48062000000000005  1.0000
  H   H9        1.0  0.2108499999999998  0.8265300000000003  0.65259  1.0000
  H   H10       1.0  0.3466300000000001  0.68604  0.75252  1.0000
  H   H11       1.0  0.8931699999999997  0.6389800000000002  0.61348  1.0000
  H   H12       1.0  0.97197  0.32361  0.56243  1.0000
  H   H13       1.0  0.5597799999999999  0.9498000000000002  0.08467000000000002  1.0000
  H   H14       1.0  0.6563599999999999  0.09042000000000006  0.98087  1.0000
  H   H15       1.0  0.3109100000000001  0.32696000000000003  0.15191  1.0000
  H   H16       1.0  0.21564000000000003  0.18664  0.25227  1.0000
  H   H17       1.0  0.85458  0.13911  0.11322  1.0000
  H   H18       1.0  0.14205999999999988  0.8239000000000002  0.06247  1.0000
  H   H19       1.0  0.59376  0.55025  0.41582  1.0000
  H   H20       1.0  0.72707  0.40947  0.51939  1.0000
  H   H21       1.0  0.78914  0.17347  0.34742  1.0000
  H   H22       1.0  0.6533500000000001  0.31397  0.24748000000000006  1.0000
  H   H23       1.0  0.10681999999999993  0.36102000000000006  0.38653  1.0000
  H   H24       1.0  0.02800999999999989  0.6764  0.43757000000000007  1.0000
  C   C1        1.0  0.68301  0.021540000000000004  0.76623  1.0000
  C   C2        1.0  0.6180400000000001  0.93995  0.8256  1.0000
  C   C3        1.0  0.49304  0.9674500000000003  0.90154  1.0000
  C   C4        1.0  0.4394100000000001  0.88912  0.95923  1.0000
  C   C5        1.0  0.5098  0.78234  0.94061  1.0000
  C   C6        1.0  0.6338799999999999  0.7551300000000001  0.86348  1.0000
  C   C7        1.0  0.6875299999999999  0.83343  0.80673  1.0000
  C   C8        1.0  0.45362  0.69893  0.00239  1.0000
  C   C9        1.0  0.9994999999999997  0.04150999999999999  0.7985300000000001  1.0000
  C   C10       1.0  0.0024399999999999  0.020869999999999993  0.9017000000000001  1.0000
  C   C11       1.0  0.08241999999999988  0.92114  0.9369000000000002  1.0000
  C   C12       1.0  0.9203000000000001  0.09962999999999998  0.96542  1.0000
  C   C13       1.0  0.4717800000000001  0.47799  0.73328  1.0000
  C   C14       1.0  0.38441  0.55973  0.6742300000000002  1.0000
  C   C15       1.0  0.3625500000000002  0.53242  0.59823  1.0000
  C   C16       1.0  0.28838  0.61085  0.54065  1.0000
  C   C17       1.0  0.23351999999999998  0.71756  0.55951  1.0000
  C   C18       1.0  0.2532699999999999  0.74456  0.63688  1.0000
  C   C19       1.0  0.3285799999999999  0.6661600000000001  0.69346  1.0000
  C   C20       1.0  0.15611  0.80088  0.49752  1.0000
  C   C21       1.0  0.84117  0.45751  0.70157  1.0000
  C   C22       1.0  0.9256899999999998  0.47879000000000005  0.5983200000000001  1.0000
  C   C23       1.0  0.9405800000000001  0.57881  0.56326  1.0000
  C   C24       1.0  0.9857199999999999  0.40016  0.53447  1.0000
  C   C25       1.0  0.3169699999999999  0.97846  0.23377000000000006  1.0000
  C   C26       1.0  0.3819399999999999  0.06005999999999999  0.17440000000000005  1.0000
  C   C27       1.0  0.50695  0.03256  0.09847  1.0000
  C   C28       1.0  0.56057  0.11088  0.04077  1.0000
  C   C29       1.0  0.49019  0.21767000000000003  0.059400000000000015  1.0000
  C   C30       1.0  0.3660999999999999  0.24488000000000004  0.13653  1.0000
  C   C31       1.0  0.31244999999999995  0.16657999999999998  0.19328000000000004  1.0000
  C   C32       1.0  0.54636  0.30107  0.9976100000000001  1.0000
  C   C33       1.0  0.0004899999999999888  0.9585  0.20147000000000007  1.0000
  C   C34       1.0  0.9975499999999999  0.9791300000000002  0.09830000000000001  1.0000
  C   C35       1.0  0.9175599999999999  0.07887  0.06311  1.0000
  C   C36       1.0  0.07968999999999998  0.90037  0.03458  1.0000
  C   C37       1.0  0.5282000000000001  0.52201  0.26673  1.0000
  C   C38       1.0  0.6155799999999998  0.44027  0.32577000000000006  1.0000
  C   C39       1.0  0.63743  0.4675800000000001  0.40177  1.0000
  C   C40       1.0  0.7116099999999997  0.38915  0.4593600000000001  1.0000
  C   C41       1.0  0.7664699999999998  0.28245000000000003  0.4404900000000001  1.0000
  C   C42       1.0  0.74672  0.25545  0.36312  1.0000
  C   C43       1.0  0.6713999999999999  0.33384  0.3065500000000001  1.0000
  C   C44       1.0  0.84388  0.19913000000000006  0.50248  1.0000
  C   C45       1.0  0.15882  0.5425  0.29843  1.0000
  C   C46       1.0  0.07429999999999995  0.5212100000000001  0.40168  1.0000
  C   C47       1.0  0.05940999999999991  0.42119000000000006  0.43675000000000014  1.0000
  C   C48       1.0  0.014259999999999926  0.5998400000000002  0.4655400000000001  1.0000
  O   O1        1.0  0.62916  0.11355000000000005  0.79569  1.0000
  O   O2        1.0  0.7875199999999999  0.9903600000000005  0.69207  1.0000
  O   O3        1.0  0.3533300000000001  0.71916  0.08199  1.0000
  O   O4        1.0  0.5023799999999998  0.6044600000000002  0.97697  1.0000
  O   O5        1.0  0.9184199999999999  0.12890999999999997  0.76897  1.0000
  O   O6        1.0  0.07769000000000001  0.9684600000000001  0.74131  1.0000
  O   O7        1.0  0.53812  0.38573  0.70421  1.0000
  O   O8        1.0  0.47253999999999996  0.50942  0.8068000000000002  1.0000
  O   O9        1.0  0.15636  0.7804700000000001  0.41769000000000006  1.0000
  O   O10       1.0  0.08474999999999998  0.8953499999999999  0.52292  1.0000
  O   O11       1.0  0.8174499999999999  0.37025  0.7306100000000002  1.0000
  O   O12       1.0  0.7904599999999999  0.52995  0.75931  1.0000
  O   O13       1.0  0.3708199999999998  0.8864600000000002  0.20432  1.0000
  O   O14       1.0  0.21247  0.00964  0.30793  1.0000
  O   O15       1.0  0.6466499999999997  0.28084  0.9180100000000002  1.0000
  O   O16       1.0  0.4976  0.39555  0.023030000000000002  1.0000
  O   O17       1.0  0.08156999999999998  0.8711  0.23103000000000004  1.0000
  O   O18       1.0  0.9223000000000001  0.03154000000000001  0.2587  1.0000
  O   O19       1.0  0.46186  0.61427  0.29579  1.0000
  O   O20       1.0  0.5274499999999999  0.49058  0.1932  1.0000
  O   O21       1.0  0.84362  0.21953  0.58231  1.0000
  O   O22       1.0  0.9152399999999998  0.10464999999999999  0.47708  1.0000
  O   O23       1.0  0.18253999999999992  0.6297500000000003  0.2694  1.0000
  O   O24       1.0  0.20953000000000002  0.47006  0.24069000000000004  1.0000
