data_image0
_chemical_formula_structural       La4H24C48O36
_chemical_formula_sum              "La4 H24 C48 O36"
_cell_length_a       7.48837
_cell_length_b       12.96554
_cell_length_c       15.88162
_cell_angle_alpha    114.01894999999999
_cell_angle_beta     99.64351
_cell_angle_gamma    90.00808

_space_group_name_H-M_alt    "P 1"
_space_group_IT_number       1

loop_
  _space_group_symop_operation_xyz
  'x, y, z'

loop_
  _atom_site_type_symbol
  _atom_site_label
  _atom_site_symmetry_multiplicity
  _atom_site_fract_x
  _atom_site_fract_y
  _atom_site_fract_z
  _atom_site_occupancy
  La  La1       1.0  0.7038299999999998  0.10340000000000006  0.80023  1.0000
  La  La2       1.0  0.79725  0.30391  0.19978000000000007  1.0000
  La  La3       1.0  0.29617  0.8966  0.19977000000000003  1.0000
  La  La4       1.0  0.20275  0.69609  0.80023  1.0000
  H   H1        1.0  0.8554500000000002  0.06005  0.60821  1.0000
  H   H2        1.0  0.47104000000000007  0.5796099999999998  0.34628  1.0000
  H   H3        1.0  0.7366600000000001  0.34473000000000004  0.7986600000000001  1.0000
  H   H4        1.0  0.63863  0.94659  0.46623  1.0000
  H   H5        1.0  0.72558  0.63988  0.57695  1.0000
  H   H6        1.0  0.14552  0.47438999999999987  0.14112  1.0000
  H   H7        1.0  0.64423  0.45231  0.39145  1.0000
  H   H8        1.0  0.029070000000000044  0.23273999999999995  0.6531200000000001  1.0000
  H   H9        1.0  0.7637  0.54654  0.20183  1.0000
  H   H10       1.0  0.85979  0.48017  0.53348  1.0000
  H   H11       1.0  0.77371  0.06327000000000008  0.4229400000000001  1.0000
  H   H12       1.0  0.35472  0.33343  0.85922  1.0000
  H   H13       1.0  0.14455  0.93995  0.39179  1.0000
  H   H14       1.0  0.52895  0.42039  0.65372  1.0000
  H   H15       1.0  0.26334000000000013  0.65527  0.20134000000000002  1.0000
  H   H16       1.0  0.36136  0.05340999999999999  0.53377  1.0000
  H   H17       1.0  0.27442  0.36011999999999994  0.42306  1.0000
  H   H18       1.0  0.8544700000000001  0.5256099999999998  0.85889  1.0000
  H   H19       1.0  0.35577  0.54769  0.60856  1.0000
  H   H20       1.0  0.97093  0.76726  0.34688  1.0000
  H   H21       1.0  0.23629999999999993  0.45346  0.79818  1.0000
  H   H22       1.0  0.14021  0.51983  0.46652  1.0000
  H   H23       1.0  0.22628  0.93673  0.57707  1.0000
  H   H24       1.0  0.64528  0.66657  0.14079  1.0000
  C   C1        1.0  0.77932  0.8161099999999998  0.61173  1.0000
  C   C2        1.0  0.75777  0.90323  0.57999  1.0000
  C   C3        1.0  0.66097  0.87981  0.49078  1.0000
  C   C4        1.0  0.58584  0.76973  0.43101  1.0000
  C   C5        1.0  0.6131  0.68184  0.46167  1.0000
  C   C6        1.0  0.7085000000000001  0.7060599999999999  0.55151  1.0000
  C   C7        1.0  0.87115  0.8373899999999999  0.70938  1.0000
  C   C8        1.0  0.47269  0.74726  0.33843  1.0000
  C   C9        1.0  0.99086  0.39187999999999995  0.00182  1.0000
  C   C10       1.0  0.90694  0.40676  0.92133  1.0000
  C   C11       1.0  0.0825  0.48608  0.07903  1.0000
  C   C12       1.0  0.97331  0.28251  0.011510000000000003  1.0000
  C   C13       1.0  0.71933  0.20458  0.38787  1.0000
  C   C14       1.0  0.74108  0.3233899999999999  0.41955000000000003  1.0000
  C   C15       1.0  0.8373800000000001  0.38892999999999994  0.50889  1.0000
  C   C16       1.0  0.91267  0.33865  0.56876  1.0000
  C   C17       1.0  0.88625  0.22015  0.53801  1.0000
  C   C18       1.0  0.79034  0.15479999999999997  0.4482500000000001  1.0000
  C   C19       1.0  0.6284300000000002  0.12853  0.28996  1.0000
  C   C20       1.0  0.02434000000000002  0.40919  0.66172  1.0000
  C   C21       1.0  0.50982  0.39016  0.99832  1.0000
  C   C22       1.0  0.59338  0.48547999999999997  0.07882  1.0000
  C   C23       1.0  0.41791  0.4072099999999999  0.92109  1.0000
  C   C24       1.0  0.52699  0.27094  0.98815  1.0000
  C   C25       1.0  0.22068  0.18389  0.38828  1.0000
  C   C26       1.0  0.24223000000000006  0.09677000000000008  0.4200100000000001  1.0000
  C   C27       1.0  0.33902  0.12018  0.50922  1.0000
  C   C28       1.0  0.41416  0.23025999999999994  0.56899  1.0000
  C   C29       1.0  0.3869  0.31816  0.53834  1.0000
  C   C30       1.0  0.2915  0.29394  0.4485000000000001  1.0000
  C   C31       1.0  0.12885  0.16259999999999997  0.29062  1.0000
  C   C32       1.0  0.52731  0.2527400000000001  0.6615700000000001  1.0000
  C   C33       1.0  0.009140000000000016  0.6081200000000001  0.9981900000000001  1.0000
  C   C34       1.0  0.09305  0.59324  0.07867  1.0000
  C   C35       1.0  0.9175  0.51392  0.9209700000000002  1.0000
  C   C36       1.0  0.026690000000000103  0.7174900000000002  0.9885000000000003  1.0000
  C   C37       1.0  0.28067  0.7954199999999998  0.61214  1.0000
  C   C38       1.0  0.25891  0.6766099999999998  0.58046  1.0000
  C   C39       1.0  0.16262000000000001  0.6110700000000001  0.4911100000000001  1.0000
  C   C40       1.0  0.08732999999999998  0.66135  0.43124  1.0000
  C   C41       1.0  0.11374000000000004  0.77985  0.4619900000000001  1.0000
  C   C42       1.0  0.20966  0.8452  0.55175  1.0000
  C   C43       1.0  0.37156000000000006  0.87147  0.7100500000000001  1.0000
  C   C44       1.0  0.9756600000000001  0.59081  0.33829  1.0000
  C   C45       1.0  0.49018  0.60984  0.00168  1.0000
  C   C46       1.0  0.40662  0.51452  0.92119  1.0000
  C   C47       1.0  0.58209  0.59279  0.07891  1.0000
  C   C48       1.0  0.47301  0.7290599999999998  0.011860000000000004  1.0000
  O   O1        1.0  0.85775  0.9311  0.77705  1.0000
  O   O2        1.0  0.9556  0.75632  0.71877  1.0000
  O   O3        1.0  0.40078  0.64556  0.28726  1.0000
  O   O4        1.0  0.44765  0.82872  0.31376  1.0000
  O   O5        1.0  0.83165  0.011220000000000029  0.64083  1.0000
  O   O6        1.0  0.54337  0.57336  0.40501000000000004  1.0000
  O   O7        1.0  0.92895  0.19002999999999998  0.93891  1.0000
  O   O8        1.0  0.99956  0.28708  0.09467000000000003  1.0000
  O   O9        1.0  0.8117400000000002  0.31768000000000013  0.8446500000000002  1.0000
  O   O10       1.0  0.6422  0.15587999999999994  0.2229  1.0000
  O   O11       1.0  0.54462  0.037359999999999983  0.27935  1.0000
  O   O12       1.0  0.09887000000000004  0.35887  0.7126200000000001  1.0000
  O   O13       1.0  0.04474000000000008  0.5155900000000001  0.6869200000000002  1.0000
  O   O14       1.0  0.66871  0.37103  0.35868  1.0000
  O   O15       1.0  0.957  0.16801  0.59443  1.0000
  O   O16       1.0  0.57178  0.25036  0.060440000000000015  1.0000
  O   O17       1.0  0.5001200000000002  0.19306000000000006  0.90469  1.0000
  O   O18       1.0  0.68834  0.47352  0.15590000000000004  1.0000
  O   O19       1.0  0.14225000000000002  0.06890000000000002  0.22296000000000002  1.0000
  O   O20       1.0  0.044400000000000044  0.24368000000000006  0.2812400000000001  1.0000
  O   O21       1.0  0.59922  0.3544399999999999  0.71274  1.0000
  O   O22       1.0  0.55235  0.17126999999999995  0.68624  1.0000
  O   O23       1.0  0.16835000000000003  0.98878  0.35917  1.0000
  O   O24       1.0  0.45661999999999997  0.42663999999999996  0.595  1.0000
  O   O25       1.0  0.07105  0.8099699999999999  0.0611  1.0000
  O   O26       1.0  0.0004400000000000317  0.71292  0.9053400000000001  1.0000
  O   O27       1.0  0.18826  0.68232  0.15536  1.0000
  O   O28       1.0  0.35779999999999995  0.8441199999999998  0.7771  1.0000
  O   O29       1.0  0.4553800000000001  0.9626400000000002  0.7206600000000002  1.0000
  O   O30       1.0  0.90113  0.64113  0.28739  1.0000
  O   O31       1.0  0.9552500000000002  0.48441000000000006  0.3130900000000001  1.0000
  O   O32       1.0  0.33129000000000014  0.62897  0.6413300000000002  1.0000
  O   O33       1.0  0.04299999999999999  0.83199  0.40558  1.0000
  O   O34       1.0  0.4282200000000001  0.7496399999999999  0.9395600000000002  1.0000
  O   O35       1.0  0.49988000000000005  0.8069399999999999  0.09531000000000003  1.0000
  O   O36       1.0  0.31165  0.52648  0.84411  1.0000
