data_image0
_chemical_formula_structural       Dy4H24C60N4O36
_chemical_formula_sum              "Dy4 H24 C60 N4 O36"
_cell_length_a       14.43844
_cell_length_b       14.360460000000002
_cell_length_c       15.202909999999997
_cell_angle_alpha    97.58833
_cell_angle_beta     116.21947000000002
_cell_angle_gamma    113.13194

_space_group_name_H-M_alt    "P 1"
_space_group_IT_number       1

loop_
  _space_group_symop_operation_xyz
  'x, y, z'

loop_
  _atom_site_type_symbol
  _atom_site_label
  _atom_site_symmetry_multiplicity
  _atom_site_fract_x
  _atom_site_fract_y
  _atom_site_fract_z
  _atom_site_occupancy
  Dy  Dy1       1.0  0.13004  0.11348999999999994  0.62228  1.0000
  Dy  Dy2       1.0  0.9920600000000004  0.50699  0.8773300000000002  1.0000
  Dy  Dy3       1.0  0.8700099999999998  0.8864599999999998  0.37814  1.0000
  Dy  Dy4       1.0  0.009370000000000009  0.49072  0.12462  1.0000
  H   H1        1.0  0.32024  0.25317  0.45453  1.0000
  H   H2        1.0  0.09944000000000007  0.9942  0.08616  1.0000
  H   H3        1.0  0.009379999999999975  0.95982  0.19533  1.0000
  H   H4        1.0  0.1952800000000001  0.28101  0.16266000000000005  1.0000
  H   H5        1.0  0.13232  0.34872  0.87987  1.0000
  H   H6        1.0  0.3050200000000002  0.16091000000000003  0.9729100000000003  1.0000
  H   H7        1.0  0.29890999999999995  0.8642499999999999  0.04659000000000001  1.0000
  H   H8        1.0  0.4092300000000001  0.013960000000000049  0.4148900000000001  1.0000
  H   H9        1.0  0.26516  0.8142099999999998  0.30657  1.0000
  H   H10       1.0  0.6216900000000002  0.03338  0.3378  1.0000
  H   H11       1.0  0.9703800000000002  0.25473  0.62016  1.0000
  H   H12       1.0  0.68845  0.33227  0.52768  1.0000
  H   H13       1.0  0.67945  0.7468399999999998  0.54572  1.0000
  H   H14       1.0  0.9015000000000001  0.003770000000000005  0.91505  1.0000
  H   H15       1.0  0.9907100000000004  0.0401  0.80558  1.0000
  H   H16       1.0  0.8040900000000002  0.71475  0.83781  1.0000
  H   H17       1.0  0.8689900000000003  0.6497  0.12177  1.0000
  H   H18       1.0  0.6970200000000002  0.83807  0.02886  1.0000
  H   H19       1.0  0.7008300000000002  0.13410999999999995  0.95388  1.0000
  H   H20       1.0  0.5903200000000002  0.98668  0.58511  1.0000
  H   H21       1.0  0.7354500000000003  0.18596000000000004  0.6945300000000002  1.0000
  H   H22       1.0  0.37939000000000017  0.96698  0.6626000000000001  1.0000
  H   H23       1.0  0.030139999999999948  0.7464999999999999  0.38012  1.0000
  H   H24       1.0  0.3105399999999999  0.6672399999999999  0.47217  1.0000
  C   C1        1.0  0.15738  0.10578  0.33063  1.0000
  C   C2        1.0  0.27036  0.19684  0.37365  1.0000
  C   C3        1.0  0.3179200000000001  0.21762999999999996  0.31128  1.0000
  C   C4        1.0  0.25466  0.14568999999999993  0.2064  1.0000
  C   C5        1.0  0.14529  0.05089  0.16625  1.0000
  C   C6        1.0  0.09608  0.03168  0.22716  1.0000
  C   C7        1.0  0.25497  0.21530999999999995  0.07541  1.0000
  C   C8        1.0  0.20374000000000003  0.27316999999999997  0.09494  1.0000
  C   C9        1.0  0.16217000000000006  0.32387  0.02634  1.0000
  C   C10       1.0  0.16787000000000013  0.31347  0.9363  1.0000
  C   C11       1.0  0.21891000000000016  0.25405000000000005  0.9177900000000002  1.0000
  C   C12       1.0  0.26512000000000024  0.20648000000000008  0.9880000000000002  1.0000
  C   C13       1.0  0.10049000000000001  0.08553  0.39303  1.0000
  C   C14       1.0  0.11213999999999996  0.3869999999999999  0.05360000000000001  1.0000
  C   C15       1.0  0.21480000000000002  0.23203  0.81735  1.0000
  C   C16       1.0  0.27613000000000004  0.8259099999999999  0.17108  1.0000
  C   C17       1.0  0.32396  0.8956799999999997  0.12759  1.0000
  C   C18       1.0  0.40750000000000003  0.005800000000000008  0.18965000000000004  1.0000
  C   C19       1.0  0.44136  0.047890000000000016  0.2948  1.0000
  C   C20       1.0  0.3862400000000002  0.97902  0.3351  1.0000
  C   C21       1.0  0.30562000000000006  0.8686299999999998  0.27448  1.0000
  C   C22       1.0  0.64187  0.17973  0.42544  1.0000
  C   C23       1.0  0.6809800000000001  0.10968000000000003  0.4056  1.0000
  C   C24       1.0  0.8003  0.13790000000000002  0.47416000000000014  1.0000
  C   C25       1.0  0.87902  0.23390999999999995  0.56404  1.0000
  C   C26       1.0  0.8375000000000002  0.30307  0.58248  1.0000
  C   C27       1.0  0.7195300000000001  0.27768  0.51268  1.0000
  C   C28       1.0  0.19340000000000004  0.7063  0.10903  1.0000
  C   C29       1.0  0.8373500000000001  0.06150000000000002  0.447  1.0000
  C   C30       1.0  0.9160800000000002  0.4008099999999999  0.68189  1.0000
  C   C31       1.0  0.8428600000000002  0.8939599999999998  0.67  1.0000
  C   C32       1.0  0.7299  0.80281  0.62687  1.0000
  C   C33       1.0  0.6825700000000002  0.7815099999999999  0.68933  1.0000
  C   C34       1.0  0.74645  0.8526499999999998  0.79468  1.0000
  C   C35       1.0  0.8555200000000002  0.94769  0.83472  1.0000
  C   C36       1.0  0.9042899999999999  0.9678  0.77362  1.0000
  C   C37       1.0  0.7462500000000003  0.78262  0.9258500000000001  1.0000
  C   C38       1.0  0.7963000000000001  0.72365  0.9059100000000001  1.0000
  C   C39       1.0  0.8380000000000002  0.6733  0.9749400000000001  1.0000
  C   C40       1.0  0.8329800000000003  0.68466  0.06529  1.0000
  C   C41       1.0  0.7822200000000002  0.7444399999999999  0.08379  1.0000
  C   C42       1.0  0.7363900000000002  0.79205  0.01347  1.0000
  C   C43       1.0  0.8997600000000001  0.9144799999999998  0.60767  1.0000
  C   C44       1.0  0.8879300000000004  0.60993  0.94758  1.0000
  C   C45       1.0  0.7861  0.7669899999999997  0.18408  1.0000
  C   C46       1.0  0.72468  0.17334  0.8299700000000001  1.0000
  C   C47       1.0  0.6762  0.10327000000000001  0.87295  1.0000
  C   C48       1.0  0.5925500000000001  0.9932700000000001  0.81053  1.0000
  C   C49       1.0  0.55882  0.95169  0.70533  1.0000
  C   C50       1.0  0.6138700000000002  0.020979999999999974  0.66524  1.0000
  C   C51       1.0  0.695  0.13119  0.7264  1.0000
  C   C52       1.0  0.35839999999999994  0.8202699999999998  0.57456  1.0000
  C   C53       1.0  0.31983  0.8907099999999999  0.5947  1.0000
  C   C54       1.0  0.20065000000000008  0.8629199999999999  0.52623  1.0000
  C   C55       1.0  0.12138999999999993  0.7669499999999998  0.43618  1.0000
  C   C56       1.0  0.16216000000000003  0.69715  0.41763000000000006  1.0000
  C   C57       1.0  0.28006  0.72224  0.48738  1.0000
  C   C58       1.0  0.80801  0.29266000000000003  0.8927600000000001  1.0000
  C   C59       1.0  0.16388  0.9393499999999998  0.55401  1.0000
  C   C60       1.0  0.08346000000000003  0.59895  0.31845  1.0000
  N   N1        1.0  0.43446999999999997  0.31798999999999994  0.35857  1.0000
  N   N2        1.0  0.45934000000000014  0.07495  0.14144  1.0000
  N   N3        1.0  0.5657500000000001  0.6813899999999998  0.64159  1.0000
  N   N4        1.0  0.54003  0.9237699999999998  0.85819  1.0000
  O   O1        1.0  0.9913100000000004  0.009050000000000037  0.3427900000000001  1.0000
  O   O2        1.0  0.16312  0.14396  0.49145  1.0000
  O   O3        1.0  0.5043100000000003  0.3517700000000001  0.4556600000000001  1.0000
  O   O4        1.0  0.4541000000000001  0.3619999999999999  0.29912  1.0000
  O   O5        1.0  0.10145999999999998  0.38767  0.13231  1.0000
  O   O6        1.0  0.07970000000000013  0.4417000000000001  0.9976000000000002  1.0000
  O   O7        1.0  0.14708999999999997  0.25044999999999995  0.74061  1.0000
  O   O8        1.0  0.2696799999999999  0.18548999999999993  0.80376  1.0000
  O   O9        1.0  0.29719000000000007  0.16312  0.14106  1.0000
  O   O10       1.0  0.16776  0.64746  0.1599  1.0000
  O   O11       1.0  0.15285  0.67062  0.010520000000000002  1.0000
  O   O12       1.0  0.3950700000000001  0.04849999999999999  0.04457  1.0000
  O   O13       1.0  0.56295  0.15329999999999996  0.20005  1.0000
  O   O14       1.0  0.7611800000000002  0.97384  0.36606  1.0000
  O   O15       1.0  0.9468200000000001  0.08368999999999994  0.50534  1.0000
  O   O16       1.0  0.013589999999999955  0.4124299999999999  0.75745  1.0000
  O   O17       1.0  0.8818800000000002  0.4680599999999999  0.69672  1.0000
  O   O18       1.0  0.5244800000000002  0.15608999999999995  0.35979  1.0000
  O   O19       1.0  0.008860000000000066  0.99104  0.6579700000000002  1.0000
  O   O20       1.0  0.8372299999999999  0.8561999999999999  0.5092  1.0000
  O   O21       1.0  0.4958500000000001  0.64816  0.54455  1.0000
  O   O22       1.0  0.54596  0.63694  0.70073  1.0000
  O   O23       1.0  0.8961500000000002  0.6078799999999998  0.8677300000000001  1.0000
  O   O24       1.0  0.92276  0.55673  0.00469  1.0000
  O   O25       1.0  0.8539700000000001  0.7491799999999997  0.26133  1.0000
  O   O26       1.0  0.7308300000000002  0.8134699999999998  0.19708  1.0000
  O   O27       1.0  0.7046000000000003  0.8352700000000001  0.8604900000000001  1.0000
  O   O28       1.0  0.83641  0.35174  0.84289  1.0000
  O   O29       1.0  0.8464400000000002  0.32845  0.9905700000000001  1.0000
  O   O30       1.0  0.6030900000000002  0.9503599999999998  0.9552100000000001  1.0000
  O   O31       1.0  0.43689999999999996  0.8448599999999998  0.79876  1.0000
  O   O32       1.0  0.24006000000000002  0.026949999999999988  0.63502  1.0000
  O   O33       1.0  0.054229999999999993  0.91689  0.49596  1.0000
  O   O34       1.0  0.9870499999999998  0.5878699999999999  0.24162  1.0000
  O   O35       1.0  0.11693000000000002  0.53055  0.30528  1.0000
  O   O36       1.0  0.47576000000000007  0.84361  0.63986  1.0000
