data_image0
_chemical_formula_structural       Co3H48C72N30
_chemical_formula_sum              "Co3 H48 C72 N30"
_cell_length_a       9.22648
_cell_length_b       16.05942
_cell_length_c       16.10689
_cell_angle_alpha    72.61384
_cell_angle_beta     74.3279
_cell_angle_gamma    75.98596

_space_group_name_H-M_alt    "P 1"
_space_group_IT_number       1

loop_
  _space_group_symop_operation_xyz
  'x, y, z'

loop_
  _atom_site_type_symbol
  _atom_site_label
  _atom_site_symmetry_multiplicity
  _atom_site_fract_x
  _atom_site_fract_y
  _atom_site_fract_z
  _atom_site_occupancy
  Co  Co1       1.0  0.49984  0.49949  0.00038  1.0000
  Co  Co2       1.0  0.9997899999999998  1.9999999999941685e-05  0.5001500000000002  1.0000
  Co  Co3       1.0  0.9999499999999999  0.5001  0.4997000000000001  1.0000
  H   H1        1.0  0.9585300000000001  0.67929  0.02397  1.0000
  H   H2        1.0  0.9470399999999998  0.7365600000000002  0.15604  1.0000
  H   H3        1.0  0.17605999999999983  0.6924  0.22626000000000004  1.0000
  H   H4        1.0  0.40776  0.5937400000000002  0.16132  1.0000
  H   H5        1.0  0.19050999999999993  0.3816400000000002  0.6336  1.0000
  H   H6        1.0  0.27612  0.38882999999999995  0.76557  1.0000
  H   H7        1.0  0.9735600000000001  0.6398300000000002  0.75889  1.0000
  H   H8        1.0  0.89989  0.62334  0.62675  1.0000
  H   H9        1.0  0.9448200000000001  0.002729999999999928  0.8223800000000002  1.0000
  H   H10       1.0  0.10290999999999989  0.11984999999999994  0.7959100000000002  1.0000
  H   H11       1.0  0.21966000000000005  0.19252  0.63689  1.0000
  H   H12       1.0  0.17789  0.14263000000000012  0.51347  1.0000
  H   H13       1.0  0.6318  0.65116  0.00605  1.0000
  H   H14       1.0  0.74186  0.78352  0.9062700000000002  1.0000
  H   H15       1.0  0.6460999999999997  0.7221600000000001  0.6856900000000002  1.0000
  H   H16       1.0  0.5405  0.59268  0.79349  1.0000
  H   H17       1.0  0.4741  0.42150999999999994  0.65189  1.0000
  H   H18       1.0  0.55094  0.25416  0.6864  1.0000
  H   H19       1.0  0.82801  0.18915  0.64162  1.0000
  H   H20       1.0  0.016219999999999988  0.29257  0.56395  1.0000
  H   H21       1.0  0.3566399999999998  0.9723200000000003  0.45335  1.0000
  H   H22       1.0  0.5809  0.85146  0.4670400000000001  1.0000
  H   H23       1.0  0.26688999999999996  0.66902  0.60114  1.0000
  H   H24       1.0  0.05386999999999991  0.7977300000000003  0.58466  1.0000
  H   H25       1.0  0.04133999999999986  0.32082000000000016  0.9759500000000002  1.0000
  H   H26       1.0  0.05326999999999991  0.26363999999999993  0.8437500000000002  1.0000
  H   H27       1.0  0.82416  0.30749000000000015  0.77365  1.0000
  H   H28       1.0  0.5922300000000003  0.4059200000000002  0.83874  1.0000
  H   H29       1.0  0.80939  0.6185  0.3662300000000001  1.0000
  H   H30       1.0  0.7236499999999999  0.6113200000000002  0.23429  1.0000
  H   H31       1.0  0.026399999999999996  0.36018  0.24099  1.0000
  H   H32       1.0  0.09994000000000003  0.37678  0.37312  1.0000
  H   H33       1.0  0.055309999999999734  0.9972000000000003  0.17781000000000005  1.0000
  H   H34       1.0  0.89749  0.88002  0.20426000000000005  1.0000
  H   H35       1.0  0.77993  0.80764  0.36317  1.0000
  H   H36       1.0  0.82165  0.85745  0.4866400000000001  1.0000
  H   H37       1.0  0.36794000000000016  0.34854999999999997  0.9940700000000002  1.0000
  H   H38       1.0  0.25821999999999995  0.21615  0.09394000000000002  1.0000
  H   H39       1.0  0.3540399999999999  0.27782  0.31443  1.0000
  H   H40       1.0  0.4594300000000001  0.40733  0.20642000000000005  1.0000
  H   H41       1.0  0.5258800000000002  0.5784899999999998  0.3481500000000001  1.0000
  H   H42       1.0  0.4493099999999999  0.7458700000000003  0.31369  1.0000
  H   H43       1.0  0.17213999999999993  0.8109900000000002  0.35827  1.0000
  H   H44       1.0  0.9838000000000001  0.7075600000000001  0.43586000000000014  1.0000
  H   H45       1.0  0.6432000000000001  0.027760000000000003  0.54685  1.0000
  H   H46       1.0  0.41889  0.14855000000000007  0.53295  1.0000
  H   H47       1.0  0.7330099999999999  0.33101  0.39874  1.0000
  H   H48       1.0  0.94596  0.20226999999999998  0.4155300000000001  1.0000
  C   C1        1.0  0.1878699999999999  0.5264700000000002  0.84427  1.0000
  C   C2        1.0  0.20644999999999994  0.57006  0.9506000000000002  1.0000
  C   C3        1.0  0.18799999999999997  0.60827  0.024610000000000007  1.0000
  C   C4        1.0  0.05456000000000002  0.66328  0.0565  1.0000
  C   C5        1.0  0.04958999999999993  0.6942400000000002  0.12941  1.0000
  C   C6        1.0  0.17646  0.66979  0.16888000000000006  1.0000
  C   C7        1.0  0.3052999999999999  0.6148600000000002  0.13348  1.0000
  C   C8        1.0  0.14584999999999995  0.43791000000000024  0.66299  1.0000
  C   C9        1.0  0.19364000000000006  0.44231  0.73576  1.0000
  C   C10       1.0  0.13457999999999992  0.51657  0.7713600000000003  1.0000
  C   C11       1.0  0.024049999999999974  0.582  0.7324  1.0000
  C   C12       1.0  0.9830500000000001  0.5728300000000003  0.65925  1.0000
  C   C13       1.0  0.77347  0.8395699999999999  0.73069  1.0000
  C   C14       1.0  0.89273  0.94574  0.6904100000000002  1.0000
  C   C15       1.0  0.9805900000000001  0.012239999999999994  0.68261  1.0000
  C   C16       1.0  0.9994999999999999  0.03557  0.75573  1.0000
  C   C17       1.0  0.08728999999999992  0.10018999999999993  0.7402300000000003  1.0000
  C   C18       1.0  0.15374000000000004  0.13988  0.65262  1.0000
  C   C19       1.0  0.13009000000000004  0.11325999999999999  0.58314  1.0000
  C   C20       1.0  0.6360000000000002  0.66943  0.9348900000000002  1.0000
  C   C21       1.0  0.6966099999999997  0.74279  0.8797400000000002  1.0000
  C   C22       1.0  0.7026400000000003  0.76435  0.7877900000000002  1.0000
  C   C23       1.0  0.6444099999999998  0.70926  0.7562000000000002  1.0000
  C   C24       1.0  0.5858700000000002  0.63654  0.81624  1.0000
  C   C25       1.0  0.56484  0.6709  0.54115  1.0000
  C   C26       1.0  0.6699899999999998  0.5372100000000002  0.5682200000000002  1.0000
  C   C27       1.0  0.7043900000000001  0.44136  0.5922700000000002  1.0000
  C   C28       1.0  0.5919799999999998  0.38868  0.6351900000000003  1.0000
  C   C29       1.0  0.63569  0.29705  0.6537  1.0000
  C   C30       1.0  0.78995  0.26045  0.6288400000000002  1.0000
  C   C31       1.0  0.8950999999999997  0.3172500000000001  0.58574  1.0000
  C   C32       1.0  0.3410399999999999  0.9043000000000001  0.4863800000000001  1.0000
  C   C33       1.0  0.46648000000000006  0.83609  0.4938  1.0000
  C   C34       1.0  0.44304  0.7485100000000001  0.53477  1.0000
  C   C35       1.0  0.2906199999999998  0.73563  0.5689900000000002  1.0000
  C   C36       1.0  0.1721499999999999  0.80723  0.5593400000000001  1.0000
  C   C37       1.0  0.81186  0.47345  0.15564000000000006  1.0000
  C   C38       1.0  0.7932900000000002  0.42983  0.049340000000000016  1.0000
  C   C39       1.0  0.81189  0.3916899999999999  0.9752800000000003  1.0000
  C   C40       1.0  0.94538  0.33674999999999994  0.9434200000000003  1.0000
  C   C41       1.0  0.95058  0.3058199999999999  0.87045  1.0000
  C   C42       1.0  0.8237100000000002  0.33014000000000004  0.8310100000000001  1.0000
  C   C43       1.0  0.69472  0.38490999999999986  0.8665100000000002  1.0000
  C   C44       1.0  0.85393  0.56223  0.3368  1.0000
  C   C45       1.0  0.8060799999999999  0.55775  0.26407  1.0000
  C   C46       1.0  0.86508  0.48341000000000006  0.22855000000000006  1.0000
  C   C47       1.0  0.9757399999999998  0.41801999999999995  0.2674700000000001  1.0000
  C   C48       1.0  0.016779999999999986  0.42726  0.34059  1.0000
  C   C49       1.0  0.22652000000000003  0.16034  0.26957  1.0000
  C   C50       1.0  0.10717  0.05421999999999999  0.30984000000000006  1.0000
  C   C51       1.0  0.019620000000000026  0.98759  0.31761  1.0000
  C   C52       1.0  0.0006500000000000032  0.96435  0.24445  1.0000
  C   C53       1.0  0.91302  0.89967  0.25995  1.0000
  C   C54       1.0  0.8462499999999998  0.8600800000000001  0.34751  1.0000
  C   C55       1.0  0.8697800000000001  0.88672  0.4170000000000001  1.0000
  C   C56       1.0  0.36384999999999995  0.3302900000000001  0.06522  1.0000
  C   C57       1.0  0.30325  0.25699  0.12047000000000002  1.0000
  C   C58       1.0  0.29719000000000007  0.23558000000000004  0.21243  1.0000
  C   C59       1.0  0.35552  0.2906900000000001  0.24393000000000006  1.0000
  C   C60       1.0  0.4140799999999999  0.3633500000000001  0.18382  1.0000
  C   C61       1.0  0.43494999999999984  0.32917  0.45878000000000013  1.0000
  C   C62       1.0  0.3299200000000001  0.46287999999999996  0.43166000000000004  1.0000
  C   C63       1.0  0.29557  0.55873  0.40767  1.0000
  C   C64       1.0  0.40803000000000006  0.6113800000000003  0.36484  1.0000
  C   C65       1.0  0.36445  0.70303  0.3463400000000001  1.0000
  C   C66       1.0  0.21015999999999999  0.73966  0.37113  1.0000
  C   C67       1.0  0.10493999999999991  0.6828800000000003  0.4141100000000001  1.0000
  C   C68       1.0  0.65873  0.09575999999999998  0.51364  1.0000
  C   C69       1.0  0.5333000000000002  0.16398  0.50623  1.0000
  C   C70       1.0  0.5567399999999999  0.25154  0.4651500000000001  1.0000
  C   C71       1.0  0.7092000000000004  0.26443  0.43101  1.0000
  C   C72       1.0  0.8276500000000002  0.19280999999999998  0.4406600000000001  1.0000
  N   N1        1.0  0.33727000000000007  0.51165  0.93093  1.0000
  N   N2        1.0  0.3258599999999999  0.48249999999999993  0.8627800000000002  1.0000
  N   N3        1.0  0.10983000000000008  0.58216  0.89712  1.0000
  N   N4        1.0  0.31196  0.5846300000000002  0.06278  1.0000
  N   N5        1.0  0.043620000000000075  0.50254  0.62338  1.0000
  N   N6        1.0  0.8725399999999999  0.9324900000000003  0.61482  1.0000
  N   N7        1.0  0.7955400000000001  0.8636899999999998  0.6402900000000002  1.0000
  N   N8        1.0  0.83181  0.88951  0.7646  1.0000
  N   N9        1.0  0.04551000000000001  0.05073  0.59724  1.0000
  N   N10       1.0  0.5812399999999999  0.6159  0.90457  1.0000
  N   N11       1.0  0.7844600000000003  0.58465  0.5252000000000001  1.0000
  N   N12       1.0  0.7170399999999999  0.6718200000000002  0.5070700000000002  1.0000
  N   N13       1.0  0.5312700000000001  0.5881  0.57993  1.0000
  N   N14       1.0  0.8541799999999999  0.40603999999999996  0.5676900000000002  1.0000
  N   N15       1.0  0.19456999999999997  0.89127  0.51798  1.0000
  N   N16       1.0  0.66237  0.4881200000000001  0.06912  1.0000
  N   N17       1.0  0.6737300000000004  0.51727  0.13727  1.0000
  N   N18       1.0  0.8899800000000001  0.4178200000000001  0.10274000000000003  1.0000
  N   N19       1.0  0.6877600000000001  0.41501999999999994  0.9373300000000002  1.0000
  N   N20       1.0  0.9562800000000001  0.49763  0.37634000000000006  1.0000
  N   N21       1.0  0.12736000000000006  0.06745  0.38544  1.0000
  N   N22       1.0  0.2045500000000001  0.13616  0.35996  1.0000
  N   N23       1.0  0.16820999999999997  0.11038999999999999  0.23565000000000005  1.0000
  N   N24       1.0  0.95409  0.94936  0.40295  1.0000
  N   N25       1.0  0.4184800000000001  0.38389  0.09552  1.0000
  N   N26       1.0  0.21538999999999994  0.4154900000000001  0.4746300000000001  1.0000
  N   N27       1.0  0.2826799999999999  0.3283000000000001  0.4927300000000001  1.0000
  N   N28       1.0  0.46860000000000007  0.4119399999999999  0.41993  1.0000
  N   N29       1.0  0.14572999999999994  0.5940800000000003  0.4320700000000001  1.0000
  N   N30       1.0  0.8052  0.1088  0.48218  1.0000
