data_image0
_chemical_formula_structural       Na12Zn6H24C72O60
_chemical_formula_sum              "Na12 Zn6 H24 C72 O60"
_cell_length_a       15.74578
_cell_length_b       17.81975
_cell_length_c       17.82017
_cell_angle_alpha    112.44461
_cell_angle_beta     107.15446
_cell_angle_gamma    107.15629

_space_group_name_H-M_alt    "P 1"
_space_group_IT_number       1

loop_
  _space_group_symop_operation_xyz
  'x, y, z'

loop_
  _atom_site_type_symbol
  _atom_site_label
  _atom_site_symmetry_multiplicity
  _atom_site_fract_x
  _atom_site_fract_y
  _atom_site_fract_z
  _atom_site_occupancy
  Na  Na1       1.0  0.91656  0.66284  0.32951  1.0000
  Na  Na2       1.0  0.7709  0.52277  0.0455  1.0000
  Na  Na3       1.0  0.5834400000000002  0.6705  0.33717  1.0000
  Na  Na4       1.0  0.7291  0.95451  0.4772300000000001  1.0000
  Na  Na5       1.0  0.25  0.66289  0.33712  1.0000
  Na  Na6       1.0  0.25  0.52274  0.47726  1.0000
  Na  Na7       1.0  0.08343999999999999  0.33717  0.67049  1.0000
  Na  Na8       1.0  0.22910000000000003  0.47722999999999993  0.95451  1.0000
  Na  Na9       1.0  0.41656000000000004  0.32951000000000014  0.6628300000000001  1.0000
  Na  Na10      1.0  0.2709000000000001  0.04549999999999999  0.52277  1.0000
  Na  Na11      1.0  0.7500000000000002  0.3371200000000001  0.6628800000000002  1.0000
  Na  Na12      1.0  0.7500000000000001  0.47725999999999996  0.52274  1.0000
  Zn  Zn1       1.0  0.14944999999999994  0.79751  0.40144  1.0000
  Zn  Zn2       1.0  0.7499900000000002  0.60087  0.39906000000000014  1.0000
  Zn  Zn3       1.0  0.35055  0.59855  0.20249  1.0000
  Zn  Zn4       1.0  0.8505500000000003  0.20250000000000004  0.59856  1.0000
  Zn  Zn5       1.0  0.2500100000000001  0.3991400000000002  0.6009400000000003  1.0000
  Zn  Zn6       1.0  0.64946  0.40145  0.79751  1.0000
  H   H1        1.0  0.08745000000000012  0.6072500000000001  0.9424300000000002  1.0000
  H   H2        1.0  0.19402  0.70122  0.1324  1.0000
  H   H3        1.0  0.14630000000000004  0.06266999999999998  0.66685  1.0000
  H   H4        1.0  0.06333000000000004  0.87309  0.5744000000000001  1.0000
  H   H5        1.0  0.47872  0.33397  0.39328  1.0000
  H   H6        1.0  0.49085  0.42733000000000004  0.29982  1.0000
  H   H7        1.0  0.3537  0.33316000000000007  0.93733  1.0000
  H   H8        1.0  0.43665999999999994  0.4256  0.12691  1.0000
  H   H9        1.0  0.02127999999999997  0.60673  0.66603  1.0000
  H   H10       1.0  0.009150000000000016  0.70019  0.5726700000000001  1.0000
  H   H11       1.0  0.4125499999999999  0.05758  0.39276  1.0000
  H   H12       1.0  0.3059800000000002  0.8676  0.2987800000000001  1.0000
  H   H13       1.0  0.91255  0.39276000000000005  0.05757000000000002  1.0000
  H   H14       1.0  0.8059800000000003  0.29879000000000017  0.8676000000000003  1.0000
  H   H15       1.0  0.8537  0.93733  0.33316  1.0000
  H   H16       1.0  0.9366700000000002  0.12692  0.42561  1.0000
  H   H17       1.0  0.52128  0.66604  0.60673  1.0000
  H   H18       1.0  0.50915  0.57267  0.70018  1.0000
  H   H19       1.0  0.6463000000000002  0.66685  0.06267  1.0000
  H   H20       1.0  0.56334  0.5744  0.8731  1.0000
  H   H21       1.0  0.9787200000000004  0.39327000000000006  0.33397000000000004  1.0000
  H   H22       1.0  0.9908500000000002  0.2998200000000001  0.4273300000000001  1.0000
  H   H23       1.0  0.58745  0.94243  0.60724  1.0000
  H   H24       1.0  0.69402  0.13241  0.70122  1.0000
  C   C1        1.0  0.04894000000000001  0.67111  0.21157  1.0000
  C   C2        1.0  0.86542  0.50626  0.88364  1.0000
  C   C3        1.0  0.9596500000000002  0.5688400000000001  0.9696700000000003  1.0000
  C   C4        1.0  0.05929000000000015  0.6116800000000001  0.9918700000000003  1.0000
  C   C5        1.0  0.11378000000000002  0.66043  0.08920000000000003  1.0000
  C   C6        1.0  0.04445000000000001  0.64439  0.12099  1.0000
  C   C7        1.0  0.83761  0.79038  0.46238  1.0000
  C   C8        1.0  0.98224  0.11859  0.61947  1.0000
  C   C9        1.0  0.9905300000000001  0.03342999999999999  0.59882  1.0000
  C   C10       1.0  0.06835000000000001  0.012530000000000034  0.62158  1.0000
  C   C11       1.0  0.025749999999999964  0.91526  0.57468  1.0000
  C   C12       1.0  0.9241  0.88195  0.5255  1.0000
  C   C13       1.0  0.37520000000000003  0.5371500000000001  0.3294800000000001  1.0000
  C   C14       1.0  0.35947  0.37862  0.49494  1.0000
  C   C15       1.0  0.3893100000000001  0.39999  0.43158  1.0000
  C   C16       1.0  0.44573000000000007  0.3785000000000001  0.3887800000000001  1.0000
  C   C17       1.0  0.45129  0.42588  0.3402  1.0000
  C   C18       1.0  0.39795  0.47391000000000005  0.35601  1.0000
  C   C19       1.0  0.6623800000000002  0.53762  0.2096  1.0000
  C   C20       1.0  0.51776  0.38053000000000003  0.88141  1.0000
  C   C21       1.0  0.5094700000000001  0.40119000000000016  0.9665700000000003  1.0000
  C   C22       1.0  0.4316500000000001  0.37842000000000015  0.9874700000000002  1.0000
  C   C23       1.0  0.47425  0.42532  0.08473000000000003  1.0000
  C   C24       1.0  0.5759  0.47450000000000003  0.11804000000000003  1.0000
  C   C25       1.0  0.12480000000000005  0.67052  0.4628500000000001  1.0000
  C   C26       1.0  0.14053000000000004  0.5050800000000001  0.62139  1.0000
  C   C27       1.0  0.11068000000000003  0.56843  0.60001  1.0000
  C   C28       1.0  0.05427000000000007  0.6112300000000002  0.6215000000000002  1.0000
  C   C29       1.0  0.04871000000000006  0.65981  0.5741200000000002  1.0000
  C   C30       1.0  0.10205000000000002  0.644  0.52609  1.0000
  C   C31       1.0  0.45106  0.78843  0.32889  1.0000
  C   C32       1.0  0.63459  0.11637000000000006  0.49375000000000013  1.0000
  C   C33       1.0  0.54035  0.030340000000000023  0.43117  1.0000
  C   C34       1.0  0.44072  0.008130000000000002  0.38833  1.0000
  C   C35       1.0  0.38622  0.91081  0.33957  1.0000
  C   C36       1.0  0.45555  0.87901  0.35561  1.0000
  C   C37       1.0  0.9510700000000001  0.32890000000000014  0.7884300000000002  1.0000
  C   C38       1.0  0.13458  0.49374  0.11636000000000002  1.0000
  C   C39       1.0  0.040349999999999976  0.43116  0.03034  1.0000
  C   C40       1.0  0.94071  0.38833  0.00813  1.0000
  C   C41       1.0  0.88622  0.33958  0.9108  1.0000
  C   C42       1.0  0.9555500000000001  0.3556200000000001  0.8790100000000002  1.0000
  C   C43       1.0  0.16238999999999998  0.20962  0.53763  1.0000
  C   C44       1.0  0.017759999999999963  0.8814100000000001  0.38053  1.0000
  C   C45       1.0  0.009470000000000036  0.96658  0.40119  1.0000
  C   C46       1.0  0.9316500000000002  0.9874700000000001  0.37842  1.0000
  C   C47       1.0  0.97425  0.08474000000000001  0.42532  1.0000
  C   C48       1.0  0.0759  0.11806000000000001  0.4745  1.0000
  C   C49       1.0  0.6248  0.46285  0.67052  1.0000
  C   C50       1.0  0.6405300000000003  0.62138  0.50507  1.0000
  C   C51       1.0  0.61069  0.60001  0.56842  1.0000
  C   C52       1.0  0.55428  0.6215  0.61122  1.0000
  C   C53       1.0  0.5487100000000001  0.57413  0.6598  1.0000
  C   C54       1.0  0.60206  0.52609  0.64399  1.0000
  C   C55       1.0  0.33762  0.4623900000000001  0.7904  1.0000
  C   C56       1.0  0.48224000000000006  0.61947  0.11859000000000001  1.0000
  C   C57       1.0  0.49052999999999997  0.59882  0.03343  1.0000
  C   C58       1.0  0.56835  0.62159  0.01254  1.0000
  C   C59       1.0  0.5257600000000001  0.5746900000000003  0.9152700000000003  1.0000
  C   C60       1.0  0.42411000000000004  0.52551  0.88196  1.0000
  C   C61       1.0  0.8752  0.32948  0.53715  1.0000
  C   C62       1.0  0.85947  0.4949300000000001  0.3786200000000001  1.0000
  C   C63       1.0  0.88932  0.4315800000000001  0.39999  1.0000
  C   C64       1.0  0.94573  0.3887700000000001  0.3785000000000001  1.0000
  C   C65       1.0  0.95129  0.34019  0.42588000000000004  1.0000
  C   C66       1.0  0.8979500000000001  0.35601000000000005  0.4739100000000001  1.0000
  C   C67       1.0  0.5489400000000001  0.2115700000000001  0.6711100000000001  1.0000
  C   C68       1.0  0.36542  0.8836400000000001  0.50625  1.0000
  C   C69       1.0  0.4596500000000001  0.9696600000000002  0.5688400000000002  1.0000
  C   C70       1.0  0.55929  0.99187  0.61167  1.0000
  C   C71       1.0  0.6137800000000002  0.08920000000000003  0.66043  1.0000
  C   C72       1.0  0.54445  0.12099  0.64439  1.0000
  O   O1        1.0  0.13866  0.72722  0.28009  1.0000
  O   O2        1.0  0.96937  0.64046  0.21623000000000006  1.0000
  O   O3        1.0  0.7865800000000001  0.4882100000000002  0.8973500000000002  1.0000
  O   O4        1.0  0.8665900000000001  0.4753200000000001  0.8086600000000002  1.0000
  O   O5        1.0  0.9499  0.58905  0.048430000000000015  1.0000
  O   O6        1.0  0.85956  0.72299  0.45085  1.0000
  O   O7        1.0  0.75258  0.78436  0.42697  1.0000
  O   O8        1.0  0.88926  0.10395999999999996  0.58517  1.0000
  O   O9        1.0  0.05872999999999997  0.19371999999999995  0.66369  1.0000
  O   O10       1.0  0.90168  0.95362  0.5404  1.0000
  O   O11       1.0  0.40831000000000006  0.54874  0.27361  1.0000
  O   O12       1.0  0.32668000000000014  0.57291  0.36065  1.0000
  O   O13       1.0  0.30048  0.41216  0.51489  1.0000
  O   O14       1.0  0.3915400000000001  0.33459  0.52484  1.0000
  O   O15       1.0  0.35915000000000014  0.4580400000000001  0.4113400000000001  1.0000
  O   O16       1.0  0.64042  0.54913  0.27698  1.0000
  O   O17       1.0  0.7474200000000001  0.57303  0.21564000000000005  1.0000
  O   O18       1.0  0.6107500000000001  0.41484  0.89605  1.0000
  O   O19       1.0  0.44128000000000017  0.3363100000000001  0.8062800000000002  1.0000
  O   O20       1.0  0.59832  0.4596  0.04637  1.0000
  O   O21       1.0  0.09169000000000008  0.7264000000000002  0.45126  1.0000
  O   O22       1.0  0.17332  0.63935  0.42709  1.0000
  O   O23       1.0  0.19952000000000006  0.48513  0.58785  1.0000
  O   O24       1.0  0.10847  0.47517000000000004  0.66542  1.0000
  O   O25       1.0  0.14084000000000005  0.58867  0.54196  1.0000
  O   O26       1.0  0.36134  0.71991  0.27278  1.0000
  O   O27       1.0  0.53063  0.7837700000000001  0.35954000000000014  1.0000
  O   O28       1.0  0.71342  0.10266000000000002  0.5118  1.0000
  O   O29       1.0  0.63342  0.19135  0.52469  1.0000
  O   O30       1.0  0.5500999999999999  0.9515799999999999  0.41096  1.0000
  O   O31       1.0  0.8613400000000001  0.2727900000000001  0.7199100000000003  1.0000
  O   O32       1.0  0.030630000000000063  0.35955000000000004  0.7837700000000001  1.0000
  O   O33       1.0  0.21342000000000005  0.5118  0.10266000000000003  1.0000
  O   O34       1.0  0.13341000000000003  0.52468  0.19134000000000007  1.0000
  O   O35       1.0  0.050100000000000165  0.41096000000000016  0.9515700000000002  1.0000
  O   O36       1.0  0.14044000000000015  0.2770100000000001  0.5491500000000002  1.0000
  O   O37       1.0  0.24742000000000006  0.21565000000000006  0.5730400000000001  1.0000
  O   O38       1.0  0.11075000000000003  0.89605  0.41483  1.0000
  O   O39       1.0  0.94127  0.80628  0.33631  1.0000
  O   O40       1.0  0.09832  0.046379999999999984  0.4596  1.0000
  O   O41       1.0  0.59169  0.45127  0.72639  1.0000
  O   O42       1.0  0.67333  0.4270900000000001  0.63936  1.0000
  O   O43       1.0  0.69952  0.58784  0.48511  1.0000
  O   O44       1.0  0.60847  0.66542  0.47516  1.0000
  O   O45       1.0  0.64085  0.54196  0.58867  1.0000
  O   O46       1.0  0.35958  0.45088  0.72302  1.0000
  O   O47       1.0  0.2525900000000001  0.42698  0.78436  1.0000
  O   O48       1.0  0.38925  0.58517  0.10396  1.0000
  O   O49       1.0  0.55873  0.66369  0.19372000000000006  1.0000
  O   O50       1.0  0.4016900000000002  0.5404100000000002  0.9536300000000002  1.0000
  O   O51       1.0  0.9083200000000002  0.27361  0.54874  1.0000
  O   O52       1.0  0.82668  0.36065  0.57291  1.0000
  O   O53       1.0  0.80048  0.51488  0.41215  1.0000
  O   O54       1.0  0.89153  0.52483  0.33458  1.0000
  O   O55       1.0  0.8591600000000006  0.41133000000000003  0.45804  1.0000
  O   O56       1.0  0.6386600000000001  0.2801  0.72722  1.0000
  O   O57       1.0  0.46937  0.2162400000000001  0.6404600000000003  1.0000
  O   O58       1.0  0.28658000000000006  0.8973400000000001  0.4882  1.0000
  O   O59       1.0  0.3665900000000001  0.80865  0.4753100000000001  1.0000
  O   O60       1.0  0.4499  0.04842999999999999  0.58904  1.0000
