data_image0
_chemical_formula_structural       Cd2H72C64Br4N24O8
_chemical_formula_sum              "Cd2 H72 C64 Br4 N24 O8"
_cell_length_a       10.01415
_cell_length_b       16.36576
_cell_length_c       17.063060000000004
_cell_angle_alpha    99.09524
_cell_angle_beta     107.05842000000001
_cell_angle_gamma    89.85714

_space_group_name_H-M_alt    "P 1"
_space_group_IT_number       1

loop_
  _space_group_symop_operation_xyz
  'x, y, z'

loop_
  _atom_site_type_symbol
  _atom_site_label
  _atom_site_symmetry_multiplicity
  _atom_site_fract_x
  _atom_site_fract_y
  _atom_site_fract_z
  _atom_site_occupancy
  Cd  Cd1       1.0  0.0  0.0  0.0  1.0000
  Cd  Cd2       1.0  0.0  0.5  0.0  1.0000
  H   H1        1.0  0.19381  0.15805  0.02249  1.0000
  H   H2        1.0  0.91678  0.12346999999999998  0.15403999999999995  1.0000
  H   H3        1.0  0.002129999999999996  0.25578  0.25325  1.0000
  H   H4        1.0  0.28661999999999993  0.29269  0.11372  1.0000
  H   H5        1.0  0.42034  0.55626  0.37302  1.0000
  H   H6        1.0  0.37788999999999995  0.49188999999999994  0.27632999999999996  1.0000
  H   H7        1.0  0.51238  0.41276  0.42933  1.0000
  H   H8        1.0  0.5329  0.38685  0.33109  1.0000
  H   H9        1.0  0.4134999999999999  0.4333799999999999  0.506  1.0000
  H   H10       1.0  0.24480999999999997  0.40525  0.50951  1.0000
  H   H11       1.0  0.13197  0.5036999999999998  0.42931  1.0000
  H   H12       1.0  0.28575999999999996  0.5674699999999998  0.45111  1.0000
  H   H13       1.0  0.96916  0.51502  0.30319  1.0000
  H   H14       1.0  0.5953099999999999  0.4022  0.11823999999999997  1.0000
  H   H15       1.0  0.71896  0.40573  0.01156  1.0000
  H   H16       1.0  0.07878  0.51198  0.1891  1.0000
  H   H17       1.0  0.25914  0.3962399999999999  0.2147  1.0000
  H   H18       1.0  0.59816  0.4413000000000001  0.25455  1.0000
  H   H19       1.0  0.17208  0.3414199999999999  0.97774  1.0000
  H   H20       1.0  0.7630600000000001  0.37694999999999995  0.84679  1.0000
  H   H21       1.0  0.7487099999999999  0.24474  0.74754  1.0000
  H   H22       1.0  0.17289999999999991  0.20636999999999994  0.8862299999999997  1.0000
  H   H23       1.0  0.04796999999999986  0.94389  0.6265999999999998  1.0000
  H   H24       1.0  0.10206999999999997  0.007949999999999997  0.72342  1.0000
  H   H25       1.0  0.08234000000000001  0.08758  0.57045  1.0000
  H   H26       1.0  0.20086999999999997  0.11325999999999997  0.66856  1.0000
  H   H27       1.0  0.9071399999999998  0.06705  0.49411  1.0000
  H   H28       1.0  0.7348200000000001  0.09508  0.49046  1.0000
  H   H29       1.0  0.7027999999999999  0.9975  0.5712999999999998  1.0000
  H   H30       1.0  0.83427  0.93294  0.54929  1.0000
  H   H31       1.0  0.66586  0.98442  0.69659  1.0000
  H   H32       1.0  0.47622999999999993  0.09801999999999997  0.88163  1.0000
  H   H33       1.0  0.7066199999999999  0.09473000000000002  0.98804  1.0000
  H   H34       1.0  0.88923  0.9878699999999999  0.81051  1.0000
  H   H35       1.0  0.04450000000000001  0.10339999999999999  0.7867  1.0000
  H   H36       1.0  0.34327  0.05888  0.74542  1.0000
  H   H37       1.0  0.8062  0.8419499999999998  0.97751  1.0000
  H   H38       1.0  0.0832299999999999  0.87653  0.84596  1.0000
  H   H39       1.0  0.9978799999999999  0.74422  0.74675  1.0000
  H   H40       1.0  0.7133899999999997  0.7073199999999997  0.8862799999999997  1.0000
  H   H41       1.0  0.57967  0.44375000000000003  0.62699  1.0000
  H   H42       1.0  0.62212  0.50812  0.72368  1.0000
  H   H43       1.0  0.48762999999999995  0.58724  0.57067  1.0000
  H   H44       1.0  0.46711  0.61315  0.66891  1.0000
  H   H45       1.0  0.5865099999999999  0.56662  0.494  1.0000
  H   H46       1.0  0.7551999999999996  0.59475  0.49049  1.0000
  H   H47       1.0  0.8680399999999999  0.49629999999999996  0.5707  1.0000
  H   H48       1.0  0.7142499999999999  0.43253  0.5489  1.0000
  H   H49       1.0  0.030849999999999992  0.4849799999999999  0.69681  1.0000
  H   H50       1.0  0.4047  0.5978  0.88176  1.0000
  H   H51       1.0  0.28104999999999986  0.59427  0.9884399999999998  1.0000
  H   H52       1.0  0.92123  0.48802  0.8109  1.0000
  H   H53       1.0  0.74087  0.60376  0.7853  1.0000
  H   H54       1.0  0.40184999999999993  0.5587099999999999  0.74546  1.0000
  H   H55       1.0  0.82793  0.65858  0.02226  1.0000
  H   H56       1.0  0.23694999999999997  0.62305  0.15322  1.0000
  H   H57       1.0  0.25129999999999997  0.75526  0.25247  1.0000
  H   H58       1.0  0.8271099999999999  0.79363  0.11378  1.0000
  H   H59       1.0  0.95204  0.056109999999999986  0.3734  1.0000
  H   H60       1.0  0.8979399999999998  0.99205  0.2765899999999999  1.0000
  H   H61       1.0  0.9176699999999999  0.91242  0.42955  1.0000
  H   H62       1.0  0.79914  0.8867399999999998  0.33145  1.0000
  H   H63       1.0  0.09286999999999997  0.9329599999999999  0.5059  1.0000
  H   H64       1.0  0.26519  0.90492  0.50955  1.0000
  H   H65       1.0  0.29721  0.002499999999999997  0.42871  1.0000
  H   H66       1.0  0.16573999999999992  0.06706999999999998  0.4507199999999999  1.0000
  H   H67       1.0  0.33415  0.015589999999999998  0.30341  1.0000
  H   H68       1.0  0.5237800000000001  0.9019799999999998  0.11837  1.0000
  H   H69       1.0  0.29338999999999993  0.9052699999999998  0.01197  1.0000
  H   H70       1.0  0.11077999999999999  0.012139999999999995  0.18949  1.0000
  H   H71       1.0  0.95551  0.8966  0.2133  1.0000
  H   H72       1.0  0.6567399999999999  0.94112  0.25458999999999987  1.0000
  C   C1        1.0  0.15319  0.18212  0.07386  1.0000
  C   C2        1.0  0.99928  0.16288999999999995  0.14757  1.0000
  C   C3        1.0  0.046560000000000004  0.23607  0.20294  1.0000
  C   C4        1.0  0.20588999999999996  0.25623  0.12533  1.0000
  C   C5        1.0  0.15415  0.28466  0.1927  1.0000
  C   C6        1.0  0.1917399999999999  0.3917  0.31938  1.0000
  C   C7        1.0  0.39645  0.4914  0.34311  1.0000
  C   C8        1.0  0.5257399999999999  0.44014  0.37733  1.0000
  C   C9        1.0  0.31394  0.45764  0.51136  1.0000
  C   C10       1.0  0.24487999999999993  0.50301  0.43777  1.0000
  C   C11       1.0  0.74806  0.49887  0.36179  1.0000
  C   C12       1.0  0.9121  0.48929  0.23979  1.0000
  C   C13       1.0  0.77311  0.45868  0.2201  1.0000
  C   C14       1.0  0.70341  0.42584  0.1366  1.0000
  C   C15       1.0  0.7718199999999998  0.4277699999999999  0.07703  1.0000
  C   C16       1.0  0.9717999999999999  0.4880499999999999  0.17617  1.0000
  C   C17       1.0  0.07998  0.31758  0.92648  1.0000
  C   C18       1.0  0.85214  0.33738  0.85309  1.0000
  C   C19       1.0  0.8437099999999997  0.26416999999999996  0.7976499999999997  1.0000
  C   C20       1.0  0.08089999999999992  0.2434  0.87496  1.0000
  C   C21       1.0  0.9616199999999999  0.21533  0.80784  1.0000
  C   C22       1.0  0.87338  0.10909  0.68107  1.0000
  C   C23       1.0  0.05350000000000003  0.00867  0.65674  1.0000
  C   C24       1.0  0.14784000000000005  0.059999999999999984  0.62234  1.0000
  C   C25       1.0  0.8025499999999999  0.04265999999999998  0.48891  1.0000
  C   C26       1.0  0.80719  0.9976  0.56275  1.0000
  C   C27       1.0  0.38587  0.0010499999999999954  0.63796  1.0000
  C   C28       1.0  0.6719399999999999  0.010479999999999991  0.75993  1.0000
  C   C29       1.0  0.55249  0.041190000000000004  0.77964  1.0000
  C   C30       1.0  0.5659799999999998  0.07425999999999999  0.8631099999999998  1.0000
  C   C31       1.0  0.6940199999999999  0.07251000000000003  0.92261  1.0000
  C   C32       1.0  0.79522  0.01195000000000001  0.82355  1.0000
  C   C33       1.0  0.8468199999999999  0.81788  0.92614  1.0000
  C   C34       1.0  0.0007299999999998714  0.8371099999999999  0.8524299999999998  1.0000
  C   C35       1.0  0.95345  0.76393  0.79707  1.0000
  C   C36       1.0  0.7941199999999998  0.74378  0.87467  1.0000
  C   C37       1.0  0.8458599999999998  0.71534  0.80731  1.0000
  C   C38       1.0  0.80827  0.60831  0.68062  1.0000
  C   C39       1.0  0.60356  0.5086  0.65689  1.0000
  C   C40       1.0  0.47427  0.55986  0.62268  1.0000
  C   C41       1.0  0.68607  0.54236  0.48864  1.0000
  C   C42       1.0  0.7551299999999999  0.49698999999999993  0.5622399999999997  1.0000
  C   C43       1.0  0.25195  0.50113  0.63821  1.0000
  C   C44       1.0  0.08790999999999999  0.51071  0.76021  1.0000
  C   C45       1.0  0.22689999999999996  0.5413199999999998  0.7799  1.0000
  C   C46       1.0  0.2966  0.57416  0.8634  1.0000
  C   C47       1.0  0.22818999999999998  0.57223  0.92297  1.0000
  C   C48       1.0  0.028209999999999968  0.51195  0.82384  1.0000
  C   C49       1.0  0.9200299999999999  0.68242  0.07352  1.0000
  C   C50       1.0  0.14787  0.66262  0.14692  1.0000
  C   C51       1.0  0.15629999999999997  0.73583  0.20235  1.0000
  C   C52       1.0  0.9191099999999999  0.7566  0.12504  1.0000
  C   C53       1.0  0.038389999999999994  0.7846799999999998  0.19216  1.0000
  C   C54       1.0  0.12663  0.89092  0.31893  1.0000
  C   C55       1.0  0.94651  0.9913299999999999  0.34326  1.0000
  C   C56       1.0  0.8521699999999999  0.94  0.3776599999999999  1.0000
  C   C57       1.0  0.19746  0.95734  0.51109  1.0000
  C   C58       1.0  0.19282  0.002399999999999999  0.43726  1.0000
  C   C59       1.0  0.61414  0.99895  0.36204  1.0000
  C   C60       1.0  0.32806999999999986  0.98952  0.24008  1.0000
  C   C61       1.0  0.44752  0.95881  0.22036  1.0000
  C   C62       1.0  0.43402999999999997  0.92575  0.13689  1.0000
  C   C63       1.0  0.30599  0.9274899999999999  0.0774  1.0000
  C   C64       1.0  0.20479  0.9880599999999999  0.17645  1.0000
  Br  Br1       1.0  0.18567  0.033080000000000005  0.89361  1.0000
  Br  Br2       1.0  0.2933299999999999  0.46615  0.10649999999999997  1.0000
  Br  Br3       1.0  0.8143399999999998  0.9669199999999998  0.10639  1.0000
  Br  Br4       1.0  0.7066799999999999  0.53385  0.89351  1.0000
  N   N1        1.0  0.05104  0.13477  0.084  1.0000
  N   N2        1.0  0.26854999999999996  0.4651099999999999  0.35916  1.0000
  N   N3        1.0  0.21361999999999998  0.35858  0.24371  1.0000
  N   N4        1.0  0.90418  0.45896  0.09574  1.0000
  N   N5        1.0  0.65714  0.48963  0.40735  1.0000
  N   N6        1.0  0.70104  0.45954  0.2785699999999999  1.0000
  N   N7        1.0  0.9676399999999998  0.36523  0.91646  1.0000
  N   N8        1.0  0.9093699999999999  0.03493999999999998  0.64148  1.0000
  N   N9        1.0  0.97014  0.14113  0.75721  1.0000
  N   N10       1.0  0.80791  0.04125999999999997  0.90395  1.0000
  N   N11       1.0  0.2495  0.010480000000000005  0.59224  1.0000
  N   N12       1.0  0.42188  0.04009  0.72127  1.0000
  N   N13       1.0  0.94897  0.86523  0.91601  1.0000
  N   N14       1.0  0.73146  0.53489  0.64084  1.0000
  N   N15       1.0  0.78639  0.64142  0.75629  1.0000
  N   N16       1.0  0.09583  0.5410399999999997  0.90426  1.0000
  N   N17       1.0  0.34287  0.51038  0.59265  1.0000
  N   N18       1.0  0.29897  0.54046  0.72143  1.0000
  N   N19       1.0  0.032369999999999996  0.63477  0.08355  1.0000
  N   N20       1.0  0.09064  0.96506  0.35852  1.0000
  N   N21       1.0  0.029869999999999997  0.85888  0.24279  1.0000
  N   N22       1.0  0.1921  0.9587399999999998  0.09605  1.0000
  N   N23       1.0  0.75051  0.98952  0.40776  1.0000
  N   N24       1.0  0.5781299999999999  0.95991  0.27873  1.0000
  O   O1        1.0  0.11095999999999999  0.35971  0.34952  1.0000
  O   O2        1.0  0.86008  0.53935  0.39243  1.0000
  O   O3        1.0  0.76395  0.14263  0.6507  1.0000
  O   O4        1.0  0.46764  0.9608  0.60712  1.0000
  O   O5        1.0  0.8890499999999999  0.64029  0.65049  1.0000
  O   O6        1.0  0.13993000000000005  0.46065  0.60757  1.0000
  O   O7        1.0  0.23606  0.85737  0.34931  1.0000
  O   O8        1.0  0.53237  0.0392  0.39288  1.0000
