data_image0
_chemical_formula_structural       Ni8H56C56O36
_chemical_formula_sum              "Ni8 H56 C56 O36"
_cell_length_a       10.2992
_cell_length_b       10.83417
_cell_length_c       19.54645
_cell_angle_alpha    90.00759
_cell_angle_beta     89.99464
_cell_angle_gamma    89.95209000000001

_space_group_name_H-M_alt    "P 1"
_space_group_IT_number       1

loop_
  _space_group_symop_operation_xyz
  'x, y, z'

loop_
  _atom_site_type_symbol
  _atom_site_label
  _atom_site_symmetry_multiplicity
  _atom_site_fract_x
  _atom_site_fract_y
  _atom_site_fract_z
  _atom_site_occupancy
  Ni  Ni1       1.0  0.92991  0.11344999999999997  0.5068799999999999  1.0000
  Ni  Ni2       1.0  0.74455  0.01838  0.39877  1.0000
  Ni  Ni3       1.0  0.57009  0.8866899999999998  0.00682  1.0000
  Ni  Ni4       1.0  0.75556  0.9819399999999999  0.89872  1.0000
  Ni  Ni5       1.0  0.0693  0.61549  0.9956399999999999  1.0000
  Ni  Ni6       1.0  0.25628  0.51947  0.10192  1.0000
  Ni  Ni7       1.0  0.43078  0.38447999999999993  0.49562  1.0000
  Ni  Ni8       1.0  0.2438  0.48058  0.60191  1.0000
  H   H1        1.0  0.67017  0.6894299999999999  0.52104  1.0000
  H   H2        1.0  0.56275  0.7690399999999997  0.57661  1.0000
  H   H3        1.0  0.7989300000000001  0.50426  0.56479  1.0000
  H   H4        1.0  0.78231  0.45511  0.65054  1.0000
  H   H5        1.0  0.97837  0.79652  0.60417  1.0000
  H   H6        1.0  0.91281  0.70492  0.53718  1.0000
  H   H7        1.0  0.65566  0.90122  0.67393  1.0000
  H   H8        1.0  0.82539  0.91277  0.6846299999999998  1.0000
  H   H9        1.0  0.62884  0.57039  0.7315099999999999  1.0000
  H   H10       1.0  0.53871  0.6979999999999998  0.70128  1.0000
  H   H11       1.0  0.9563  0.72789  0.72732  1.0000
  H   H12       1.0  0.8755699999999998  0.5877899999999999  0.74753  1.0000
  H   H13       1.0  0.72262  0.20883  0.4777  1.0000
  H   H14       1.0  0.81075  0.26036  0.38371  1.0000
  H   H15       1.0  0.8301099999999999  0.31049  0.02106  1.0000
  H   H16       1.0  0.9374199999999999  0.23097999999999996  0.07673  1.0000
  H   H17       1.0  0.70108  0.4956999999999999  0.06485  1.0000
  H   H18       1.0  0.71765  0.5449  0.15061  1.0000
  H   H19       1.0  0.52176  0.20337999999999998  0.10421  1.0000
  H   H20       1.0  0.58731  0.29500999999999994  0.037239999999999995  1.0000
  H   H21       1.0  0.84434  0.09869  0.17394  1.0000
  H   H22       1.0  0.67458  0.08724999999999998  0.18463  1.0000
  H   H23       1.0  0.87138  0.4295199999999999  0.23157  1.0000
  H   H24       1.0  0.96137  0.30188999999999994  0.2012  1.0000
  H   H25       1.0  0.54378  0.27215  0.22742999999999997  1.0000
  H   H26       1.0  0.62455  0.41222999999999993  0.24757  1.0000
  H   H27       1.0  0.77744  0.7912999999999998  0.97765  1.0000
  H   H28       1.0  0.68935  0.7397299999999999  0.8836699999999998  1.0000
  H   H29       1.0  0.32967  0.19157999999999997  0.98054  1.0000
  H   H30       1.0  0.43613999999999997  0.27058  0.9243999999999999  1.0000
  H   H31       1.0  0.2002  0.00453  0.93602  1.0000
  H   H32       1.0  0.21822999999999998  0.9560999999999998  0.8501499999999999  1.0000
  H   H33       1.0  0.02058  0.29692999999999997  0.89653  1.0000
  H   H34       1.0  0.08584  0.20512  0.96358  1.0000
  H   H35       1.0  0.34244  0.40359  0.8275099999999999  1.0000
  H   H36       1.0  0.17275  0.4134399999999999  0.81657  1.0000
  H   H37       1.0  0.37245  0.07221  0.76992  1.0000
  H   H38       1.0  0.46142  0.19986  0.80082  1.0000
  H   H39       1.0  0.04429  0.22845999999999994  0.77326  1.0000
  H   H40       1.0  0.12606  0.08852999999999998  0.7533199999999999  1.0000
  H   H41       1.0  0.27654  0.71174  0.02211  1.0000
  H   H42       1.0  0.19069  0.76343  0.11823  1.0000
  H   H43       1.0  0.17061  0.8087699999999999  0.48061  1.0000
  H   H44       1.0  0.06394  0.72982  0.42458  1.0000
  H   H45       1.0  0.29985  0.9958199999999998  0.43605  1.0000
  H   H46       1.0  0.28189  0.04407  0.35017  1.0000
  H   H47       1.0  0.47952  0.70323  0.39648999999999995  1.0000
  H   H48       1.0  0.41429999999999995  0.79498  0.46361  1.0000
  H   H49       1.0  0.15793  0.59637  0.32747  1.0000
  H   H50       1.0  0.32774  0.58691  0.31662  1.0000
  H   H51       1.0  0.12738  0.9277599999999999  0.26998  1.0000
  H   H52       1.0  0.03872  0.8000799999999999  0.30102  1.0000
  H   H53       1.0  0.45583999999999997  0.77194  0.27323  1.0000
  H   H54       1.0  0.37388  0.9118  0.2534199999999999  1.0000
  H   H55       1.0  0.22346999999999997  0.28842999999999996  0.52215  1.0000
  H   H56       1.0  0.30938  0.23661  0.61817  1.0000
  C   C1        1.0  0.78262  0.91381  0.54586  1.0000
  C   C2        1.0  0.76712  0.8063799999999998  0.59536  1.0000
  C   C3        1.0  0.65609  0.71997  0.5740099999999999  1.0000
  C   C4        1.0  0.65353  0.60649  0.62276  1.0000
  C   C5        1.0  0.78382  0.5367799999999999  0.61726  1.0000
  C   C6        1.0  0.8954399999999999  0.6228599999999999  0.63834  1.0000
  C   C7        1.0  0.89743  0.73586  0.5901399999999999  1.0000
  C   C8        1.0  0.74736  0.8498999999999999  0.66943  1.0000
  C   C9        1.0  0.7442  0.73726  0.71762  1.0000
  C   C10       1.0  0.63233  0.65016  0.69695  1.0000
  C   C11       1.0  0.8757099999999999  0.6672199999999999  0.71258  1.0000
  C   C12       1.0  0.5403  0.52724  0.59856  1.0000
  C   C13       1.0  0.02788  0.56288  0.62903  1.0000
  C   C14       1.0  0.72912  0.7823499999999998  0.7906299999999999  1.0000
  C   C15       1.0  0.71742  0.08621  0.04591  1.0000
  C   C16       1.0  0.733  0.19363  0.0954  1.0000
  C   C17       1.0  0.8440600000000001  0.28003  0.07406  1.0000
  C   C18       1.0  0.8465099999999999  0.39353999999999995  0.12281999999999998  1.0000
  C   C19       1.0  0.71618  0.46320999999999996  0.11731999999999998  1.0000
  C   C20       1.0  0.60457  0.37712  0.13841  1.0000
  C   C21       1.0  0.60266  0.26410999999999996  0.0902  1.0000
  C   C22       1.0  0.75268  0.15008  0.16947  1.0000
  C   C23       1.0  0.75585  0.26275999999999994  0.21764  1.0000
  C   C24       1.0  0.86776  0.3498  0.19697999999999996  1.0000
  C   C25       1.0  0.62435  0.3327899999999999  0.21263  1.0000
  C   C26       1.0  0.95968  0.47292  0.09867  1.0000
  C   C27       1.0  0.47207  0.43708  0.12905  1.0000
  C   C28       1.0  0.77077  0.21771  0.29067  1.0000
  C   C29       1.0  0.21508  0.41469999999999996  0.95564  1.0000
  C   C30       1.0  0.23157  0.30737  0.9058899999999999  1.0000
  C   C31       1.0  0.34307  0.22130999999999995  0.9273799999999999  1.0000
  C   C32       1.0  0.34618  0.10739000000000001  0.8788300000000001  1.0000
  C   C33       1.0  0.21604999999999996  0.03744  0.8837199999999998  1.0000
  C   C34       1.0  0.10424  0.12324999999999997  0.86254  1.0000
  C   C35       1.0  0.10157  0.23629999999999995  0.9107099999999999  1.0000
  C   C36       1.0  0.25147  0.35124  0.83185  1.0000
  C   C37       1.0  0.25591  0.23816999999999997  0.7839199999999998  1.0000
  C   C38       1.0  0.36809  0.15152999999999997  0.80478  1.0000
  C   C39       1.0  0.12465  0.16773  0.78847  1.0000
  C   C40       1.0  0.4598400000000001  0.02835  0.90315  1.0000
  C   C41       1.0  0.97193  0.06292999999999999  0.8712699999999999  1.0000
  C   C42       1.0  0.26928  0.28142999999999996  0.7106399999999999  1.0000
  C   C43       1.0  0.28503  0.58532  0.45562  1.0000
  C   C44       1.0  0.26858  0.6927899999999999  0.40592  1.0000
  C   C45       1.0  0.15713  0.77892  0.42745999999999995  1.0000
  C   C46       1.0  0.15394  0.8927799999999998  0.37887  1.0000
  C   C47       1.0  0.28408  0.9627799999999999  0.38377  1.0000
  C   C48       1.0  0.39597999999999994  0.8769899999999999  0.36261  1.0000
  C   C49       1.0  0.39857999999999993  0.76388  0.41073  1.0000
  C   C50       1.0  0.24879999999999997  0.64892  0.33185  1.0000
  C   C51       1.0  0.24427999999999997  0.7619799999999998  0.28393  1.0000
  C   C52       1.0  0.13202  0.84847  0.30483  1.0000
  C   C53       1.0  0.37546  0.8325599999999999  0.28853  1.0000
  C   C54       1.0  0.04007  0.9716199999999999  0.40313  1.0000
  C   C55       1.0  0.52821  0.93722  0.37132  1.0000
  C   C56       1.0  0.23104  0.7187399999999999  0.21066  1.0000
  O   O1        1.0  0.85117  0.006219999999999999  0.56927  1.0000
  O   O2        1.0  0.73928  0.9047899999999999  0.48613  1.0000
  O   O3        1.0  0.43188  0.53765  0.6271799999999998  1.0000
  O   O4        1.0  0.56473  0.45591  0.54602  1.0000
  O   O5        1.0  0.03909  0.46303  0.59391  1.0000
  O   O6        1.0  0.12828  0.6178399999999998  0.65229  1.0000
  O   O7        1.0  0.68905  0.69947  0.83591  1.0000
  O   O8        1.0  0.75659  0.89108  0.80553  1.0000
  O   O9        1.0  0.7993699999999999  0.18655  0.45122999999999996  1.0000
  O   O10       1.0  0.64885  0.9938299999999999  0.06926  1.0000
  O   O11       1.0  0.76076  0.0953  0.9861  1.0000
  O   O12       1.0  0.06835  0.4623299999999999  0.12714999999999999  1.0000
  O   O13       1.0  0.93524  0.54446  0.046279999999999995  1.0000
  O   O14       1.0  0.4609  0.53687  0.09392  1.0000
  O   O15       1.0  0.37163  0.3821399999999999  0.15227  1.0000
  O   O16       1.0  0.81109  0.3005999999999999  0.33594  1.0000
  O   O17       1.0  0.74294  0.10915999999999998  0.30553  1.0000
  O   O18       1.0  0.70074  0.8137499999999999  0.95118  1.0000
  O   O19       1.0  0.14298  0.5055  0.9333499999999999  1.0000
  O   O20       1.0  0.26157  0.4062  0.01476  1.0000
  O   O21       1.0  0.56913  0.042339999999999996  0.87569  1.0000
  O   O22       1.0  0.43539  0.95477  0.95476  1.0000
  O   O23       1.0  0.9605900000000002  0.96261  0.9058799999999999  1.0000
  O   O24       1.0  0.8715699999999998  0.11794999999999999  0.84816  1.0000
  O   O25       1.0  0.31178  0.19814999999999997  0.66616  1.0000
  O   O26       1.0  0.23727999999999996  0.38805  0.69455  1.0000
  O   O27       1.0  0.2016  0.68809  0.04959999999999999  1.0000
  O   O28       1.0  0.35715  0.49449  0.43332  1.0000
  O   O29       1.0  0.23855  0.59364  0.51468  1.0000
  O   O30       1.0  0.93109  0.95793  0.3754199999999999  1.0000
  O   O31       1.0  0.06442  0.04484  0.45487  1.0000
  O   O32       1.0  0.53939  0.03733  0.40617  1.0000
  O   O33       1.0  0.62859  0.8824899999999999  0.34797999999999996  1.0000
  O   O34       1.0  0.18822  0.80191  0.16622  1.0000
  O   O35       1.0  0.26358  0.6120699999999999  0.19453  1.0000
  O   O36       1.0  0.29845  0.31197  0.54959  1.0000
