data_image0
_chemical_formula_structural       Co3H72C120N24
_chemical_formula_sum              "Co3 H72 C120 N24"
_cell_length_a       9.39596
_cell_length_b       19.075979999999998
_cell_length_c       19.07463
_cell_angle_alpha    117.30731999999999
_cell_angle_beta     99.50361000000001
_cell_angle_gamma    99.49272

_space_group_name_H-M_alt    "P 1"
_space_group_IT_number       1

loop_
  _space_group_symop_operation_xyz
  'x, y, z'

loop_
  _atom_site_type_symbol
  _atom_site_label
  _atom_site_symmetry_multiplicity
  _atom_site_fract_x
  _atom_site_fract_y
  _atom_site_fract_z
  _atom_site_occupancy
  Co  Co1       1.0  0.4975399999999999  0.4994500000000001  0.49888000000000005  1.0000
  Co  Co2       1.0  0.99995  0.9999400000000002  0.49990000000000007  1.0000
  Co  Co3       1.0  0.99916  0.5002  0.99979  1.0000
  H   H1        1.0  0.09299999999999997  0.34138  0.57527  1.0000
  H   H2        1.0  0.06849  0.49631000000000003  0.64748  1.0000
  H   H3        1.0  0.66601  0.22754  0.34717  1.0000
  H   H4        1.0  0.43648  0.186  0.40041  1.0000
  H   H5        1.0  0.03494999999999998  0.41942  0.43122  1.0000
  H   H6        1.0  0.18145000000000006  0.33669  0.34495  1.0000
  H   H7        1.0  0.8063899999999999  0.1985  0.14599  1.0000
  H   H8        1.0  0.6411999999999998  0.27265000000000006  0.22553  1.0000
  H   H9        1.0  0.43581  0.26145  0.5784  1.0000
  H   H10       1.0  0.3155299999999999  0.1326  0.5759  1.0000
  H   H11       1.0  0.9367199999999999  0.08399999999999999  0.39778  1.0000
  H   H12       1.0  0.04185000000000001  0.21041  0.39223  1.0000
  H   H13       1.0  0.90687  0.65854  0.42519  1.0000
  H   H14       1.0  0.9309999999999998  0.50343  0.35275  1.0000
  H   H15       1.0  0.33344999999999986  0.77231  0.65304  1.0000
  H   H16       1.0  0.56345  0.81385  0.60004  1.0000
  H   H17       1.0  0.9632499999999999  0.58054  0.56861  1.0000
  H   H18       1.0  0.8174399999999999  0.6634  0.65535  1.0000
  H   H19       1.0  0.19352000000000003  0.80125  0.85374  1.0000
  H   H20       1.0  0.35791999999999985  0.72697  0.77366  1.0000
  H   H21       1.0  0.56311  0.73846  0.42137  1.0000
  H   H22       1.0  0.6836500000000001  0.8673900000000001  0.42413  1.0000
  H   H23       1.0  0.062250000000000034  0.91568  0.60214  1.0000
  H   H24       1.0  0.95714  0.78917  0.60744  1.0000
  H   H25       1.0  0.75128  0.23334  0.6581  1.0000
  H   H26       1.0  0.57146  0.15017  0.50301  1.0000
  H   H27       1.0  0.4396999999999998  0.11969000000000006  0.7724500000000001  1.0000
  H   H28       1.0  0.25123  0.21412  0.8139  1.0000
  H   H29       1.0  0.61752  0.012049999999999983  0.58089  1.0000
  H   H30       1.0  0.8463699999999998  0.008109999999999958  0.66378  1.0000
  H   H31       1.0  0.6093  0.9482100000000001  0.80199  1.0000
  H   H32       1.0  0.37005000000000005  0.9538000000000001  0.72765  1.0000
  H   H33       1.0  0.17582  0.31736  0.73951  1.0000
  H   H34       1.0  0.18377  0.44339  0.86823  1.0000
  H   H35       1.0  0.85246  0.3133  0.91568  1.0000
  H   H36       1.0  0.83162  0.18156000000000003  0.78933  1.0000
  H   H37       1.0  0.24843999999999997  0.76666  0.34139  1.0000
  H   H38       1.0  0.42856  0.84961  0.4964700000000001  1.0000
  H   H39       1.0  0.5603299999999999  0.88018  0.22705  1.0000
  H   H40       1.0  0.74881  0.78589  0.18562  1.0000
  H   H41       1.0  0.38182000000000005  0.9878200000000001  0.41899  1.0000
  H   H42       1.0  0.15314999999999995  0.9919299999999999  0.3361  1.0000
  H   H43       1.0  0.3906599999999999  0.05192  0.19813  1.0000
  H   H44       1.0  0.6296699999999997  0.04601  0.2724  1.0000
  H   H45       1.0  0.8243  0.68254  0.26059  1.0000
  H   H46       1.0  0.8160499999999998  0.5566  0.13163  1.0000
  H   H47       1.0  0.14747000000000002  0.68702  0.08446  1.0000
  H   H48       1.0  0.16779999999999992  0.81854  0.21097  1.0000
  H   H49       1.0  0.5176399999999999  0.42471  0.76589  1.0000
  H   H50       1.0  0.4203700000000001  0.35236  0.84862  1.0000
  H   H51       1.0  0.31916  0.65327  0.88011  1.0000
  H   H52       1.0  0.03611  0.5997  0.78531  1.0000
  H   H53       1.0  0.6051099999999998  0.56902  0.98801  1.0000
  H   H54       1.0  0.83837  0.6557300000000003  0.99208  1.0000
  H   H55       1.0  0.6622199999999999  0.8543000000000001  0.05258  1.0000
  H   H56       1.0  0.41687  0.77434  0.04655  1.0000
  H   H57       1.0  0.8568400000000003  0.42147  0.6824  1.0000
  H   H58       1.0  0.73889  0.42440999999999995  0.55628  1.0000
  H   H59       1.0  0.53866  0.60217  0.68626  1.0000
  H   H60       1.0  0.64969  0.60734  0.81804  1.0000
  H   H61       1.0  0.48205999999999993  0.57517  0.23334  1.0000
  H   H62       1.0  0.57872  0.64748  0.15043  1.0000
  H   H63       1.0  0.67965  0.34658  0.11895  1.0000
  H   H64       1.0  0.9627699999999998  0.40011  0.21382  1.0000
  H   H65       1.0  0.39436  0.43074  0.01137  1.0000
  H   H66       1.0  0.16157  0.34418  0.007809999999999999  1.0000
  H   H67       1.0  0.33779  0.14591000000000012  0.94772  1.0000
  H   H68       1.0  0.5825499999999999  0.22560000000000002  0.95301  1.0000
  H   H69       1.0  0.14130999999999996  0.57792  0.31644  1.0000
  H   H70       1.0  0.25889999999999996  0.57498  0.44267  1.0000
  H   H71       1.0  0.45955  0.39752  0.31312  1.0000
  H   H72       1.0  0.34933  0.39247  0.1813  1.0000
  C   C1        1.0  0.7356999999999998  0.6089700000000001  0.47293  1.0000
  C   C2        1.0  0.15137999999999996  0.39281  0.57127  1.0000
  C   C3        1.0  0.13795999999999992  0.47125  0.60735  1.0000
  C   C4        1.0  0.24068999999999996  0.51725  0.58455  1.0000
  C   C5        1.0  0.26814  0.60215  0.61339  1.0000
  C   C6        1.0  0.38069  0.6486  0.59896  1.0000
  C   C7        1.0  0.59846  0.2659  0.3785  1.0000
  C   C8        1.0  0.48299999999999993  0.24511  0.4067  1.0000
  C   C9        1.0  0.43113999999999997  0.31742  0.44629  1.0000
  C   C10       1.0  0.6827999999999999  0.67769  0.51431  1.0000
  C   C11       1.0  0.8243699999999997  0.35272  0.33568  1.0000
  C   C12       1.0  0.9795499999999999  0.37108  0.36822  1.0000
  C   C13       1.0  0.06165  0.32453  0.31945  1.0000
  C   C14       1.0  0.8532099999999999  0.2472  0.20986  1.0000
  C   C15       1.0  0.76095  0.28897  0.25405  1.0000
  C   C16       1.0  0.7517699999999999  0.75341  0.51396  1.0000
  C   C17       1.0  0.67414  0.7764700000000001  0.46231  1.0000
  C   C18       1.0  0.74088  0.84797  0.46363  1.0000
  C   C19       1.0  0.046380000000000005  0.12519  0.43722  1.0000
  C   C20       1.0  0.10483  0.19543  0.43431  1.0000
  C   C21       1.0  0.26261  0.3906  0.52653  1.0000
  C   C22       1.0  0.8476199999999998  0.60691  0.42861  1.0000
  C   C23       1.0  0.86081  0.52844  0.39244  1.0000
  C   C24       1.0  0.7572399999999999  0.48233  0.41478  1.0000
  C   C25       1.0  0.7298200000000001  0.3974  0.38586  1.0000
  C   C26       1.0  0.6172  0.35091  0.40019  1.0000
  C   C27       1.0  0.4002799999999999  0.73378  0.62117  1.0000
  C   C28       1.0  0.51592  0.75455  0.59307  1.0000
  C   C29       1.0  0.56702  0.68206  0.55302  1.0000
  C   C30       1.0  0.31569  0.3219200000000001  0.4852100000000001  1.0000
  C   C31       1.0  0.17413  0.647  0.66384  1.0000
  C   C32       1.0  0.01892999999999999  0.62882  0.63158  1.0000
  C   C33       1.0  0.9372799999999999  0.67546  0.68062  1.0000
  C   C34       1.0  0.14625000000000005  0.7526000000000002  0.78988  1.0000
  C   C35       1.0  0.23807999999999999  0.71074  0.74542  1.0000
  C   C36       1.0  0.24710999999999997  0.24624000000000001  0.48571  1.0000
  C   C37       1.0  0.32487  0.22331999999999994  0.53745  1.0000
  C   C38       1.0  0.25818000000000013  0.15192  0.53634  1.0000
  C   C39       1.0  0.9525499999999999  0.8745100000000001  0.56266  1.0000
  C   C40       1.0  0.89414  0.80416  0.56539  1.0000
  C   C41       1.0  0.12691000000000002  0.86395  0.39089  1.0000
  C   C42       1.0  0.7587100000000001  0.17807999999999993  0.60675  1.0000
  C   C43       1.0  0.6664799999999999  0.13551  0.52829  1.0000
  C   C44       1.0  0.72331  0.06686  0.48231  1.0000
  C   C45       1.0  0.66537  0.010750000000000008  0.39737  1.0000
  C   C46       1.0  0.7315799999999998  0.95002  0.35083  1.0000
  C   C47       1.0  0.33371  0.11277999999999999  0.73406  1.0000
  C   C48       1.0  0.23870999999999998  0.16152  0.75473  1.0000
  C   C49       1.0  0.11442000000000004  0.12879  0.68232  1.0000
  C   C50       1.0  0.0049900000000000335  0.8365000000000001  0.32208  1.0000
  C   C51       1.0  0.47323  0.98342  0.64745  1.0000
  C   C52       1.0  0.6101599999999999  0.99743  0.62922  1.0000
  C   C53       1.0  0.7387199999999997  0.99501  0.67588  1.0000
  C   C54       1.0  0.6075199999999998  0.9631799999999999  0.7532  1.0000
  C   C55       1.0  0.47352  0.96573  0.71133  1.0000
  C   C56       1.0  0.9982999999999999  0.76048  0.24629  1.0000
  C   C57       1.0  0.8974899999999999  0.68564  0.22282  1.0000
  C   C58       1.0  0.8928699999999999  0.6156  0.15131  1.0000
  C   C59       1.0  0.9211999999999999  0.3116500000000001  0.87463  1.0000
  C   C60       1.0  0.90968  0.23864  0.8044  1.0000
  C   C61       1.0  0.8725099999999999  0.13574999999999995  0.60902  1.0000
  C   C62       1.0  0.24104999999999993  0.82178  0.39291  1.0000
  C   C63       1.0  0.33326999999999996  0.86422  0.47138  1.0000
  C   C64       1.0  0.27614  0.9326600000000002  0.51759  1.0000
  C   C65       1.0  0.33383  0.98877  0.60254  1.0000
  C   C66       1.0  0.26758  0.049550000000000004  0.64897  1.0000
  C   C67       1.0  0.66589  0.88694  0.26564  1.0000
  C   C68       1.0  0.7609199999999998  0.83822  0.24494  1.0000
  C   C69       1.0  0.8848399999999998  0.87086  0.31754  1.0000
  C   C70       1.0  0.9942999999999999  0.16322000000000006  0.6779  1.0000
  C   C71       1.0  0.5262099999999997  0.01636  0.35252  1.0000
  C   C72       1.0  0.38922  0.0024500000000000086  0.37066  1.0000
  C   C73       1.0  0.26080999999999993  0.004949999999999998  0.32399  1.0000
  C   C74       1.0  0.3923099999999999  0.036789999999999996  0.24681  1.0000
  C   C75       1.0  0.52618  0.03410999999999999  0.28869  1.0000
  C   C76       1.0  0.001339999999999999  0.23938  0.75373  1.0000
  C   C77       1.0  0.10241999999999998  0.31419  0.77718  1.0000
  C   C78       1.0  0.10691999999999996  0.38437  0.84855  1.0000
  C   C79       1.0  0.07855000000000001  0.68845  0.12535  1.0000
  C   C80       1.0  0.08997999999999995  0.76136  0.19572  1.0000
  C   C81       1.0  0.263  0.52692  0.13559  1.0000
  C   C82       1.0  0.5798899999999999  0.42866000000000004  0.82132  1.0000
  C   C83       1.0  0.53009  0.3924900000000001  0.86362  1.0000
  C   C84       1.0  0.65582  0.41495  0.93227  1.0000
  C   C85       1.0  0.65422  0.38594000000000017  0.9882100000000001  1.0000
  C   C86       1.0  0.78133  0.40042  0.04916  1.0000
  C   C87       1.0  0.22032  0.62167  0.88708  1.0000
  C   C88       1.0  0.07648000000000002  0.59336  0.83812  1.0000
  C   C89       1.0  0.98523  0.5534  0.87072  1.0000
  C   C90       1.0  0.16857999999999998  0.48545000000000005  0.16289  1.0000
  C   C91       1.0  0.4899699999999999  0.66436  0.01669  1.0000
  C   C92       1.0  0.6127  0.63202  0.00268  1.0000
  C   C93       1.0  0.74392  0.6810200000000001  0.00516  1.0000
  C   C94       1.0  0.64504  0.79039  0.03726  1.0000
  C   C95       1.0  0.5081999999999998  0.74599  0.03453  1.0000
  C   C96       1.0  0.2378  0.48577999999999993  0.23897  1.0000
  C   C97       1.0  0.21139  0.53708  0.31356  1.0000
  C   C98       1.0  0.27651  0.53566  0.38373  1.0000
  C   C99       1.0  0.60896  0.56274  0.68786  1.0000
  C   C100      1.0  0.6703799999999998  0.56543  0.76092  1.0000
  C   C101      1.0  0.73619  0.47311  0.86371  1.0000
  C   C102      1.0  0.41926999999999987  0.57157  0.17819  1.0000
  C   C103      1.0  0.46891  0.60763  0.13577  1.0000
  C   C104      1.0  0.34327  0.58503  0.06705  1.0000
  C   C105      1.0  0.3449799999999999  0.61401  0.01107  1.0000
  C   C106      1.0  0.21774999999999994  0.59963  0.95024  1.0000
  C   C107      1.0  0.77858  0.37854  0.11237  1.0000
  C   C108      1.0  0.92242  0.40691  0.16135  1.0000
  C   C109      1.0  0.013820000000000015  0.44665000000000005  0.12863  1.0000
  C   C110      1.0  0.83064  0.5144  0.83627  1.0000
  C   C111      1.0  0.50951  0.33554  0.98272  1.0000
  C   C112      1.0  0.38681  0.36781000000000014  0.99684  1.0000
  C   C113      1.0  0.2559  0.31889  0.9946800000000001  1.0000
  C   C114      1.0  0.3548499999999999  0.20970000000000008  0.96277  1.0000
  C   C115      1.0  0.49134  0.254  0.9651  1.0000
  C   C116      1.0  0.76119  0.51399  0.76013  1.0000
  C   C117      1.0  0.78693  0.46246  0.68541  1.0000
  C   C118      1.0  0.7213699999999997  0.46381999999999995  0.61525  1.0000
  C   C119      1.0  0.38929  0.43688999999999995  0.31136  1.0000
  C   C120      1.0  0.32842  0.43432999999999994  0.23834  1.0000
  N   N1        1.0  0.684  0.53299  0.4647  1.0000
  N   N2        1.0  0.4844999999999999  0.61869  0.5582  1.0000
  N   N3        1.0  0.0016600000000000063  0.2633  0.24136  1.0000
  N   N4        1.0  0.8786299999999999  0.89644  0.51253  1.0000
  N   N5        1.0  0.31356  0.46648000000000006  0.53439  1.0000
  N   N6        1.0  0.51295  0.38066999999999995  0.44067  1.0000
  N   N7        1.0  0.99772  0.73664  0.7587  1.0000
  N   N8        1.0  0.12034999999999998  0.10346  0.48756  1.0000
  N   N9        1.0  0.15169999999999995  0.9317299999999998  0.46687  1.0000
  N   N10       1.0  0.86577  0.9394300000000001  0.3808  1.0000
  N   N11       1.0  0.73998  0.9782400000000001  0.73716  1.0000
  N   N12       1.0  0.9826299999999994  0.61628  0.10322  1.0000
  N   N13       1.0  0.8475699999999998  0.06777000000000004  0.53312  1.0000
  N   N14       1.0  0.1333  0.060140000000000006  0.61907  1.0000
  N   N15       1.0  0.2598  0.021869999999999987  0.2628  1.0000
  N   N16       1.0  0.016799999999999978  0.3838  0.89651  1.0000
  N   N17       1.0  0.21987  0.53494  0.06766  1.0000
  N   N18       1.0  0.9261099999999999  0.44110000000000005  0.05989  1.0000
  N   N19       1.0  0.7621699999999998  0.7591700000000001  0.02215  1.0000
  N   N20       1.0  0.36563  0.48700000000000004  0.38337  1.0000
  N   N21       1.0  0.7792999999999999  0.46494  0.93156  1.0000
  N   N22       1.0  0.07296999999999998  0.55879  0.93942  1.0000
  N   N23       1.0  0.23770999999999998  0.2408599999999999  0.97798  1.0000
  N   N24       1.0  0.63244  0.51264  0.61578  1.0000
