data_image0
_chemical_formula_structural       Gd4Cu4H48C72I4N12O24
_chemical_formula_sum              "Gd4 Cu4 H48 C72 I4 N12 O24"
_cell_length_a       8.2998
_cell_length_b       12.04215
_cell_length_c       26.5436
_cell_angle_alpha    90.0
_cell_angle_beta     90.0
_cell_angle_gamma    104.87945000000002

_space_group_name_H-M_alt    "P 1"
_space_group_IT_number       1

loop_
  _space_group_symop_operation_xyz
  'x, y, z'

loop_
  _atom_site_type_symbol
  _atom_site_label
  _atom_site_symmetry_multiplicity
  _atom_site_fract_x
  _atom_site_fract_y
  _atom_site_fract_z
  _atom_site_occupancy
  Gd  Gd1       1.0  0.7815099999999999  0.5189  0.513  1.0000
  Gd  Gd2       1.0  0.21849  0.4811  0.013  1.0000
  Gd  Gd3       1.0  0.21849  0.4811  0.48700000000000004  1.0000
  Gd  Gd4       1.0  0.7815099999999999  0.5189  0.987  1.0000
  Cu  Cu1       1.0  0.08662  0.01039  0.70058  1.0000
  Cu  Cu2       1.0  0.9133800000000001  0.9896000000000001  0.20058  1.0000
  Cu  Cu3       1.0  0.9133800000000001  0.9896000000000001  0.29942  1.0000
  Cu  Cu4       1.0  0.08662  0.01039  0.7994200000000001  1.0000
  H   H1        1.0  0.9989800000000001  0.8178200000000001  0.6277500000000001  1.0000
  H   H2        1.0  0.4378000000000001  0.69437  0.6058599999999998  1.0000
  H   H3        1.0  0.58966  0.8488  0.66639  1.0000
  H   H4        1.0  0.43174  0.9824  0.70265  1.0000
  H   H5        1.0  0.15371  0.18551  0.61759  1.0000
  H   H6        1.0  0.7103599999999999  0.30719  0.6024  1.0000
  H   H7        1.0  0.58046  0.16906000000000002  0.6714600000000001  1.0000
  H   H8        1.0  0.74606  0.04020000000000001  0.70727  1.0000
  H   H9        1.0  0.22482999999999997  0.19971  0.43598  1.0000
  H   H10       1.0  0.50697  0.14753  0.56594  1.0000
  H   H11       1.0  0.35749  0.93814  0.56183  1.0000
  H   H12       1.0  0.14388  0.87152  0.49456  1.0000
  H   H13       1.0  0.0010199999999999964  0.18218  0.12775  1.0000
  H   H14       1.0  0.5622  0.30562  0.10586  1.0000
  H   H15       1.0  0.41034  0.1512  0.16639  1.0000
  H   H16       1.0  0.56825  0.01759  0.20265  1.0000
  H   H17       1.0  0.84629  0.81449  0.11759  1.0000
  H   H18       1.0  0.28964  0.69281  0.1024  1.0000
  H   H19       1.0  0.41954  0.83094  0.17146  1.0000
  H   H20       1.0  0.25394000000000005  0.9598000000000001  0.20727  1.0000
  H   H21       1.0  0.77517  0.80029  0.93598  1.0000
  H   H22       1.0  0.49303  0.8524600000000001  0.06594  1.0000
  H   H23       1.0  0.64251  0.06186  0.06184  1.0000
  H   H24       1.0  0.85612  0.12847  0.99456  1.0000
  H   H25       1.0  0.0010199999999999964  0.18218  0.37225  1.0000
  H   H26       1.0  0.5622  0.30562  0.39414  1.0000
  H   H27       1.0  0.41034  0.1512  0.33361  1.0000
  H   H28       1.0  0.56826  0.01759  0.29735  1.0000
  H   H29       1.0  0.84629  0.81449  0.38241  1.0000
  H   H30       1.0  0.28964  0.69281  0.3976  1.0000
  H   H31       1.0  0.41954  0.83094  0.32854  1.0000
  H   H32       1.0  0.25394000000000005  0.9598000000000001  0.29273  1.0000
  H   H33       1.0  0.77517  0.80029  0.56402  1.0000
  H   H34       1.0  0.49303  0.8524600000000001  0.43406  1.0000
  H   H35       1.0  0.64251  0.06186  0.43816  1.0000
  H   H36       1.0  0.85612  0.12847  0.50544  1.0000
  H   H37       1.0  0.9989800000000001  0.8178200000000001  0.87225  1.0000
  H   H38       1.0  0.4378000000000001  0.69437  0.89414  1.0000
  H   H39       1.0  0.58966  0.8488  0.83361  1.0000
  H   H40       1.0  0.43175  0.9824  0.79735  1.0000
  H   H41       1.0  0.15371  0.18551  0.88241  1.0000
  H   H42       1.0  0.7103599999999999  0.30718  0.8976  1.0000
  H   H43       1.0  0.58045  0.16905  0.82854  1.0000
  H   H44       1.0  0.74606  0.040190000000000003  0.79273  1.0000
  H   H45       1.0  0.22482999999999997  0.19971  0.06402  1.0000
  H   H46       1.0  0.50697  0.14753  0.93406  1.0000
  H   H47       1.0  0.35749  0.93814  0.9381600000000001  1.0000
  H   H48       1.0  0.14388  0.87152  0.00544  1.0000
  C   C1        1.0  0.12933  0.8220600000000001  0.63519  1.0000
  C   C2        1.0  0.20760000000000006  0.74521  0.61245  1.0000
  C   C3        1.0  0.3759400000000001  0.7538500000000002  0.62345  1.0000
  C   C4        1.0  0.45936  0.83928  0.6563899999999999  1.0000
  C   C5        1.0  0.3726  0.91324  0.67705  1.0000
  C   C6        1.0  0.1196900000000001  0.6569500000000001  0.5754  1.0000
  C   C7        1.0  0.02645  0.18313000000000001  0.6284199999999999  1.0000
  C   C8        1.0  0.94252  0.25705  0.60562  1.0000
  C   C9        1.0  0.77895  0.25245  0.62049  1.0000
  C   C10       1.0  0.70618  0.17451  0.65781  1.0000
  C   C11       1.0  0.79764  0.10356000000000001  0.67839  1.0000
  C   C12       1.0  0.02602000000000005  0.33763000000000004  0.56574  1.0000
  C   C13       1.0  0.25638  0.14339  0.46437  1.0000
  C   C14       1.0  0.37627  0.18963000000000005  0.50125  1.0000
  C   C15       1.0  0.41367  0.11482  0.53719  1.0000
  C   C16       1.0  0.3301  0.99896  0.53501  1.0000
  C   C17       1.0  0.21164999999999998  0.9618400000000001  0.49715  1.0000
  C   C18       1.0  0.45871  0.31453  0.50231  1.0000
  C   C19       1.0  0.87067  0.17794000000000001  0.13519  1.0000
  C   C20       1.0  0.7924  0.25479  0.11245  1.0000
  C   C21       1.0  0.62406  0.24615  0.12345  1.0000
  C   C22       1.0  0.54064  0.16072  0.15639  1.0000
  C   C23       1.0  0.6274  0.08676000000000002  0.17705  1.0000
  C   C24       1.0  0.88031  0.34305  0.0754  1.0000
  C   C25       1.0  0.97355  0.8168600000000003  0.12842  1.0000
  C   C26       1.0  0.05747999999999999  0.74295  0.10562  1.0000
  C   C27       1.0  0.22105000000000002  0.7475500000000002  0.12049  1.0000
  C   C28       1.0  0.29382000000000014  0.8254800000000002  0.15781  1.0000
  C   C29       1.0  0.20235999999999996  0.89644  0.17839  1.0000
  C   C30       1.0  0.9739799999999998  0.66237  0.06574  1.0000
  C   C31       1.0  0.74362  0.8566100000000002  0.96437  1.0000
  C   C32       1.0  0.6237300000000001  0.8103600000000001  0.00125  1.0000
  C   C33       1.0  0.58633  0.88518  0.03719  1.0000
  C   C34       1.0  0.6699  0.0010300000000000003  0.03501  1.0000
  C   C35       1.0  0.78835  0.03816  0.9971499999999999  1.0000
  C   C36       1.0  0.54129  0.6854600000000001  0.00231  1.0000
  C   C37       1.0  0.87067  0.17794000000000001  0.36481  1.0000
  C   C38       1.0  0.7924  0.25479  0.38755  1.0000
  C   C39       1.0  0.62406  0.24615  0.37655  1.0000
  C   C40       1.0  0.54064  0.16072  0.34361  1.0000
  C   C41       1.0  0.6274  0.08676000000000002  0.32294999999999996  1.0000
  C   C42       1.0  0.88031  0.34305  0.4246  1.0000
  C   C43       1.0  0.97355  0.8168600000000003  0.37158  1.0000
  C   C44       1.0  0.05747999999999999  0.74295  0.39438000000000006  1.0000
  C   C45       1.0  0.22105000000000002  0.7475500000000002  0.37951  1.0000
  C   C46       1.0  0.29382000000000014  0.8254800000000002  0.34219  1.0000
  C   C47       1.0  0.20235999999999996  0.89644  0.32161  1.0000
  C   C48       1.0  0.9739799999999998  0.66237  0.43426000000000003  1.0000
  C   C49       1.0  0.74362  0.8566100000000002  0.53563  1.0000
  C   C50       1.0  0.6237300000000001  0.8103600000000001  0.49875  1.0000
  C   C51       1.0  0.58633  0.88518  0.46281  1.0000
  C   C52       1.0  0.6699  0.0010300000000000003  0.46499  1.0000
  C   C53       1.0  0.78835  0.03816  0.50285  1.0000
  C   C54       1.0  0.54129  0.68547  0.49769  1.0000
  C   C55       1.0  0.12933  0.8220600000000001  0.86481  1.0000
  C   C56       1.0  0.20760000000000006  0.74521  0.88755  1.0000
  C   C57       1.0  0.3759400000000001  0.7538500000000002  0.8765500000000002  1.0000
  C   C58       1.0  0.45936  0.83928  0.84361  1.0000
  C   C59       1.0  0.3726  0.91324  0.82295  1.0000
  C   C60       1.0  0.1196900000000001  0.6569500000000001  0.9246  1.0000
  C   C61       1.0  0.02645  0.18313000000000001  0.87158  1.0000
  C   C62       1.0  0.94252  0.25705  0.89438  1.0000
  C   C63       1.0  0.77895  0.25245  0.8795100000000001  1.0000
  C   C64       1.0  0.7061700000000001  0.17451  0.84219  1.0000
  C   C65       1.0  0.79764  0.10356000000000001  0.8216100000000001  1.0000
  C   C66       1.0  0.02601000000000005  0.33763000000000004  0.93426  1.0000
  C   C67       1.0  0.25638  0.14339  0.03563  1.0000
  C   C68       1.0  0.37627  0.18963000000000005  0.99875  1.0000
  C   C69       1.0  0.41367  0.11482  0.96281  1.0000
  C   C70       1.0  0.3301  0.99897  0.96499  1.0000
  C   C71       1.0  0.21164999999999998  0.9618400000000001  0.00285  1.0000
  C   C72       1.0  0.45871  0.31453  0.9976900000000001  1.0000
  I   I1        1.0  0.84934  0.84673  0.75  1.0000
  I   I2        1.0  0.31915000000000004  0.17191000000000004  0.75  1.0000
  I   I3        1.0  0.15066  0.15327  0.25  1.0000
  I   I4        1.0  0.68085  0.82808  0.25  1.0000
  N   N1        1.0  0.21014000000000005  0.9059  0.66686  1.0000
  N   N2        1.0  0.95573  0.10668  0.66429  1.0000
  N   N3        1.0  0.1747  0.03183  0.46185  1.0000
  N   N4        1.0  0.78985  0.09410000000000002  0.16687  1.0000
  N   N5        1.0  0.04427000000000001  0.89332  0.16429  1.0000
  N   N6        1.0  0.82529  0.96817  0.9618500000000001  1.0000
  N   N7        1.0  0.78986  0.09410000000000002  0.3331299999999999  1.0000
  N   N8        1.0  0.04427000000000001  0.89332  0.33571  1.0000
  N   N9        1.0  0.8253  0.96817  0.53815  1.0000
  N   N10       1.0  0.21015000000000006  0.9059  0.83313  1.0000
  N   N11       1.0  0.95573  0.10668  0.83571  1.0000
  N   N12       1.0  0.17471  0.03183  0.03815  1.0000
  O   O1        1.0  0.96427  0.64472  0.56666  1.0000
  O   O2        1.0  0.20964  0.59957  0.55413  1.0000
  O   O3        1.0  0.94434  0.40056  0.54283  1.0000
  O   O4        1.0  0.17587999999999998  0.3435  0.55346  1.0000
  O   O5        1.0  0.57198  0.35326  0.53492  1.0000
  O   O6        1.0  0.41366  0.3804100000000001  0.4699  1.0000
  O   O7        1.0  0.035730000000000026  0.35528  0.06666  1.0000
  O   O8        1.0  0.79036  0.40043  0.05413  1.0000
  O   O9        1.0  0.05566  0.59943  0.04283000000000001  1.0000
  O   O10       1.0  0.82413  0.6564900000000001  0.05346  1.0000
  O   O11       1.0  0.42802  0.64674  0.03492  1.0000
  O   O12       1.0  0.58634  0.61959  0.9699  1.0000
  O   O13       1.0  0.035730000000000026  0.35528  0.43334  1.0000
  O   O14       1.0  0.79036  0.40043  0.44587  1.0000
  O   O15       1.0  0.05566  0.59943  0.45717  1.0000
  O   O16       1.0  0.8241200000000001  0.6564900000000001  0.44654000000000005  1.0000
  O   O17       1.0  0.42802  0.64674  0.46508  1.0000
  O   O18       1.0  0.58634  0.61959  0.5301  1.0000
  O   O19       1.0  0.96427  0.64472  0.93334  1.0000
  O   O20       1.0  0.20964  0.59957  0.94587  1.0000
  O   O21       1.0  0.94434  0.40056  0.95717  1.0000
  O   O22       1.0  0.17587  0.3435  0.94654  1.0000
  O   O23       1.0  0.57198  0.35326  0.96507  1.0000
  O   O24       1.0  0.41366  0.3804100000000001  0.0301  1.0000
