data_image0
_chemical_formula_structural       Eu8H28C72S12O50
_chemical_formula_sum              "Eu8 H28 C72 S12 O50"
_cell_length_a       11.41138
_cell_length_b       16.903269999999996
_cell_length_c       17.820080000000004
_cell_angle_alpha    90.3949
_cell_angle_beta     89.94879
_cell_angle_gamma    90.07639

_space_group_name_H-M_alt    "P 1"
_space_group_IT_number       1

loop_
  _space_group_symop_operation_xyz
  'x, y, z'

loop_
  _atom_site_type_symbol
  _atom_site_label
  _atom_site_symmetry_multiplicity
  _atom_site_fract_x
  _atom_site_fract_y
  _atom_site_fract_z
  _atom_site_occupancy
  Eu  Eu1       1.0  0.41990999999999995  0.59111  0.16801  1.0000
  Eu  Eu2       1.0  0.97021  0.03148  0.66363  1.0000
  Eu  Eu3       1.0  0.59024  0.37532  0.1732  1.0000
  Eu  Eu4       1.0  0.40981  0.8753600000000001  0.17414  1.0000
  Eu  Eu5       1.0  0.8790999999999999  0.7418700000000001  0.6758299999999999  1.0000
  Eu  Eu6       1.0  0.57984  0.09124000000000003  0.16822  1.0000
  Eu  Eu7       1.0  0.03322  0.52963  0.66487  1.0000
  Eu  Eu8       1.0  0.119  0.24228  0.67556  1.0000
  H   H1        1.0  0.25598  0.9178400000000002  0.99393  1.0000
  H   H2        1.0  0.38637  0.19025  0.36092  1.0000
  H   H3        1.0  0.15228  0.93711  0.86105  1.0000
  H   H4        1.0  0.5696  0.73431  0.21489  1.0000
  H   H5        1.0  0.43054  0.23398000000000005  0.21494  1.0000
  H   H6        1.0  0.2868  0.20476  0.49561  1.0000
  H   H7        1.0  0.11329999999999998  0.51182  0.4596199999999999  1.0000
  H   H8        1.0  0.22173  0.53004  0.32758  1.0000
  H   H9        1.0  0.61413  0.68971  0.35968  1.0000
  H   H10       1.0  0.6038  0.7794400000000001  0.97898  1.0000
  H   H11       1.0  0.76604  0.08513000000000001  0.82553  1.0000
  H   H12       1.0  0.57427  0.73303  0.12829  1.0000
  H   H13       1.0  0.77889  0.02989  0.32756  1.0000
  H   H14       1.0  0.70966  0.70479  0.49499999999999994  1.0000
  H   H15       1.0  0.8881899999999999  0.01281  0.45915  1.0000
  H   H16       1.0  0.6573  0.10103  0.9578499999999999  1.0000
  H   H17       1.0  0.30701  0.26811  0.84218  1.0000
  H   H18       1.0  0.69537  0.76837  0.8418099999999998  1.0000
  H   H19       1.0  0.09333  0.8517700000000002  0.49241000000000007  1.0000
  H   H20       1.0  0.90922  0.35198999999999997  0.49088999999999994  1.0000
  H   H21       1.0  0.84784  0.43697000000000014  0.86054  1.0000
  H   H22       1.0  0.23385999999999998  0.58517  0.82629  1.0000
  H   H23       1.0  0.18493  0.8650300000000001  0.35542  1.0000
  H   H24       1.0  0.74478  0.41799  0.994  1.0000
  H   H25       1.0  0.81708  0.36536  0.35408  1.0000
  H   H26       1.0  0.42587  0.23281  0.1284  1.0000
  H   H27       1.0  0.3973999999999999  0.27934  0.9797  1.0000
  H   H28       1.0  0.34242  0.60137  0.95798  1.0000
  C   C1        1.0  0.92535  0.21069000000000004  0.78354  1.0000
  C   C2        1.0  0.22667  0.63571  0.864  1.0000
  C   C3        1.0  0.81626  0.88219  0.55178  1.0000
  C   C4        1.0  0.70811  0.22821000000000005  0.28912  1.0000
  C   C5        1.0  0.847  0.22971  0.48979  1.0000
  C   C6        1.0  0.29512  0.31752  0.88066  1.0000
  C   C7        1.0  0.7731999999999999  0.13561  0.86341  1.0000
  C   C8        1.0  0.34673  0.04437  0.27903999999999995  1.0000
  C   C9        1.0  0.7166799999999999  0.65299  0.4589500000000001  1.0000
  C   C10       1.0  0.7063  0.23749  0.04609  1.0000
  C   C11       1.0  0.7931099999999999  0.48036000000000006  0.88896  1.0000
  C   C12       1.0  0.65937  0.8235800000000001  0.95283  1.0000
  C   C13       1.0  0.70653  0.81797  0.88021  1.0000
  C   C14       1.0  0.21783999999999998  0.08577000000000001  0.47889  1.0000
  C   C15       1.0  0.20723  0.9806100000000001  0.88928  1.0000
  C   C16       1.0  0.18444  0.38067000000000006  0.55067  1.0000
  C   C17       1.0  0.18181999999999998  0.47388  0.43694  1.0000
  C   C18       1.0  0.32381  0.42555  0.35498  1.0000
  C   C19       1.0  0.19074  0.08463000000000002  0.7849  1.0000
  C   C20       1.0  0.31144  0.39385  0.98922  1.0000
  C   C21       1.0  0.81952  0.97458  0.43717  1.0000
  C   C22       1.0  0.76263  0.9832  0.36783  1.0000
  C   C23       1.0  0.15298  0.6991700000000001  0.84853  1.0000
  C   C24       1.0  0.6455799999999999  0.9231700000000003  0.06249  1.0000
  C   C25       1.0  0.4021799999999999  0.41585  0.28964  1.0000
  C   C26       1.0  0.8635799999999999  0.30538  0.46039  1.0000
  C   C27       1.0  0.07458  0.7096  0.78347  1.0000
  C   C28       1.0  0.29178  0.72827  0.28975  1.0000
  C   C29       1.0  0.68869  0.8944900000000002  0.98861  1.0000
  C   C30       1.0  0.18633  0.81226  0.38969  1.0000
  C   C31       1.0  0.67507  0.5369800000000002  0.98085  1.0000
  C   C32       1.0  0.25297  0.7144700000000003  0.9704800000000001  1.0000
  C   C33       1.0  0.81133  0.58418  0.78484  1.0000
  C   C34       1.0  0.33249  0.14563  0.38781  1.0000
  C   C35       1.0  0.30766  0.07291  0.35382  1.0000
  C   C36       1.0  0.29359  0.73748  0.0467  1.0000
  C   C37       1.0  0.15189  0.72853  0.49019999999999997  1.0000
  C   C38       1.0  0.84681  0.19947  0.84833  1.0000
  C   C39       1.0  0.23844  0.74253  0.36426  1.0000
  C   C40       1.0  0.23855  0.48312999999999995  0.36749  1.0000
  C   C41       1.0  0.28135  0.15297  0.45932999999999996  1.0000
  C   C42       1.0  0.77948  0.58605  0.47991000000000006  1.0000
  C   C43       1.0  0.84444  0.57288  0.55014  1.0000
  C   C44       1.0  0.39418  0.04904000000000001  0.05047  1.0000
  C   C45       1.0  0.60589  0.54917  0.04988  1.0000
  C   C46       1.0  0.74679  0.21402  0.97007  1.0000
  C   C47       1.0  0.81884  0.90199  0.7853  1.0000
  C   C48       1.0  0.2608  0.97067  0.95954  1.0000
  C   C49       1.0  0.28341  0.64413  0.9332299999999999  1.0000
  C   C50       1.0  0.15031  0.06998  0.54721  1.0000
  C   C51       1.0  0.66749  0.64522  0.38703  1.0000
  C   C52       1.0  0.22997  0.38431  0.86141  1.0000
  C   C53       1.0  0.6533  0.54279  0.27928  1.0000
  C   C54       1.0  0.73973  0.47066000000000013  0.9593899999999999  1.0000
  C   C55       1.0  0.59772  0.91707  0.29129  1.0000
  C   C56       1.0  0.76848  0.5538300000000003  0.8573499999999998  1.0000
  C   C57       1.0  0.71645  0.14368000000000003  0.93281  1.0000
  C   C58       1.0  0.32549  0.036960000000000014  0.9812599999999999  1.0000
  C   C59       1.0  0.35457  0.42308  0.06272  1.0000
  C   C60       1.0  0.34164  0.32312  0.95337  1.0000
  C   C61       1.0  0.22473  0.40923  0.47675999999999996  1.0000
  C   C62       1.0  0.77111  0.88511  0.8607  1.0000
  C   C63       1.0  0.89464  0.19929  0.56112  1.0000
  C   C64       1.0  0.81457  0.3128  0.3886  1.0000
  C   C65       1.0  0.7604999999999998  0.24337  0.36386  1.0000
  C   C66       1.0  0.67705  0.9256400000000002  0.35607  1.0000
  C   C67       1.0  0.6927599999999999  0.57222  0.35375  1.0000
  C   C68       1.0  0.10394  0.6971  0.5611  1.0000
  C   C69       1.0  0.7767699999999998  0.9103200000000002  0.47757  1.0000
  C   C70       1.0  0.23202  0.05419  0.85775  1.0000
  C   C71       1.0  0.18117  0.4019300000000001  0.7865999999999999  1.0000
  C   C72       1.0  0.13736  0.80473  0.46155  1.0000
  S   S1        1.0  0.7673999999999999  0.16941  0.4301  1.0000
  S   S2        1.0  0.33403  0.36003  0.42857999999999996  1.0000
  S   S3        1.0  0.67922  0.6106  0.91425  1.0000
  S   S4        1.0  0.22337999999999997  0.45226  0.93389  1.0000
  S   S5        1.0  0.77742  0.5137400000000002  0.41116  1.0000
  S   S6        1.0  0.15466  0.76984  0.91952  1.0000
  S   S7        1.0  0.66743  0.86036  0.42988  1.0000
  S   S8        1.0  0.7765499999999999  0.9533  0.9330099999999999  1.0000
  S   S9        1.0  0.84517  0.2698300000000001  0.91952  1.0000
  S   S10       1.0  0.22876  0.6679200000000002  0.42951  1.0000
  S   S11       1.0  0.32121  0.11088000000000002  0.91489  1.0000
  S   S12       1.0  0.22167  0.013860000000000003  0.40971  1.0000
  O   O1        1.0  0.51945  0.73375  0.17046  1.0000
  O   O2        1.0  0.31375  0.80956  0.062360000000000006  1.0000
  O   O3        1.0  0.30401  0.6795800000000002  0.09144  1.0000
  O   O4        1.0  0.84789  0.62977  0.59824  1.0000
  O   O5        1.0  0.5534  0.61494  0.05954  1.0000
  O   O6        1.0  0.79494  0.8103500000000002  0.56805  1.0000
  O   O7        1.0  0.8959899999999998  0.5071800000000002  0.56002  1.0000
  O   O8        1.0  0.66792  0.159  0.27589  1.0000
  O   O9        1.0  0.88375  0.12588  0.5753899999999998  1.0000
  O   O10       1.0  0.05868999999999999  0.65089  0.73857  1.0000
  O   O11       1.0  0.11643  0.6235  0.57519  1.0000
  O   O12       1.0  0.39866  0.09555  0.23839999999999997  1.0000
  O   O13       1.0  0.59025  0.87294  0.10206  1.0000
  O   O14       1.0  0.12711  0.42901  0.59179  1.0000
  O   O15       1.0  0.79347  0.65657  0.769  1.0000
  O   O16       1.0  0.14248  0.12355000000000001  0.59875  1.0000
  O   O17       1.0  0.97666  0.2769700000000001  0.77648  1.0000
  O   O18       1.0  0.29189  0.78604  0.24429  1.0000
  O   O19       1.0  0.21049  0.15673  0.76857  1.0000
  O   O20       1.0  0.40028  0.99215  0.09734  1.0000
  O   O21       1.0  0.33272  0.65949  0.27573  1.0000
  O   O22       1.0  0.46164999999999995  0.35229  0.28427  1.0000
  O   O23       1.0  0.20699  0.30946  0.56817  1.0000
  O   O24       1.0  0.59956  0.5927900000000003  0.23858  1.0000
  O   O25       1.0  0.051179999999999996  0.7475  0.60257  1.0000
  O   O26       1.0  0.94198  0.15197000000000002  0.73854  1.0000
  O   O27       1.0  0.44650999999999996  0.11506000000000002  0.05996  1.0000
  O   O28       1.0  0.94615  0.25056  0.60265  1.0000
  O   O29       1.0  0.41006  0.37289000000000005  0.10216  1.0000
  O   O30       1.0  0.54125  0.85251  0.2839  1.0000
  O   O31       1.0  0.87664  0.9650300000000002  0.7732  1.0000
  O   O32       1.0  0.66437  0.9954400000000001  0.07945  1.0000
  O   O33       1.0  0.79276  0.8508  0.7348799999999999  1.0000
  O   O34       1.0  0.32562  0.97258  0.26146  1.0000
  O   O35       1.0  0.13695  0.03514  0.74264  1.0000
  O   O36       1.0  0.20581  0.3520200000000001  0.7348799999999999  1.0000
  O   O37       1.0  0.02314999999999999  0.7756200000000001  0.77633  1.0000
  O   O38       1.0  0.48072  0.23389  0.17046  1.0000
  O   O39       1.0  0.58864  0.97548  0.24640999999999996  1.0000
  O   O40       1.0  0.6864  0.30972  0.06114  1.0000
  O   O41       1.0  0.40755  0.47208  0.24217999999999998  1.0000
  O   O42       1.0  0.86436  0.53459  0.74258  1.0000
  O   O43       1.0  0.09792  0.00363  0.55313  1.0000
  O   O44       1.0  0.6756  0.47122000000000014  0.26163  1.0000
  O   O45       1.0  0.70838  0.28522  0.24277999999999997  1.0000
  O   O46       1.0  0.59973  0.49202000000000007  0.09644  1.0000
  O   O47       1.0  0.33587  0.49533000000000005  0.07935  1.0000
  O   O48       1.0  0.69618  0.18  0.09137999999999999  1.0000
  O   O49       1.0  0.12313  0.46522  0.77654  1.0000
  O   O50       1.0  0.86973  0.9311100000000001  0.59441  1.0000
