data_image0
_chemical_formula_structural       Mo8H72C56N24O8
_chemical_formula_sum              "Mo8 H72 C56 N24 O8"
_cell_length_a       11.86459
_cell_length_b       11.06806
_cell_length_c       15.93809
_cell_angle_alpha    89.89981
_cell_angle_beta     87.72253
_cell_angle_gamma    89.89152

_space_group_name_H-M_alt    "P 1"
_space_group_IT_number       1

loop_
  _space_group_symop_operation_xyz
  'x, y, z'

loop_
  _atom_site_type_symbol
  _atom_site_label
  _atom_site_symmetry_multiplicity
  _atom_site_fract_x
  _atom_site_fract_y
  _atom_site_fract_z
  _atom_site_occupancy
  Mo  Mo1       1.0  0.92093  0.61603  0.02851  1.0000
  Mo  Mo2       1.0  0.50094  0.3726  0.45706999999999987  1.0000
  Mo  Mo3       1.0  0.10957  0.14937  0.9820399999999998  1.0000
  Mo  Mo4       1.0  0.45872  0.8529700000000001  0.50693  1.0000
  Mo  Mo5       1.0  0.11154000000000001  0.3514300000000001  0.9808599999999997  1.0000
  Mo  Mo6       1.0  0.45993  0.64624  0.5069699999999998  1.0000
  Mo  Mo7       1.0  0.92035  0.88685  0.02856  1.0000
  Mo  Mo8       1.0  0.50037  0.12547  0.45812999999999987  1.0000
  H   H1        1.0  0.80406  0.56537  0.81098  1.0000
  H   H2        1.0  0.17391000000000006  0.55766  0.6019999999999998  1.0000
  H   H3        1.0  0.0011900000000000146  0.67108  0.7432399999999998  1.0000
  H   H4        1.0  0.9940999999999999  0.9452300000000001  0.6074599999999998  1.0000
  H   H5        1.0  0.9955599999999999  0.8679400000000002  0.50985  1.0000
  H   H6        1.0  0.8016300000000001  0.9449600000000002  0.5502699999999998  1.0000
  H   H7        1.0  0.81974  0.94738  0.7005199999999998  1.0000
  H   H8        1.0  0.69857  0.86102  0.6760999999999998  1.0000
  H   H9        1.0  0.47597999999999996  0.43573000000000006  0.69716  1.0000
  H   H10       1.0  0.84898  0.4429500000000001  0.8961599999999997  1.0000
  H   H11       1.0  0.6799699999999999  0.3302300000000001  0.7555699999999997  1.0000
  H   H12       1.0  0.6695500000000001  0.05575  0.89325  1.0000
  H   H13       1.0  0.6690399999999999  0.13444000000000003  0.9898  1.0000
  H   H14       1.0  0.47554  0.05796  0.9573899999999997  1.0000
  H   H15       1.0  0.49972  0.05399  0.8073299999999998  1.0000
  H   H16       1.0  0.37663000000000013  0.14048  0.8353499999999998  1.0000
  H   H17       1.0  0.15565  0.0594  0.20464999999999994  1.0000
  H   H18       1.0  0.81863  0.06361  0.42257  1.0000
  H   H19       1.0  0.95662  0.17078  0.29984  1.0000
  H   H20       1.0  0.96843  0.44759  0.4373799999999999  1.0000
  H   H21       1.0  0.96728  0.36707  0.53332  1.0000
  H   H22       1.0  0.15974999999999998  0.44684000000000007  0.48817  1.0000
  H   H23       1.0  0.13276  0.44617000000000007  0.3371  1.0000
  H   H24       1.0  0.2583  0.36719  0.3600899999999999  1.0000
  H   H25       1.0  0.57466  0.94309  0.2996999999999999  1.0000
  H   H26       1.0  0.2083  0.94222  0.08549999999999998  1.0000
  H   H27       1.0  0.38497  0.83237  0.21563999999999994  1.0000
  H   H28       1.0  0.38861999999999997  0.55395  0.07971999999999997  1.0000
  H   H29       1.0  0.38881  0.63306  0.98272  1.0000
  H   H30       1.0  0.58224  0.55449  0.01361  1.0000
  H   H31       1.0  0.55871  0.55518  0.16790999999999995  1.0000
  H   H32       1.0  0.68361  0.63395  0.13398  1.0000
  H   H33       1.0  0.157  0.44196000000000013  0.20411999999999994  1.0000
  H   H34       1.0  0.8198399999999999  0.4402500000000001  0.4197  1.0000
  H   H35       1.0  0.95643  0.33078  0.2990299999999999  1.0000
  H   H36       1.0  0.96883  0.05624  0.4391499999999999  1.0000
  H   H37       1.0  0.96758  0.13811000000000004  0.5343899999999998  1.0000
  H   H38       1.0  0.16034  0.057810000000000014  0.4901199999999999  1.0000
  H   H39       1.0  0.13386  0.05595  0.3388899999999999  1.0000
  H   H40       1.0  0.2588  0.1356  0.36126999999999987  1.0000
  H   H41       1.0  0.58151  0.55899  0.3001299999999999  1.0000
  H   H42       1.0  0.20738  0.55906  0.08559  1.0000
  H   H43       1.0  0.38439000000000006  0.67207  0.21750999999999995  1.0000
  H   H44       1.0  0.3892  0.9450400000000001  0.07627999999999997  1.0000
  H   H45       1.0  0.38923  0.86303  0.9806699999999998  1.0000
  H   H46       1.0  0.58293  0.9412000000000003  0.010119999999999997  1.0000
  H   H47       1.0  0.56065  0.94551  0.16464  1.0000
  H   H48       1.0  0.68447  0.86395  0.13155999999999995  1.0000
  H   H49       1.0  0.8037800000000002  0.93718  0.8101599999999998  1.0000
  H   H50       1.0  0.17427  0.94124  0.60287  1.0000
  H   H51       1.0  0.0011300000000000119  0.83109  0.7425499999999998  1.0000
  H   H52       1.0  0.99358  0.55555  0.6082499999999997  1.0000
  H   H53       1.0  0.99521  0.63254  0.51037  1.0000
  H   H54       1.0  0.80107  0.55697  0.55102  1.0000
  H   H55       1.0  0.82009  0.555  0.7013299999999998  1.0000
  H   H56       1.0  0.69854  0.64138  0.6768799999999998  1.0000
  H   H57       1.0  0.48287  0.062270000000000006  0.6990699999999997  1.0000
  H   H58       1.0  0.8495999999999999  0.05938  0.89375  1.0000
  H   H59       1.0  0.68049  0.16992  0.75646  1.0000
  H   H60       1.0  0.66819  0.44657  0.89148  1.0000
  H   H61       1.0  0.66811  0.369  0.9887499999999998  1.0000
  H   H62       1.0  0.4742  0.44446  0.9554599999999998  1.0000
  H   H63       1.0  0.49857000000000007  0.4462  0.8053699999999998  1.0000
  H   H64       1.0  0.37598  0.3597200000000001  0.8342499999999998  1.0000
  H   H65       1.0  0.82484  0.75071  0.46861  1.0000
  H   H66       1.0  0.70053  0.75128  0.53443  1.0000
  H   H67       1.0  0.49566  0.25187  0.0381  1.0000
  H   H68       1.0  0.37239  0.25107  0.9775399999999997  1.0000
  H   H69       1.0  0.14821000000000004  0.25291  0.5709799999999998  1.0000
  H   H70       1.0  0.26713  0.25232  0.50022  1.0000
  H   H71       1.0  0.56715  0.74665  0.93218  1.0000
  H   H72       1.0  0.6868600000000002  0.7472900000000001  0.9949799999999998  1.0000
  C   C1        1.0  0.8181  0.6406800000000001  0.85303  1.0000
  C   C2        1.0  0.20160000000000003  0.65021  0.5976399999999997  1.0000
  C   C3        1.0  0.96353  0.86448  0.57547  1.0000
  C   C4        1.0  0.83397  0.86276  0.57991  1.0000
  C   C5        1.0  0.7912999999999999  0.86269  0.6728  1.0000
  C   C6        1.0  0.49056  0.36109  0.65368  1.0000
  C   C7        1.0  0.87666  0.3506000000000001  0.8851899999999998  1.0000
  C   C8        1.0  0.6382  0.1374  0.9256799999999997  1.0000
  C   C9        1.0  0.50863  0.1399  0.92662  1.0000
  C   C10       1.0  0.46928  0.13883  0.83555  1.0000
  C   C11       1.0  0.16343999999999995  0.15149  0.18304  1.0000
  C   C12       1.0  0.76333  0.14144  0.43265  1.0000
  C   C13       1.0  0.99759  0.36458  0.46727  1.0000
  C   C14       1.0  0.12748000000000004  0.36393000000000003  0.45999  1.0000
  C   C15       1.0  0.16577999999999996  0.36434000000000005  0.3666599999999999  1.0000
  C   C16       1.0  0.57882  0.85022  0.32021  1.0000
  C   C17       1.0  0.18008  0.84969  0.09019999999999997  1.0000
  C   C18       1.0  0.4199800000000001  0.63534  0.04676  1.0000
  C   C19       1.0  0.54985  0.63624  0.04481  1.0000
  C   C20       1.0  0.59091  0.6361900000000001  0.13506  1.0000
  C   C21       1.0  0.16404999999999997  0.34978000000000004  0.18273  1.0000
  C   C22       1.0  0.76355  0.3635  0.4303599999999999  1.0000
  C   C23       1.0  0.99783  0.13963  0.4683099999999999  1.0000
  C   C24       1.0  0.12779  0.14024  0.46105  1.0000
  C   C25       1.0  0.16626  0.13836  0.36770999999999987  1.0000
  C   C26       1.0  0.58192  0.65197  0.32036  1.0000
  C   C27       1.0  0.17972  0.65187  0.09033999999999998  1.0000
  C   C28       1.0  0.42040999999999995  0.8625400000000001  0.04473  1.0000
  C   C29       1.0  0.55027  0.86073  0.04286  1.0000
  C   C30       1.0  0.59175  0.8630500000000001  0.13306  1.0000
  C   C31       1.0  0.81785  0.86211  0.8527199999999998  1.0000
  C   C32       1.0  0.20173  0.84855  0.59829  1.0000
  C   C33       1.0  0.96313  0.63638  0.57596  1.0000
  C   C34       1.0  0.8336300000000001  0.63905  0.5803099999999998  1.0000
  C   C35       1.0  0.79126  0.6395400000000001  0.6732499999999998  1.0000
  C   C36       1.0  0.49268  0.13669  0.65472  1.0000
  C   C37       1.0  0.8769100000000001  0.152  0.88399  1.0000
  C   C38       1.0  0.6374199999999998  0.36521  0.92461  1.0000
  C   C39       1.0  0.50787  0.36221000000000003  0.9254899999999998  1.0000
  C   C40       1.0  0.46860999999999997  0.3617  0.8343799999999998  1.0000
  C   C41       1.0  0.83797  0.75111  0.71863  1.0000
  C   C42       1.0  0.96865  0.7509000000000002  0.7109499999999997  1.0000
  C   C43       1.0  0.008290000000000004  0.75029  0.61813  1.0000
  C   C44       1.0  0.7926199999999999  0.75102  0.53428  1.0000
  C   C45       1.0  0.51676  0.24995  0.7871499999999998  1.0000
  C   C46       1.0  0.64662  0.25031  0.7892  1.0000
  C   C47       1.0  0.68374  0.25112000000000007  0.88036  1.0000
  C   C48       1.0  0.46482  0.25135  0.9739499999999998  1.0000
  C   C49       1.0  0.11996  0.25102  0.32445  1.0000
  C   C50       1.0  0.9892  0.25103  0.3313299999999999  1.0000
  C   C51       1.0  0.94853  0.25184  0.4245699999999999  1.0000
  C   C52       1.0  0.17405  0.25243000000000004  0.5039299999999998  1.0000
  C   C53       1.0  0.54733  0.75055  0.17993  1.0000
  C   C54       1.0  0.41639  0.75131  0.18243999999999994  1.0000
  C   C55       1.0  0.37523  0.74985  0.09174  1.0000
  C   C56       1.0  0.59446  0.74762  0.9973299999999998  1.0000
  N   N1        1.0  0.8422299999999999  0.61814  0.9312899999999997  1.0000
  N   N2        1.0  0.30692  0.68576  0.5768  1.0000
  N   N3        1.0  0.50411  0.38711000000000007  0.57504  1.0000
  N   N4        1.0  0.9829499999999999  0.31438  0.8923599999999998  1.0000
  N   N5        1.0  0.17498999999999998  0.18669  0.10239  1.0000
  N   N6        1.0  0.65606  0.1269  0.44268999999999986  1.0000
  N   N7        1.0  0.57182  0.81401  0.4000899999999999  1.0000
  N   N8        1.0  0.07319  0.81396  0.08399999999999998  1.0000
  N   N9        1.0  0.17559  0.31445  0.10216  1.0000
  N   N10       1.0  0.65629  0.38034  0.4389899999999999  1.0000
  N   N11       1.0  0.57366  0.68772  0.4002099999999999  1.0000
  N   N12       1.0  0.07302  0.68856  0.08432  1.0000
  N   N13       1.0  0.84257  0.88494  0.9307699999999998  1.0000
  N   N14       1.0  0.30686  0.8127  0.57718  1.0000
  N   N15       1.0  0.50309  0.11004000000000001  0.5760299999999998  1.0000
  N   N16       1.0  0.9830100000000002  0.18775  0.89189  1.0000
  N   N17       1.0  0.8108800000000003  0.75135  0.8134599999999997  1.0000
  N   N18       1.0  0.1338  0.74955  0.60922  1.0000
  N   N19       1.0  0.49005  0.24914  0.6944  1.0000
  N   N20       1.0  0.8085499999999999  0.25136  0.8814199999999998  1.0000
  N   N21       1.0  0.15481  0.25068  0.23372  1.0000
  N   N22       1.0  0.82047  0.25226  0.43206  1.0000
  N   N23       1.0  0.58248  0.75115  0.26859  1.0000
  N   N24       1.0  0.24949  0.75044  0.09218999999999997  1.0000
  O   O1        1.0  0.8524300000000001  0.7512200000000002  0.08377  1.0000
  O   O2        1.0  0.47399  0.24869  0.3749699999999999  1.0000
  O   O3        1.0  0.22202  0.24838000000000005  0.91865  1.0000
  O   O4        1.0  0.54104  0.75017  0.58271  1.0000
  O   O5        1.0  0.006160000000000001  0.4733700000000001  0.028929999999999994  1.0000
  O   O6        1.0  0.40553000000000006  0.50377  0.4336799999999999  1.0000
  O   O7        1.0  0.002  0.030950000000000005  0.03276  1.0000
  O   O8        1.0  0.40506000000000003  0.9942900000000001  0.43342  1.0000
