data_image0
_chemical_formula_structural       Cu12H24C72N96
_chemical_formula_sum              "Cu12 H24 C72 N96"
_cell_length_a       18.51891
_cell_length_b       18.51891
_cell_length_c       18.51891
_cell_angle_alpha    90.0
_cell_angle_beta     90.0
_cell_angle_gamma    90.0

_space_group_name_H-M_alt    "P 1"
_space_group_IT_number       1

loop_
  _space_group_symop_operation_xyz
  'x, y, z'

loop_
  _atom_site_type_symbol
  _atom_site_label
  _atom_site_symmetry_multiplicity
  _atom_site_fract_x
  _atom_site_fract_y
  _atom_site_fract_z
  _atom_site_occupancy
  Cu  Cu1       1.0  0.5  0.13399  0.0  1.0000
  Cu  Cu2       1.0  0.5  0.86601  0.0  1.0000
  Cu  Cu3       1.0  0.0  0.5  0.13399  1.0000
  Cu  Cu4       1.0  0.0  0.5  0.86601  1.0000
  Cu  Cu5       1.0  0.13399  0.0  0.5  1.0000
  Cu  Cu6       1.0  0.86601  0.0  0.5  1.0000
  Cu  Cu7       1.0  0.13399  0.5  0.0  1.0000
  Cu  Cu8       1.0  0.86601  0.5  0.0  1.0000
  Cu  Cu9       1.0  0.5  0.0  0.86601  1.0000
  Cu  Cu10      1.0  0.5  0.0  0.13399  1.0000
  Cu  Cu11      1.0  0.0  0.13399  0.5  1.0000
  Cu  Cu12      1.0  0.0  0.86601  0.5  1.0000
  H   H1        1.0  0.26462  0.26462  0.09988  1.0000
  H   H2        1.0  0.73538  0.73538  0.09988  1.0000
  H   H3        1.0  0.73538  0.26462  0.9001199999999999  1.0000
  H   H4        1.0  0.26462  0.73538  0.9001199999999999  1.0000
  H   H5        1.0  0.09988  0.26462  0.26462  1.0000
  H   H6        1.0  0.09988  0.73538  0.73538  1.0000
  H   H7        1.0  0.9001199999999999  0.73538  0.26462  1.0000
  H   H8        1.0  0.9001199999999999  0.26462  0.73538  1.0000
  H   H9        1.0  0.26462  0.09988  0.26462  1.0000
  H   H10       1.0  0.73538  0.09988  0.73538  1.0000
  H   H11       1.0  0.26462  0.9001199999999999  0.73538  1.0000
  H   H12       1.0  0.73538  0.9001199999999999  0.26462  1.0000
  H   H13       1.0  0.26462  0.26462  0.9001199999999999  1.0000
  H   H14       1.0  0.73538  0.73538  0.9001199999999999  1.0000
  H   H15       1.0  0.26462  0.73538  0.09988  1.0000
  H   H16       1.0  0.73538  0.26462  0.09988  1.0000
  H   H17       1.0  0.26462  0.09988  0.73538  1.0000
  H   H18       1.0  0.73538  0.09988  0.26462  1.0000
  H   H19       1.0  0.73538  0.9001199999999999  0.73538  1.0000
  H   H20       1.0  0.26462  0.9001199999999999  0.26462  1.0000
  H   H21       1.0  0.09988  0.26462  0.73538  1.0000
  H   H22       1.0  0.09988  0.73538  0.26462  1.0000
  H   H23       1.0  0.9001199999999999  0.26462  0.26462  1.0000
  H   H24       1.0  0.9001199999999999  0.73538  0.73538  1.0000
  C   C1        1.0  0.24073  0.24073  0.14792  1.0000
  C   C2        1.0  0.75926  0.75926  0.14792  1.0000
  C   C3        1.0  0.75926  0.24073  0.85207  1.0000
  C   C4        1.0  0.24073  0.75926  0.85207  1.0000
  C   C5        1.0  0.14792  0.24073  0.24073  1.0000
  C   C6        1.0  0.14792  0.75926  0.75926  1.0000
  C   C7        1.0  0.85207  0.75926  0.24073  1.0000
  C   C8        1.0  0.85207  0.24073  0.75926  1.0000
  C   C9        1.0  0.24073  0.14792  0.24073  1.0000
  C   C10       1.0  0.75926  0.14792  0.75926  1.0000
  C   C11       1.0  0.24073  0.85207  0.75926  1.0000
  C   C12       1.0  0.75926  0.85207  0.24073  1.0000
  C   C13       1.0  0.24073  0.24073  0.85207  1.0000
  C   C14       1.0  0.75926  0.75926  0.85207  1.0000
  C   C15       1.0  0.24073  0.75926  0.14792  1.0000
  C   C16       1.0  0.75926  0.24073  0.14792  1.0000
  C   C17       1.0  0.24073  0.14792  0.75926  1.0000
  C   C18       1.0  0.75926  0.14792  0.24073  1.0000
  C   C19       1.0  0.75926  0.85207  0.75926  1.0000
  C   C20       1.0  0.24073  0.85207  0.24073  1.0000
  C   C21       1.0  0.14792  0.24073  0.75926  1.0000
  C   C22       1.0  0.14792  0.75926  0.24073  1.0000
  C   C23       1.0  0.85207  0.24073  0.24073  1.0000
  C   C24       1.0  0.85207  0.75926  0.75926  1.0000
  C   C25       1.0  0.27161  0.17894  0.17894  1.0000
  C   C26       1.0  0.3362  0.14678  0.14678  1.0000
  C   C27       1.0  0.72838  0.82106  0.17894  1.0000
  C   C28       1.0  0.6638  0.85322  0.14678  1.0000
  C   C29       1.0  0.72838  0.17894  0.82106  1.0000
  C   C30       1.0  0.6638  0.14678  0.85322  1.0000
  C   C31       1.0  0.27161  0.82106  0.82106  1.0000
  C   C32       1.0  0.3362  0.85322  0.85322  1.0000
  C   C33       1.0  0.17894  0.27161  0.17894  1.0000
  C   C34       1.0  0.14678  0.3362  0.14678  1.0000
  C   C35       1.0  0.17894  0.72838  0.82106  1.0000
  C   C36       1.0  0.14678  0.6638  0.85322  1.0000
  C   C37       1.0  0.82106  0.72838  0.17894  1.0000
  C   C38       1.0  0.85322  0.6638  0.14678  1.0000
  C   C39       1.0  0.82106  0.27161  0.82106  1.0000
  C   C40       1.0  0.85322  0.3362  0.85322  1.0000
  C   C41       1.0  0.17894  0.17894  0.27161  1.0000
  C   C42       1.0  0.14678  0.14678  0.3362  1.0000
  C   C43       1.0  0.82106  0.17894  0.72838  1.0000
  C   C44       1.0  0.85322  0.14678  0.6638  1.0000
  C   C45       1.0  0.17894  0.82106  0.72838  1.0000
  C   C46       1.0  0.14678  0.85322  0.6638  1.0000
  C   C47       1.0  0.82106  0.82106  0.27161  1.0000
  C   C48       1.0  0.85322  0.85322  0.3362  1.0000
  C   C49       1.0  0.17894  0.27161  0.82106  1.0000
  C   C50       1.0  0.14678  0.3362  0.85322  1.0000
  C   C51       1.0  0.82106  0.72838  0.82106  1.0000
  C   C52       1.0  0.85322  0.6638  0.85322  1.0000
  C   C53       1.0  0.17894  0.72838  0.17894  1.0000
  C   C54       1.0  0.14678  0.6638  0.14678  1.0000
  C   C55       1.0  0.82106  0.27161  0.17894  1.0000
  C   C56       1.0  0.85322  0.3362  0.14678  1.0000
  C   C57       1.0  0.27161  0.17894  0.82106  1.0000
  C   C58       1.0  0.3362  0.14678  0.85322  1.0000
  C   C59       1.0  0.72838  0.17894  0.17894  1.0000
  C   C60       1.0  0.6638  0.14678  0.14678  1.0000
  C   C61       1.0  0.72838  0.82106  0.82106  1.0000
  C   C62       1.0  0.6638  0.85322  0.85322  1.0000
  C   C63       1.0  0.27161  0.82106  0.17894  1.0000
  C   C64       1.0  0.3362  0.85322  0.14678  1.0000
  C   C65       1.0  0.17894  0.17894  0.72838  1.0000
  C   C66       1.0  0.14678  0.14678  0.6638  1.0000
  C   C67       1.0  0.17894  0.82106  0.27161  1.0000
  C   C68       1.0  0.14678  0.85322  0.3362  1.0000
  C   C69       1.0  0.82106  0.17894  0.27161  1.0000
  C   C70       1.0  0.85322  0.14678  0.3362  1.0000
  C   C71       1.0  0.82106  0.82106  0.72838  1.0000
  C   C72       1.0  0.85322  0.85322  0.6638  1.0000
  N   N1        1.0  0.36978  0.173  0.08729  1.0000
  N   N2        1.0  0.425  0.12888  0.07739  1.0000
  N   N3        1.0  0.63022  0.827  0.08729  1.0000
  N   N4        1.0  0.575  0.87112  0.07739  1.0000
  N   N5        1.0  0.63022  0.173  0.91271  1.0000
  N   N6        1.0  0.575  0.12888  0.9226099999999999  1.0000
  N   N7        1.0  0.36978  0.827  0.91271  1.0000
  N   N8        1.0  0.425  0.87112  0.9226099999999999  1.0000
  N   N9        1.0  0.08729  0.36978  0.173  1.0000
  N   N10       1.0  0.07739  0.425  0.12888  1.0000
  N   N11       1.0  0.08729  0.63022  0.827  1.0000
  N   N12       1.0  0.07739  0.575  0.87112  1.0000
  N   N13       1.0  0.91271  0.63022  0.173  1.0000
  N   N14       1.0  0.9226099999999999  0.575  0.12888  1.0000
  N   N15       1.0  0.91271  0.36978  0.827  1.0000
  N   N16       1.0  0.9226099999999999  0.425  0.87112  1.0000
  N   N17       1.0  0.173  0.08729  0.36978  1.0000
  N   N18       1.0  0.12888  0.07739  0.425  1.0000
  N   N19       1.0  0.827  0.08729  0.63022  1.0000
  N   N20       1.0  0.87112  0.07739  0.575  1.0000
  N   N21       1.0  0.173  0.91271  0.63022  1.0000
  N   N22       1.0  0.12888  0.9226099999999999  0.575  1.0000
  N   N23       1.0  0.827  0.91271  0.36978  1.0000
  N   N24       1.0  0.87112  0.9226099999999999  0.425  1.0000
  N   N25       1.0  0.173  0.36978  0.91271  1.0000
  N   N26       1.0  0.12888  0.425  0.9226099999999999  1.0000
  N   N27       1.0  0.827  0.63022  0.91271  1.0000
  N   N28       1.0  0.87112  0.575  0.9226099999999999  1.0000
  N   N29       1.0  0.173  0.63022  0.08729  1.0000
  N   N30       1.0  0.12888  0.575  0.07739  1.0000
  N   N31       1.0  0.827  0.36978  0.08729  1.0000
  N   N32       1.0  0.87112  0.425  0.07739  1.0000
  N   N33       1.0  0.36978  0.08729  0.827  1.0000
  N   N34       1.0  0.425  0.07739  0.87112  1.0000
  N   N35       1.0  0.63022  0.08729  0.173  1.0000
  N   N36       1.0  0.575  0.07739  0.12888  1.0000
  N   N37       1.0  0.63022  0.91271  0.827  1.0000
  N   N38       1.0  0.575  0.9226099999999999  0.87112  1.0000
  N   N39       1.0  0.36978  0.91271  0.173  1.0000
  N   N40       1.0  0.425  0.9226099999999999  0.12888  1.0000
  N   N41       1.0  0.08729  0.173  0.63022  1.0000
  N   N42       1.0  0.07739  0.12888  0.575  1.0000
  N   N43       1.0  0.08729  0.827  0.36978  1.0000
  N   N44       1.0  0.07739  0.87112  0.425  1.0000
  N   N45       1.0  0.91271  0.173  0.36978  1.0000
  N   N46       1.0  0.9226099999999999  0.12888  0.425  1.0000
  N   N47       1.0  0.91271  0.827  0.63022  1.0000
  N   N48       1.0  0.9226099999999999  0.87112  0.575  1.0000
  N   N49       1.0  0.63022  0.827  0.91271  1.0000
  N   N50       1.0  0.575  0.87112  0.9226099999999999  1.0000
  N   N51       1.0  0.36978  0.173  0.91271  1.0000
  N   N52       1.0  0.425  0.12888  0.9226099999999999  1.0000
  N   N53       1.0  0.36978  0.827  0.08729  1.0000
  N   N54       1.0  0.425  0.87112  0.07739  1.0000
  N   N55       1.0  0.63022  0.173  0.08729  1.0000
  N   N56       1.0  0.575  0.12888  0.07739  1.0000
  N   N57       1.0  0.91271  0.63022  0.827  1.0000
  N   N58       1.0  0.9226099999999999  0.575  0.87112  1.0000
  N   N59       1.0  0.91271  0.36978  0.173  1.0000
  N   N60       1.0  0.9226099999999999  0.425  0.12888  1.0000
  N   N61       1.0  0.08729  0.36978  0.827  1.0000
  N   N62       1.0  0.07739  0.425  0.87112  1.0000
  N   N63       1.0  0.08729  0.63022  0.173  1.0000
  N   N64       1.0  0.07739  0.575  0.12888  1.0000
  N   N65       1.0  0.827  0.91271  0.63022  1.0000
  N   N66       1.0  0.87112  0.9226099999999999  0.575  1.0000
  N   N67       1.0  0.173  0.91271  0.36978  1.0000
  N   N68       1.0  0.12888  0.9226099999999999  0.425  1.0000
  N   N69       1.0  0.827  0.08729  0.36978  1.0000
  N   N70       1.0  0.87112  0.07739  0.425  1.0000
  N   N71       1.0  0.173  0.08729  0.63022  1.0000
  N   N72       1.0  0.12888  0.07739  0.575  1.0000
  N   N73       1.0  0.827  0.63022  0.08729  1.0000
  N   N74       1.0  0.87112  0.575  0.07739  1.0000
  N   N75       1.0  0.173  0.36978  0.08729  1.0000
  N   N76       1.0  0.12888  0.425  0.07739  1.0000
  N   N77       1.0  0.827  0.36978  0.91271  1.0000
  N   N78       1.0  0.87112  0.425  0.9226099999999999  1.0000
  N   N79       1.0  0.173  0.63022  0.91271  1.0000
  N   N80       1.0  0.12888  0.575  0.9226099999999999  1.0000
  N   N81       1.0  0.63022  0.91271  0.173  1.0000
  N   N82       1.0  0.575  0.9226099999999999  0.12888  1.0000
  N   N83       1.0  0.36978  0.91271  0.827  1.0000
  N   N84       1.0  0.425  0.9226099999999999  0.87112  1.0000
  N   N85       1.0  0.36978  0.08729  0.173  1.0000
  N   N86       1.0  0.425  0.07739  0.12888  1.0000
  N   N87       1.0  0.63022  0.08729  0.827  1.0000
  N   N88       1.0  0.575  0.07739  0.87112  1.0000
  N   N89       1.0  0.91271  0.827  0.36978  1.0000
  N   N90       1.0  0.9226099999999999  0.87112  0.425  1.0000
  N   N91       1.0  0.91271  0.173  0.63022  1.0000
  N   N92       1.0  0.9226099999999999  0.12888  0.575  1.0000
  N   N93       1.0  0.08729  0.827  0.63022  1.0000
  N   N94       1.0  0.07739  0.87112  0.575  1.0000
  N   N95       1.0  0.08729  0.173  0.36978  1.0000
  N   N96       1.0  0.07739  0.12888  0.425  1.0000
