data_image0
_chemical_formula_structural       Zn4H64C96N16O16
_chemical_formula_sum              "Zn4 H64 C96 N16 O16"
_cell_length_a       11.41286
_cell_length_b       13.501649999999998
_cell_length_c       18.4865
_cell_angle_alpha    100.60466000000001
_cell_angle_beta     89.93596
_cell_angle_gamma    115.51532999999999

_space_group_name_H-M_alt    "P 1"
_space_group_IT_number       1

loop_
  _space_group_symop_operation_xyz
  'x, y, z'

loop_
  _atom_site_type_symbol
  _atom_site_label
  _atom_site_symmetry_multiplicity
  _atom_site_fract_x
  _atom_site_fract_y
  _atom_site_fract_z
  _atom_site_occupancy
  Zn  Zn1       1.0  0.97602  0.3949299999999999  0.4056299999999999  1.0000
  Zn  Zn2       1.0  0.57917  0.6059499999999999  0.09525  1.0000
  Zn  Zn3       1.0  0.023979999999999908  0.6050699999999998  0.59438  1.0000
  Zn  Zn4       1.0  0.42083000000000004  0.39405  0.90475  1.0000
  H   H1        1.0  0.14977  0.63965  0.29924  1.0000
  H   H2        1.0  0.23983000000000004  0.79515  0.22764999999999996  1.0000
  H   H3        1.0  0.25461  0.03223999999999998  0.42129  1.0000
  H   H4        1.0  0.16347  0.87643  0.49266  1.0000
  H   H5        1.0  0.8195700000000001  0.34297999999999995  0.12962  1.0000
  H   H6        1.0  0.64966  0.20567  0.02946  1.0000
  H   H7        1.0  0.57511  0.9432899999999999  0.14906  1.0000
  H   H8        1.0  0.7442600000000001  0.08423  0.25074  1.0000
  H   H9        1.0  0.12498999999999995  0.2935599999999999  0.48192999999999997  1.0000
  H   H10       1.0  0.34226999999999996  0.2907599999999999  0.4811699999999999  1.0000
  H   H11       1.0  0.42357  0.4767499999999999  0.30446  1.0000
  H   H12       1.0  0.20256  0.47079  0.31402  1.0000
  H   H13       1.0  0.47879  0.22629999999999997  0.4215  1.0000
  H   H14       1.0  0.70551  0.24876  0.4325199999999999  1.0000
  H   H15       1.0  0.85122  0.55604  0.36981  1.0000
  H   H16       1.0  0.62983  0.54833  0.35691  1.0000
  H   H17       1.0  0.50983  0.36138  0.20039999999999997  1.0000
  H   H18       1.0  0.44575000000000004  0.20604999999999993  0.27176999999999996  1.0000
  H   H19       1.0  0.22236999999999985  0.9668499999999998  0.07815999999999997  1.0000
  H   H20       1.0  0.28590999999999994  0.12255999999999996  0.00694  1.0000
  H   H21       1.0  0.47597999999999985  0.6584099999999998  0.37191  1.0000
  H   H22       1.0  0.4439100000000001  0.79549  0.47157999999999994  1.0000
  H   H23       1.0  0.63202  0.056759999999999956  0.3508399999999999  1.0000
  H   H24       1.0  0.66009  0.9166899999999998  0.24949  1.0000
  H   H25       1.0  0.83322  0.70713  0.018889999999999994  1.0000
  H   H26       1.0  0.052579999999999856  0.7084399999999997  0.01875  1.0000
  H   H27       1.0  0.94469  0.5230399999999998  0.1957  1.0000
  H   H28       1.0  0.72999  0.52986  0.1868  1.0000
  H   H29       1.0  0.25510000000000005  0.77364  0.07810999999999998  1.0000
  H   H30       1.0  0.45897  0.7513299999999998  0.06705  1.0000
  H   H31       1.0  0.29196  0.44422999999999996  0.13001999999999997  1.0000
  H   H32       1.0  0.07835999999999994  0.4517599999999999  0.14312999999999998  1.0000
  H   H33       1.0  0.85023  0.3603499999999999  0.7007699999999998  1.0000
  H   H34       1.0  0.76018  0.20484999999999998  0.7723499999999999  1.0000
  H   H35       1.0  0.7454000000000001  0.9677599999999997  0.57871  1.0000
  H   H36       1.0  0.83653  0.12356999999999996  0.50734  1.0000
  H   H37       1.0  0.18042999999999992  0.6570099999999998  0.87039  1.0000
  H   H38       1.0  0.35034  0.79433  0.9705399999999998  1.0000
  H   H39       1.0  0.42489000000000005  0.056709999999999955  0.8509399999999999  1.0000
  H   H40       1.0  0.25574  0.91576  0.7492599999999998  1.0000
  H   H41       1.0  0.87501  0.7064399999999998  0.51807  1.0000
  H   H42       1.0  0.6577300000000003  0.70924  0.51883  1.0000
  H   H43       1.0  0.5764300000000001  0.5232499999999999  0.6955399999999998  1.0000
  H   H44       1.0  0.79745  0.52921  0.6859899999999998  1.0000
  H   H45       1.0  0.5212199999999999  0.7736999999999999  0.5785  1.0000
  H   H46       1.0  0.2944999999999999  0.7512399999999999  0.5674799999999998  1.0000
  H   H47       1.0  0.14879  0.44395999999999997  0.63019  1.0000
  H   H48       1.0  0.37018  0.4516699999999999  0.6430899999999999  1.0000
  H   H49       1.0  0.49018  0.63862  0.79961  1.0000
  H   H50       1.0  0.55425  0.79395  0.72823  1.0000
  H   H51       1.0  0.7776399999999999  0.03314999999999996  0.9218399999999999  1.0000
  H   H52       1.0  0.71409  0.8774399999999998  0.9930599999999999  1.0000
  H   H53       1.0  0.52402  0.3415799999999999  0.6281  1.0000
  H   H54       1.0  0.55609  0.20451  0.52842  1.0000
  H   H55       1.0  0.36799000000000004  0.94323  0.64916  1.0000
  H   H56       1.0  0.33990999999999993  0.08330999999999994  0.7505199999999999  1.0000
  H   H57       1.0  0.16677999999999998  0.29286999999999996  0.98111  1.0000
  H   H58       1.0  0.94742  0.29156  0.98126  1.0000
  H   H59       1.0  0.05530999999999992  0.4769599999999999  0.8043  1.0000
  H   H60       1.0  0.2700099999999999  0.47013999999999984  0.8131999999999998  1.0000
  H   H61       1.0  0.7449  0.22635999999999998  0.9218999999999999  1.0000
  H   H62       1.0  0.54104  0.24866999999999995  0.9329499999999998  1.0000
  H   H63       1.0  0.70804  0.55577  0.86999  1.0000
  H   H64       1.0  0.9216399999999999  0.5482399999999998  0.8568799999999998  1.0000
  C   C1        1.0  0.09445000000000003  0.65637  0.44102  1.0000
  C   C2        1.0  0.15058999999999986  0.7495799999999999  0.39958999999999995  1.0000
  C   C3        1.0  0.17303000000000007  0.72599  0.32483  1.0000
  C   C4        1.0  0.2221200000000001  0.81116  0.28537  1.0000
  C   C5        1.0  0.24990999999999988  0.9216599999999998  0.32051  1.0000
  C   C6        1.0  0.23062999999999992  0.9458299999999997  0.39551999999999987  1.0000
  C   C7        1.0  0.17998  0.8599099999999998  0.4346999999999999  1.0000
  C   C8        1.0  0.8881700000000002  0.30267  0.25863  1.0000
  C   C9        1.0  0.79195  0.22033  0.196  1.0000
  C   C10       1.0  0.76667  0.25532  0.13312  1.0000
  C   C11       1.0  0.67312  0.17953999999999998  0.0773  1.0000
  C   C12       1.0  0.60418  0.06629  0.08269  1.0000
  C   C13       1.0  0.62944  0.03084999999999998  0.1453  1.0000
  C   C14       1.0  0.72243  0.10788999999999994  0.20128999999999994  1.0000
  C   C15       1.0  0.19458999999999999  0.33205999999999997  0.44352  1.0000
  C   C16       1.0  0.31547  0.33025999999999994  0.44203999999999993  1.0000
  C   C17       1.0  0.40265  0.38365  0.39239  1.0000
  C   C18       1.0  0.36103  0.43411  0.34453  1.0000
  C   C19       1.0  0.23836  0.4319499999999999  0.34958  1.0000
  C   C20       1.0  0.53483  0.38909999999999983  0.3927499999999999  1.0000
  C   C21       1.0  0.5584  0.30308  0.4121799999999999  1.0000
  C   C22       1.0  0.68514  0.31448  0.41759  1.0000
  C   C23       1.0  0.7661  0.4856999999999999  0.38236  1.0000
  C   C24       1.0  0.6420900000000003  0.48094999999999993  0.37543  1.0000
  C   C25       1.0  0.43638000000000005  0.34268999999999994  0.057749999999999996  1.0000
  C   C26       1.0  0.4001  0.25038999999999995  0.09986999999999997  1.0000
  C   C27       1.0  0.44672000000000006  0.27471  0.17463999999999993  1.0000
  C   C28       1.0  0.4113  0.18961  0.21409999999999996  1.0000
  C   C29       1.0  0.32852  0.07852  0.17903  1.0000
  C   C30       1.0  0.28459  0.05366  0.10401  1.0000
  C   C31       1.0  0.31927000000000005  0.13946  0.06489  1.0000
  C   C32       1.0  0.58339  0.69772  0.24253  1.0000
  C   C33       1.0  0.5711  0.78056  0.30486  1.0000
  C   C34       1.0  0.51096  0.7458  0.36802  1.0000
  C   C35       1.0  0.49348  0.82135  0.4235199999999999  1.0000
  C   C36       1.0  0.53796  0.93412  0.41757  1.0000
  C   C37       1.0  0.59876  0.9694399999999999  0.35477  1.0000
  C   C38       1.0  0.6144999999999997  0.8926799999999995  0.29901  1.0000
  C   C39       1.0  0.86329  0.6683499999999999  0.05716999999999999  1.0000
  C   C40       1.0  0.98569  0.6694599999999999  0.058159999999999996  1.0000
  C   C41       1.0  0.018529999999999994  0.61609  0.10771999999999997  1.0000
  C   C42       1.0  0.9254900000000001  0.5657199999999999  0.15572999999999995  1.0000
  C   C43       1.0  0.8052900000000001  0.56853  0.15109  1.0000
  C   C44       1.0  0.14527999999999988  0.6108199999999998  0.10710999999999997  1.0000
  C   C45       1.0  0.25643  0.6969  0.08753  1.0000
  C   C46       1.0  0.37161  0.68562  0.08204  1.0000
  C   C47       1.0  0.27830999999999995  0.5144099999999999  0.11739999999999999  1.0000
  C   C48       1.0  0.15911  0.51909  0.12442  1.0000
  C   C49       1.0  0.9055600000000001  0.3436299999999999  0.5589799999999999  1.0000
  C   C50       1.0  0.84941  0.25041999999999986  0.6004099999999998  1.0000
  C   C51       1.0  0.8269700000000001  0.27399999999999997  0.67518  1.0000
  C   C52       1.0  0.77789  0.18884  0.71463  1.0000
  C   C53       1.0  0.75009  0.07834000000000002  0.67949  1.0000
  C   C54       1.0  0.7693800000000001  0.05415999999999995  0.6044799999999998  1.0000
  C   C55       1.0  0.82002  0.14008999999999994  0.5653  1.0000
  C   C56       1.0  0.11183999999999995  0.6973299999999998  0.7413699999999998  1.0000
  C   C57       1.0  0.20806  0.7796699999999999  0.80401  1.0000
  C   C58       1.0  0.23333000000000004  0.74468  0.86689  1.0000
  C   C59       1.0  0.3268799999999999  0.8204599999999997  0.9227  1.0000
  C   C60       1.0  0.39582999999999996  0.9337099999999999  0.9173099999999998  1.0000
  C   C61       1.0  0.37056000000000006  0.9691400000000001  0.8547  1.0000
  C   C62       1.0  0.27757999999999994  0.8921099999999997  0.7987099999999998  1.0000
  C   C63       1.0  0.8054099999999998  0.6679299999999999  0.5564799999999999  1.0000
  C   C64       1.0  0.68453  0.66974  0.55796  1.0000
  C   C65       1.0  0.59735  0.6163499999999998  0.6076199999999999  1.0000
  C   C66       1.0  0.63897  0.5658899999999999  0.65547  1.0000
  C   C67       1.0  0.76164  0.56805  0.65043  1.0000
  C   C68       1.0  0.4651699999999999  0.6108999999999999  0.6072499999999998  1.0000
  C   C69       1.0  0.44159999999999994  0.6969199999999998  0.5878199999999998  1.0000
  C   C70       1.0  0.31487  0.6855099999999998  0.5824199999999999  1.0000
  C   C71       1.0  0.2338999999999999  0.5142999999999998  0.6176499999999998  1.0000
  C   C72       1.0  0.35791  0.51905  0.62457  1.0000
  C   C73       1.0  0.56363  0.65731  0.9422499999999999  1.0000
  C   C74       1.0  0.59991  0.74961  0.90013  1.0000
  C   C75       1.0  0.5532799999999999  0.7252899999999999  0.82536  1.0000
  C   C76       1.0  0.5887  0.8103899999999998  0.7859  1.0000
  C   C77       1.0  0.6714800000000001  0.9214800000000001  0.82098  1.0000
  C   C78       1.0  0.71541  0.94634  0.89599  1.0000
  C   C79       1.0  0.68073  0.8605399999999997  0.93511  1.0000
  C   C80       1.0  0.4166099999999999  0.3022799999999999  0.7574699999999998  1.0000
  C   C81       1.0  0.42890000000000006  0.21944  0.69514  1.0000
  C   C82       1.0  0.48904  0.2542  0.63198  1.0000
  C   C83       1.0  0.50653  0.17864999999999995  0.5764899999999998  1.0000
  C   C84       1.0  0.4620400000000001  0.06587999999999995  0.58243  1.0000
  C   C85       1.0  0.40124000000000004  0.03056000000000002  0.64523  1.0000
  C   C86       1.0  0.3855  0.10732  0.70099  1.0000
  C   C87       1.0  0.13671999999999998  0.3316499999999999  0.94283  1.0000
  C   C88       1.0  0.014309999999999986  0.33054  0.9418399999999999  1.0000
  C   C89       1.0  0.9814699999999997  0.3839099999999999  0.89229  1.0000
  C   C90       1.0  0.07450999999999998  0.43428  0.84428  1.0000
  C   C91       1.0  0.19472000000000003  0.43146  0.84891  1.0000
  C   C92       1.0  0.85473  0.38918  0.8928899999999999  1.0000
  C   C93       1.0  0.7435700000000001  0.3030999999999999  0.9124699999999999  1.0000
  C   C94       1.0  0.6284  0.31437999999999994  0.9179599999999999  1.0000
  C   C95       1.0  0.7217  0.48558999999999997  0.8826  1.0000
  C   C96       1.0  0.84089  0.4809099999999999  0.8755799999999999  1.0000
  N   N1        1.0  0.15684  0.38322  0.39883  1.0000
  N   N2        1.0  0.78871  0.40556  0.40478999999999987  1.0000
  N   N3        1.0  0.29651  0.013919999999999965  0.28501999999999994  1.0000
  N   N4        1.0  0.5075799999999999  0.9831099999999999  0.02898  1.0000
  N   N5        1.0  0.7735300000000002  0.6177599999999999  0.10218999999999998  1.0000
  N   N6        1.0  0.38241  0.59457  0.09484  1.0000
  N   N7        1.0  0.28313999999999995  0.98633  0.21454999999999994  1.0000
  N   N8        1.0  0.52475  0.016929999999999962  0.4710099999999999  1.0000
  N   N9        1.0  0.8431600000000002  0.6167799999999999  0.60118  1.0000
  N   N10       1.0  0.21128999999999998  0.59444  0.59521  1.0000
  N   N11       1.0  0.70349  0.9860799999999997  0.71498  1.0000
  N   N12       1.0  0.4924200000000001  0.016890000000000027  0.97103  1.0000
  N   N13       1.0  0.22647  0.38224  0.8978099999999999  1.0000
  N   N14       1.0  0.61759  0.40542999999999985  0.9051699999999999  1.0000
  N   N15       1.0  0.7168600000000002  0.013669999999999996  0.78545  1.0000
  N   N16       1.0  0.47525  0.98307  0.5289899999999997  1.0000
  O   O1        1.0  0.08123  0.56057  0.40773  1.0000
  O   O2        1.0  0.9606499999999998  0.4008199999999999  0.25092  1.0000
  O   O3        1.0  0.88654  0.26560999999999996  0.31859999999999994  1.0000
  O   O4        1.0  0.06321  0.68077  0.5059999999999999  1.0000
  O   O5        1.0  0.5188699999999999  0.43964999999999993  0.09048999999999997  1.0000
  O   O6        1.0  0.5559399999999999  0.5997099999999999  0.25057  1.0000
  O   O7        1.0  0.6193399999999999  0.73427  0.18237999999999996  1.0000
  O   O8        1.0  0.3806999999999999  0.31597999999999987  0.9924299999999999  1.0000
  O   O9        1.0  0.9187700000000001  0.4394299999999999  0.59227  1.0000
  O   O10       1.0  0.03934999999999994  0.5991799999999999  0.7490799999999997  1.0000
  O   O11       1.0  0.11346  0.73439  0.6813999999999998  1.0000
  O   O12       1.0  0.93679  0.31922999999999996  0.494  1.0000
  O   O13       1.0  0.48113000000000006  0.56035  0.90952  1.0000
  O   O14       1.0  0.44406000000000007  0.40029  0.7494299999999998  1.0000
  O   O15       1.0  0.38067  0.2657299999999999  0.8176199999999998  1.0000
  O   O16       1.0  0.6192999999999999  0.6840199999999999  0.0075699999999999995  1.0000
