data_image0
_chemical_formula_structural       Mg12H36C84N12O48
_chemical_formula_sum              "Mg12 H36 C84 N12 O48"
_cell_length_a       11.2087
_cell_length_b       13.43822
_cell_length_c       28.07099
_cell_angle_alpha    100.053
_cell_angle_beta     90.01225000000001
_cell_angle_gamma    89.87893

_space_group_name_H-M_alt    "P 1"
_space_group_IT_number       1

loop_
  _space_group_symop_operation_xyz
  'x, y, z'

loop_
  _atom_site_type_symbol
  _atom_site_label
  _atom_site_symmetry_multiplicity
  _atom_site_fract_x
  _atom_site_fract_y
  _atom_site_fract_z
  _atom_site_occupancy
  Mg  Mg1       1.0  0.18714999999999998  0.3763699999999999  0.8539099999999998  1.0000
  Mg  Mg2       1.0  0.46005  0.53763  0.83076  1.0000
  Mg  Mg3       1.0  0.28698  0.29983  0.14361  1.0000
  Mg  Mg4       1.0  0.68649  0.12026999999999997  0.6461099999999999  1.0000
  Mg  Mg5       1.0  0.9590999999999997  0.96102  0.66896  1.0000
  Mg  Mg6       1.0  0.7866699999999999  0.20020000000000004  0.35647  1.0000
  Mg  Mg7       1.0  0.81285  0.6236300000000001  0.14609  1.0000
  Mg  Mg8       1.0  0.53995  0.46237  0.16924  1.0000
  Mg  Mg9       1.0  0.71301  0.70017  0.8563899999999998  1.0000
  Mg  Mg10      1.0  0.31351  0.87973  0.35388999999999987  1.0000
  Mg  Mg11      1.0  0.0409  0.03898  0.33104  1.0000
  Mg  Mg12      1.0  0.21331999999999998  0.7998  0.64353  1.0000
  H   H1        1.0  0.54629  0.31620999999999994  0.7089499999999999  1.0000
  H   H2        1.0  0.19624999999999998  0.19690999999999995  0.7269799999999997  1.0000
  H   H3        1.0  0.44826  0.04037000000000001  0.62557  1.0000
  H   H4        1.0  0.32178  0.30628  0.98704  1.0000
  H   H5        1.0  0.62843  0.42972000000000005  0.9258799999999998  1.0000
  H   H6        1.0  0.65286  0.36663  0.06488  1.0000
  H   H7        1.0  0.9596099999999997  0.6476  0.88848  1.0000
  H   H8        1.0  0.21018999999999996  0.68808  0.77752  1.0000
  H   H9        1.0  0.85723  0.8175699999999999  0.7847299999999998  1.0000
  H   H10       1.0  0.04476999999999999  0.18066000000000004  0.7911799999999999  1.0000
  H   H11       1.0  0.69644  0.30382  0.77216  1.0000
  H   H12       1.0  0.94963  0.45896000000000003  0.8732  1.0000
  H   H13       1.0  0.81967  0.19332999999999997  0.5127199999999998  1.0000
  H   H14       1.0  0.12498  0.06822999999999996  0.5746099999999998  1.0000
  H   H15       1.0  0.1531  0.13451999999999997  0.4363299999999999  1.0000
  H   H16       1.0  0.4602  0.85132  0.61171  1.0000
  H   H17       1.0  0.7094599999999999  0.80762  0.7227399999999998  1.0000
  H   H18       1.0  0.3556899999999999  0.68151  0.71508  1.0000
  H   H19       1.0  0.4537  0.68379  0.29106  1.0000
  H   H20       1.0  0.8037399999999999  0.80309  0.27303  1.0000
  H   H21       1.0  0.55173  0.9596300000000001  0.3744299999999999  1.0000
  H   H22       1.0  0.67822  0.69372  0.01296  1.0000
  H   H23       1.0  0.37155999999999995  0.57028  0.07412  1.0000
  H   H24       1.0  0.34713  0.63337  0.93512  1.0000
  H   H25       1.0  0.04038  0.3524  0.11152999999999998  1.0000
  H   H26       1.0  0.7897999999999998  0.3119200000000001  0.22248999999999994  1.0000
  H   H27       1.0  0.14275999999999997  0.18242000000000003  0.21526999999999993  1.0000
  H   H28       1.0  0.95522  0.81934  0.20881999999999995  1.0000
  H   H29       1.0  0.30355  0.69618  0.22783999999999993  1.0000
  H   H30       1.0  0.05036999999999999  0.54104  0.12681  1.0000
  H   H31       1.0  0.18033  0.8066700000000002  0.48728  1.0000
  H   H32       1.0  0.8750099999999998  0.9317699999999999  0.42539999999999994  1.0000
  H   H33       1.0  0.8468899999999999  0.8654800000000002  0.56367  1.0000
  H   H34       1.0  0.53979  0.14867999999999995  0.3882899999999999  1.0000
  H   H35       1.0  0.29054  0.19238  0.27725999999999995  1.0000
  H   H36       1.0  0.6443  0.31849  0.28492  1.0000
  C   C1        1.0  0.47768999999999995  0.25926  0.69869  1.0000
  C   C2        1.0  0.36665  0.26937999999999995  0.7218199999999998  1.0000
  C   C3        1.0  0.28234  0.193  0.70891  1.0000
  C   C4        1.0  0.31076  0.10947000000000005  0.67403  1.0000
  C   C5        1.0  0.42282  0.10574000000000004  0.65221  1.0000
  C   C6        1.0  0.33977999999999997  0.35385000000000005  0.76336  1.0000
  C   C7        1.0  0.18376  0.59058  0.8531899999999998  1.0000
  C   C8        1.0  0.39493  0.37978  0.90721  1.0000
  C   C9        1.0  0.4215  0.30709  0.07506  1.0000
  C   C10       1.0  0.4803299999999999  0.33252  0.0314  1.0000
  C   C11       1.0  0.41405  0.33150999999999997  0.9892099999999998  1.0000
  C   C12       1.0  0.46675  0.36838  0.9507299999999999  1.0000
  C   C13       1.0  0.58598  0.40017999999999987  0.9554399999999997  1.0000
  C   C14       1.0  0.59931  0.36555000000000004  0.03239  1.0000
  C   C15       1.0  0.22859  0.02016999999999996  0.6645499999999999  1.0000
  C   C16       1.0  0.05819  0.8016600000000003  0.7299  1.0000
  C   C17       1.0  0.03694  0.75955  0.7755999999999997  1.0000
  C   C18       1.0  0.98413  0.68012  0.8570199999999998  1.0000
  C   C19       1.0  0.09663  0.66179  0.83601  1.0000
  C   C20       1.0  0.12338  0.70262  0.79472  1.0000
  C   C21       1.0  0.92665  0.7745500000000001  0.79915  1.0000
  C   C22       1.0  0.97703  0.23882  0.80103  1.0000
  C   C23       1.0  0.86617  0.22973  0.77768  1.0000
  C   C24       1.0  0.78254  0.30712  0.79021  1.0000
  C   C25       1.0  0.81176  0.39074  0.8248799999999997  1.0000
  C   C26       1.0  0.9235699999999999  0.3934600000000001  0.84685  1.0000
  C   C27       1.0  0.8392699999999998  0.14439  0.73655  1.0000
  C   C28       1.0  0.68453  0.9057499999999999  0.6470799999999998  1.0000
  C   C29       1.0  0.8895699999999999  0.11858999999999999  0.5923999999999999  1.0000
  C   C30       1.0  0.92144  0.19314999999999996  0.42515999999999987  1.0000
  C   C31       1.0  0.97946  0.16768  0.4690199999999999  1.0000
  C   C32       1.0  0.91203  0.16804000000000005  0.51087  1.0000
  C   C33       1.0  0.9635  0.13039  0.54944  1.0000
  C   C34       1.0  0.08299  0.09857999999999997  0.5451399999999998  1.0000
  C   C35       1.0  0.09861999999999999  0.13486  0.46851  1.0000
  C   C36       1.0  0.7309899999999999  0.48129  0.83429  1.0000
  C   C37       1.0  0.55597  0.69807  0.77042  1.0000
  C   C38       1.0  0.53567  0.7384000000000002  0.7243499999999998  1.0000
  C   C39       1.0  0.48429999999999995  0.8179200000000002  0.64298  1.0000
  C   C40       1.0  0.59699  0.8348899999999999  0.6639399999999998  1.0000
  C   C41       1.0  0.6229899999999999  0.7939600000000002  0.7052199999999997  1.0000
  C   C42       1.0  0.42563999999999996  0.7238  0.7007  1.0000
  C   C43       1.0  0.52231  0.74074  0.30131  1.0000
  C   C44       1.0  0.63334  0.73062  0.27818  1.0000
  C   C45       1.0  0.7176599999999999  0.807  0.2910899999999999  1.0000
  C   C46       1.0  0.68924  0.89053  0.3259699999999999  1.0000
  C   C47       1.0  0.57717  0.89426  0.34779  1.0000
  C   C48       1.0  0.6602099999999999  0.64614  0.23663999999999993  1.0000
  C   C49       1.0  0.81623  0.40942  0.14681  1.0000
  C   C50       1.0  0.60506  0.62021  0.09278999999999998  1.0000
  C   C51       1.0  0.57849  0.69291  0.9249499999999998  1.0000
  C   C52       1.0  0.51967  0.66748  0.9686  1.0000
  C   C53       1.0  0.58595  0.66849  0.010789999999999998  1.0000
  C   C54       1.0  0.53324  0.63161  0.04926999999999999  1.0000
  C   C55       1.0  0.41401999999999994  0.59982  0.044559999999999995  1.0000
  C   C56       1.0  0.40068  0.63445  0.9676099999999997  1.0000
  C   C57       1.0  0.7714099999999999  0.9798300000000002  0.3354499999999999  1.0000
  C   C58       1.0  0.94181  0.19834  0.2701  1.0000
  C   C59       1.0  0.96306  0.24045000000000005  0.22439999999999996  1.0000
  C   C60       1.0  0.01587  0.31988  0.14298999999999998  1.0000
  C   C61       1.0  0.9033699999999999  0.33821  0.16399  1.0000
  C   C62       1.0  0.8766099999999998  0.29738  0.20527999999999996  1.0000
  C   C63       1.0  0.07334  0.22545  0.20085  1.0000
  C   C64       1.0  0.02296  0.7611800000000001  0.19897  1.0000
  C   C65       1.0  0.13383  0.77027  0.22231999999999993  1.0000
  C   C66       1.0  0.21746  0.6928800000000003  0.2098  1.0000
  C   C67       1.0  0.18824  0.6092600000000002  0.17511999999999997  1.0000
  C   C68       1.0  0.07643  0.60654  0.15314999999999995  1.0000
  C   C69       1.0  0.16071999999999997  0.85561  0.26344999999999996  1.0000
  C   C70       1.0  0.31546  0.09425000000000003  0.35292  1.0000
  C   C71       1.0  0.11043  0.88141  0.4075999999999999  1.0000
  C   C72       1.0  0.07855  0.80685  0.57484  1.0000
  C   C73       1.0  0.020540000000000003  0.83232  0.53098  1.0000
  C   C74       1.0  0.08797  0.8319599999999999  0.4891299999999999  1.0000
  C   C75       1.0  0.03649  0.86961  0.45056  1.0000
  C   C76       1.0  0.917  0.9014200000000001  0.4548599999999999  1.0000
  C   C77       1.0  0.9013799999999998  0.8651299999999998  0.5314899999999999  1.0000
  C   C78       1.0  0.26901  0.51871  0.16571  1.0000
  C   C79       1.0  0.44403  0.30193  0.22958  1.0000
  C   C80       1.0  0.46432  0.2616  0.2756499999999999  1.0000
  C   C81       1.0  0.5157  0.18207999999999996  0.35701999999999995  1.0000
  C   C82       1.0  0.40301  0.16510999999999998  0.3360599999999999  1.0000
  C   C83       1.0  0.37700999999999996  0.20603  0.29478  1.0000
  C   C84       1.0  0.57436  0.2762  0.2993  1.0000
  N   N1        1.0  0.50634  0.17838  0.66435  1.0000
  N   N2        1.0  0.89946  0.7354  0.8390199999999998  1.0000
  N   N3        1.0  0.653  0.39707  0.9949  1.0000
  N   N4        1.0  0.00637  0.31971  0.8351699999999997  1.0000
  N   N5        1.0  0.3991  0.7633200000000002  0.6608499999999998  1.0000
  N   N6        1.0  0.1512  0.10261  0.50609  1.0000
  N   N7        1.0  0.4936599999999999  0.8216200000000002  0.3356499999999999  1.0000
  N   N8        1.0  0.10053  0.2646  0.16097999999999998  1.0000
  N   N9        1.0  0.34698999999999997  0.60293  0.00511  1.0000
  N   N10       1.0  0.99362  0.68029  0.16482999999999995  1.0000
  N   N11       1.0  0.6009  0.23668  0.33915  1.0000
  N   N12       1.0  0.8488  0.89739  0.4939099999999999  1.0000
  O   O1        1.0  0.29222  0.6015199999999999  0.8442999999999998  1.0000
  O   O2        1.0  0.13926  0.52021  0.87347  1.0000
  O   O3        1.0  0.43511  0.43444  0.87848  1.0000
  O   O4        1.0  0.29334  0.33401999999999993  0.9023099999999997  1.0000
  O   O5        1.0  0.40733  0.4291400000000001  0.7710699999999998  1.0000
  O   O6        1.0  0.24729999999999996  0.33851999999999993  0.7881199999999999  1.0000
  O   O7        1.0  0.46167999999999987  0.34452  0.11739999999999998  1.0000
  O   O8        1.0  0.32718  0.25294  0.07138  1.0000
  O   O9        1.0  0.2728  0.93913  0.64028  1.0000
  O   O10       1.0  0.12573  0.030260000000000016  0.68289  1.0000
  O   O11       1.0  0.15145  0.7685300000000002  0.7054399999999998  1.0000
  O   O12       1.0  0.98311  0.86422  0.7194199999999998  1.0000
  O   O13       1.0  0.7930999999999999  0.8938800000000001  0.65583  1.0000
  O   O14       1.0  0.63985  0.9765400000000002  0.6271  1.0000
  O   O15       1.0  0.9263299999999999  0.061939999999999995  0.62098  1.0000
  O   O16       1.0  0.7887399999999999  0.16596000000000002  0.59737  1.0000
  O   O17       1.0  0.90941  0.07050999999999993  0.7288299999999998  1.0000
  O   O18       1.0  0.7451899999999999  0.15701999999999997  0.71215  1.0000
  O   O19       1.0  0.96347  0.15650999999999995  0.3829899999999999  1.0000
  O   O20       1.0  0.82603  0.24636000000000002  0.42862  1.0000
  O   O21       1.0  0.77533  0.5608800000000002  0.8597399999999998  1.0000
  O   O22       1.0  0.62935  0.474  0.81482  1.0000
  O   O23       1.0  0.649  0.73173  0.79488  1.0000
  O   O24       1.0  0.48066999999999993  0.63611  0.7809899999999997  1.0000
  O   O25       1.0  0.70778  0.39848  0.1557  1.0000
  O   O26       1.0  0.8607299999999999  0.4797900000000001  0.12654  1.0000
  O   O27       1.0  0.56488  0.56556  0.12153  1.0000
  O   O28       1.0  0.70665  0.6659800000000002  0.09768999999999997  1.0000
  O   O29       1.0  0.59267  0.57086  0.22892999999999994  1.0000
  O   O30       1.0  0.75269  0.66148  0.21187999999999996  1.0000
  O   O31       1.0  0.53831  0.6554800000000001  0.8826  1.0000
  O   O32       1.0  0.67281  0.7470600000000002  0.92863  1.0000
  O   O33       1.0  0.7272000000000001  0.06086999999999996  0.3597199999999999  1.0000
  O   O34       1.0  0.87427  0.96974  0.31711  1.0000
  O   O35       1.0  0.84854  0.23146  0.2945599999999999  1.0000
  O   O36       1.0  0.01688  0.13578  0.28058  1.0000
  O   O37       1.0  0.20689  0.10612  0.34416999999999986  1.0000
  O   O38       1.0  0.36015  0.023459999999999967  0.3729099999999999  1.0000
  O   O39       1.0  0.07366  0.9380599999999999  0.3790199999999999  1.0000
  O   O40       1.0  0.21125999999999998  0.83404  0.4026299999999999  1.0000
  O   O41       1.0  0.09059  0.9294900000000003  0.27117  1.0000
  O   O42       1.0  0.2548  0.8429800000000002  0.28785  1.0000
  O   O43       1.0  0.03653  0.8434900000000002  0.6170099999999998  1.0000
  O   O44       1.0  0.17396  0.7536400000000001  0.5713799999999999  1.0000
  O   O45       1.0  0.22466  0.4391200000000002  0.14027  1.0000
  O   O46       1.0  0.37065  0.526  0.18518  1.0000
  O   O47       1.0  0.351  0.26827  0.20511999999999994  1.0000
  O   O48       1.0  0.51932  0.36389  0.21900999999999995  1.0000
