data_image0
_chemical_formula_structural       Gd4Cu6H60C48N12O48
_chemical_formula_sum              "Gd4 Cu6 H60 C48 N12 O48"
_cell_length_a       13.41189
_cell_length_b       13.41196
_cell_length_c       14.57617
_cell_angle_alpha    89.9858
_cell_angle_beta     90.01437999999999
_cell_angle_gamma    120.04946

_space_group_name_H-M_alt    "P 1"
_space_group_IT_number       1

loop_
  _space_group_symop_operation_xyz
  'x, y, z'

loop_
  _atom_site_type_symbol
  _atom_site_label
  _atom_site_symmetry_multiplicity
  _atom_site_fract_x
  _atom_site_fract_y
  _atom_site_fract_z
  _atom_site_occupancy
  Gd  Gd1       1.0  0.66674  0.33317  0.3317900000000001  1.0000
  Gd  Gd2       1.0  0.33316999999999997  0.6667299999999999  0.1682  1.0000
  Gd  Gd3       1.0  0.33326999999999996  0.6668399999999999  0.6682000000000002  1.0000
  Gd  Gd4       1.0  0.66684  0.33327  0.8317900000000003  1.0000
  Cu  Cu1       1.0  0.50001  0.5  0.5  1.0000
  Cu  Cu2       1.0  0.50001  9.999999999999979e-06  0.4999900000000001  1.0000
  Cu  Cu3       1.0  1.0000000000010914e-05  0.5  0.5  1.0000
  Cu  Cu4       1.0  0.5  0.5  0.0  1.0000
  Cu  Cu5       1.0  1.0000000000010914e-05  0.5  0.0  1.0000
  Cu  Cu6       1.0  0.5  0.0  0.0  1.0000
  H   H1        1.0  0.28747  0.25939  0.4469500000000001  1.0000
  H   H2        1.0  0.30673  0.16817  0.52509  1.0000
  H   H3        1.0  0.46282000000000006  0.25926  0.63122  1.0000
  H   H4        1.0  0.39591  0.31191  0.70394  1.0000
  H   H5        1.0  0.32176  0.35833  0.5833600000000002  1.0000
  H   H6        1.0  0.74056  0.02835  0.4470200000000001  1.0000
  H   H7        1.0  0.8318  0.13904  0.5250800000000002  1.0000
  H   H8        1.0  0.74043  0.20378  0.63134  1.0000
  H   H9        1.0  0.68796  0.08399999999999999  0.7039800000000003  1.0000
  H   H10       1.0  0.64158  0.96355  0.5832800000000001  1.0000
  H   H11       1.0  0.97227  0.7125899999999998  0.44691  1.0000
  H   H12       1.0  0.86191  0.69332  0.5251700000000001  1.0000
  H   H13       1.0  0.7966299999999998  0.53675  0.63108  1.0000
  H   H14       1.0  0.91626  0.60438  0.7038400000000002  1.0000
  H   H15       1.0  0.03707999999999994  0.6781899999999998  0.5833000000000003  1.0000
  H   H16       1.0  0.25939  0.28747  0.05305000000000001  1.0000
  H   H17       1.0  0.16818  0.30673  0.9749000000000002  1.0000
  H   H18       1.0  0.25926999999999994  0.46280999999999994  0.86877  1.0000
  H   H19       1.0  0.31191  0.3959099999999999  0.79605  1.0000
  H   H20       1.0  0.3583299999999999  0.32175  0.9166300000000002  1.0000
  H   H21       1.0  0.028349999999999948  0.7405499999999999  0.05297000000000002  1.0000
  H   H22       1.0  0.13903999999999989  0.8317999999999999  0.9749200000000002  1.0000
  H   H23       1.0  0.20378999999999992  0.7404299999999999  0.8686500000000003  1.0000
  H   H24       1.0  0.08400999999999996  0.6879499999999998  0.7960200000000001  1.0000
  H   H25       1.0  0.9635499999999999  0.64158  0.9167100000000002  1.0000
  H   H26       1.0  0.71259  0.97226  0.05309  1.0000
  H   H27       1.0  0.6933299999999999  0.8619099999999998  0.9748200000000001  1.0000
  H   H28       1.0  0.53676  0.79663  0.86892  1.0000
  H   H29       1.0  0.60439  0.91625  0.7961600000000002  1.0000
  H   H30       1.0  0.6782  0.03708  0.9167000000000002  1.0000
  H   H31       1.0  0.71254  0.74062  0.55305  1.0000
  H   H32       1.0  0.6932799999999999  0.83183  0.4749000000000001  1.0000
  H   H33       1.0  0.5372  0.74074  0.36878  1.0000
  H   H34       1.0  0.6041  0.68809  0.29606  1.0000
  H   H35       1.0  0.6782599999999999  0.6416699999999999  0.41664  1.0000
  H   H36       1.0  0.2594599999999999  0.9716599999999999  0.5529700000000002  1.0000
  H   H37       1.0  0.16821000000000008  0.86097  0.4749200000000001  1.0000
  H   H38       1.0  0.2595799999999999  0.7962199999999999  0.3686600000000001  1.0000
  H   H39       1.0  0.3120499999999999  0.9159999999999999  0.29602  1.0000
  H   H40       1.0  0.35841999999999996  0.03645  0.41671  1.0000
  H   H41       1.0  0.027750000000000004  0.28741  0.5530900000000002  1.0000
  H   H42       1.0  0.1381  0.30669  0.47483  1.0000
  H   H43       1.0  0.20338  0.46325  0.36892000000000014  1.0000
  H   H44       1.0  0.08375000000000005  0.39562  0.29616  1.0000
  H   H45       1.0  0.96293  0.32181  0.4167000000000001  1.0000
  H   H46       1.0  0.74062  0.71254  0.94695  1.0000
  H   H47       1.0  0.83184  0.69327  0.025100000000000008  1.0000
  H   H48       1.0  0.74074  0.53719  0.13122000000000003  1.0000
  H   H49       1.0  0.6880999999999999  0.6040999999999999  0.20394  1.0000
  H   H50       1.0  0.64168  0.67825  0.08336000000000002  1.0000
  H   H51       1.0  0.97166  0.25945  0.9470200000000002  1.0000
  H   H52       1.0  0.86097  0.1682  0.02508000000000001  1.0000
  H   H53       1.0  0.7962200000000001  0.25958  0.13134  1.0000
  H   H54       1.0  0.9159999999999999  0.31205  0.20398000000000005  1.0000
  H   H55       1.0  0.036460000000000006  0.35842  0.08329000000000003  1.0000
  H   H56       1.0  0.28742  0.02774  0.9469100000000003  1.0000
  H   H57       1.0  0.30669  0.1381  0.02517000000000001  1.0000
  H   H58       1.0  0.46325  0.20337999999999998  0.13108  1.0000
  H   H59       1.0  0.39562  0.08375  0.20384  1.0000
  H   H60       1.0  0.32181  0.96292  0.0833  1.0000
  C   C1        1.0  0.44777  0.26499  0.43261000000000005  1.0000
  C   C2        1.0  0.34943  0.25389  0.4929600000000001  1.0000
  C   C3        1.0  0.44844  0.33228  0.6415300000000003  1.0000
  C   C4        1.0  0.5651099999999998  0.43858  0.6600600000000002  1.0000
  C   C5        1.0  0.73475  0.18282  0.43221  1.0000
  C   C6        1.0  0.74612  0.09591999999999999  0.4928900000000001  1.0000
  C   C7        1.0  0.66757  0.11619  0.64158  1.0000
  C   C8        1.0  0.56125  0.12636  0.6600900000000002  1.0000
  C   C9        1.0  0.81749  0.55235  0.4324300000000001  1.0000
  C   C10       1.0  0.9047899999999999  0.65062  0.4929300000000001  1.0000
  C   C11       1.0  0.88422  0.55164  0.64152  1.0000
  C   C12       1.0  0.87414  0.43521  0.6603200000000002  1.0000
  C   C13       1.0  0.26499  0.44776  0.06739000000000003  1.0000
  C   C14       1.0  0.25389  0.34943  0.00704  1.0000
  C   C15       1.0  0.33228  0.44844  0.8584600000000002  1.0000
  C   C16       1.0  0.43857999999999997  0.5651099999999999  0.83992  1.0000
  C   C17       1.0  0.18282  0.73475  0.06778  1.0000
  C   C18       1.0  0.09592000000000002  0.74611  0.007110000000000002  1.0000
  C   C19       1.0  0.11618999999999995  0.66757  0.8584200000000002  1.0000
  C   C20       1.0  0.12638  0.56126  0.83989  1.0000
  C   C21       1.0  0.55236  0.81748  0.06757000000000003  1.0000
  C   C22       1.0  0.6506199999999999  0.9047799999999999  0.00707  1.0000
  C   C23       1.0  0.55164  0.88421  0.85847  1.0000
  C   C24       1.0  0.43521  0.87412  0.83966  1.0000
  C   C25       1.0  0.55225  0.73501  0.56739  1.0000
  C   C26       1.0  0.6505799999999999  0.7461199999999999  0.50704  1.0000
  C   C27       1.0  0.5515699999999999  0.6677299999999999  0.35846000000000006  1.0000
  C   C28       1.0  0.43491  0.56142  0.33994  1.0000
  C   C29       1.0  0.2652600000000001  0.81718  0.5677800000000002  1.0000
  C   C30       1.0  0.2538999999999999  0.9040799999999998  0.50711  1.0000
  C   C31       1.0  0.33244  0.88381  0.35842  1.0000
  C   C32       1.0  0.43876  0.8736399999999999  0.33991  1.0000
  C   C33       1.0  0.18253  0.44765  0.56756  1.0000
  C   C34       1.0  0.09522000000000003  0.34939  0.5070600000000002  1.0000
  C   C35       1.0  0.11578999999999993  0.4483699999999999  0.35848  1.0000
  C   C36       1.0  0.12587  0.56479  0.33968  1.0000
  C   C37       1.0  0.7350199999999999  0.55224  0.9326000000000002  1.0000
  C   C38       1.0  0.74612  0.65057  0.9929600000000002  1.0000
  C   C39       1.0  0.66773  0.55156  0.14153  1.0000
  C   C40       1.0  0.56143  0.43489  0.16007  1.0000
  C   C41       1.0  0.81719  0.26526  0.9322100000000002  1.0000
  C   C42       1.0  0.90409  0.25389  0.99289  1.0000
  C   C43       1.0  0.88382  0.33243  0.14158  1.0000
  C   C44       1.0  0.8736299999999998  0.4387499999999999  0.16011000000000006  1.0000
  C   C45       1.0  0.44765  0.18252  0.9324300000000001  1.0000
  C   C46       1.0  0.34939  0.09522  0.9929300000000002  1.0000
  C   C47       1.0  0.44837  0.11579  0.14152000000000006  1.0000
  C   C48       1.0  0.5648  0.12588  0.16034000000000007  1.0000
  N   N1        1.0  0.38896  0.34689  0.56139  1.0000
  N   N2        1.0  0.65311  0.04229  0.56136  1.0000
  N   N3        1.0  0.95828  0.61107  0.56133  1.0000
  N   N4        1.0  0.3469  0.38896  0.9386000000000002  1.0000
  N   N5        1.0  0.042290000000000064  0.65311  0.9386300000000002  1.0000
  N   N6        1.0  0.6110799999999998  0.9582699999999997  0.9386600000000002  1.0000
  N   N7        1.0  0.61105  0.65311  0.4386  1.0000
  N   N8        1.0  0.34689999999999993  0.9577099999999998  0.43863  1.0000
  N   N9        1.0  0.04173000000000001  0.38893  0.43866  1.0000
  N   N10       1.0  0.65311  0.61104  0.06140000000000002  1.0000
  N   N11       1.0  0.9577200000000002  0.34689  0.06137000000000001  1.0000
  N   N12       1.0  0.38892999999999994  0.04173  0.061330000000000016  1.0000
  O   O1        1.0  0.5454100000000002  0.35793  0.4397200000000001  1.0000
  O   O2        1.0  0.42944  0.18474999999999997  0.3777  1.0000
  O   O3        1.0  0.6014099999999999  0.5253  0.6064800000000002  1.0000
  O   O4        1.0  0.62291  0.43704999999999994  0.7280000000000002  1.0000
  O   O5        1.0  0.64182  0.18733999999999995  0.4397500000000001  1.0000
  O   O6        1.0  0.8143599999999999  0.24447999999999995  0.37663  1.0000
  O   O7        1.0  0.47468  0.07618  0.60638  1.0000
  O   O8        1.0  0.56264  0.1854  0.7281700000000002  1.0000
  O   O9        1.0  0.81258  0.45466999999999996  0.4397000000000001  1.0000
  O   O10       1.0  0.75584  0.57072  0.37728  1.0000
  O   O11       1.0  0.9239500000000002  0.39863  0.60647  1.0000
  O   O12       1.0  0.81563  0.37782  0.72876  1.0000
  O   O13       1.0  0.35793  0.54541  0.060280000000000014  1.0000
  O   O14       1.0  0.18474999999999994  0.4294399999999999  0.1223  1.0000
  O   O15       1.0  0.52531  0.60141  0.8935100000000002  1.0000
  O   O16       1.0  0.43705  0.6229  0.7720000000000002  1.0000
  O   O17       1.0  0.18733999999999995  0.64182  0.060250000000000005  1.0000
  O   O18       1.0  0.24448000000000006  0.81435  0.12337000000000002  1.0000
  O   O19       1.0  0.07617999999999993  0.47466999999999987  0.89362  1.0000
  O   O20       1.0  0.18538999999999994  0.5626299999999999  0.7718300000000002  1.0000
  O   O21       1.0  0.45467  0.81257  0.06030000000000001  1.0000
  O   O22       1.0  0.57072  0.75583  0.12272000000000002  1.0000
  O   O23       1.0  0.39864  0.92395  0.89353  1.0000
  O   O24       1.0  0.37782999999999994  0.8156299999999999  0.77124  1.0000
  O   O25       1.0  0.4546  0.64207  0.5602800000000002  1.0000
  O   O26       1.0  0.57057  0.81525  0.6223  1.0000
  O   O27       1.0  0.3986  0.47470999999999997  0.39351  1.0000
  O   O28       1.0  0.3771  0.56295  0.272  1.0000
  O   O29       1.0  0.35818999999999995  0.8126699999999999  0.5602500000000002  1.0000
  O   O30       1.0  0.18564999999999993  0.75552  0.6233600000000002  1.0000
  O   O31       1.0  0.52533  0.92382  0.39362000000000014  1.0000
  O   O32       1.0  0.4373699999999999  0.8145999999999999  0.27182  1.0000
  O   O33       1.0  0.18744  0.54534  0.5603000000000002  1.0000
  O   O34       1.0  0.24417  0.42929  0.6227200000000003  1.0000
  O   O35       1.0  0.07606000000000006  0.60137  0.3935200000000001  1.0000
  O   O36       1.0  0.18437999999999996  0.62218  0.27123  1.0000
  O   O37       1.0  0.64208  0.4546  0.9397100000000003  1.0000
  O   O38       1.0  0.81526  0.57056  0.87769  1.0000
  O   O39       1.0  0.4747  0.3986  0.10648000000000003  1.0000
  O   O40       1.0  0.56296  0.37709999999999994  0.22799000000000005  1.0000
  O   O41       1.0  0.81267  0.35819  0.9397500000000002  1.0000
  O   O42       1.0  0.75553  0.18564999999999998  0.8766300000000002  1.0000
  O   O43       1.0  0.92383  0.52534  0.10638000000000003  1.0000
  O   O44       1.0  0.81462  0.43737  0.22817000000000007  1.0000
  O   O45       1.0  0.54534  0.18742999999999999  0.9396900000000002  1.0000
  O   O46       1.0  0.4292899999999999  0.24416999999999997  0.8772800000000002  1.0000
  O   O47       1.0  0.6013699999999998  0.07605  0.10647000000000002  1.0000
  O   O48       1.0  0.62218  0.18437  0.22875  1.0000
