data_image0
_chemical_formula_structural       Gd4H64C90S6O50
_chemical_formula_sum              "Gd4 H64 C90 S6 O50"
_cell_length_a       9.23027
_cell_length_b       15.667780000000002
_cell_length_c       22.07637
_cell_angle_alpha    102.29870000000001
_cell_angle_beta     101.43114
_cell_angle_gamma    104.83325

_space_group_name_H-M_alt    "P 1"
_space_group_IT_number       1

loop_
  _space_group_symop_operation_xyz
  'x, y, z'

loop_
  _atom_site_type_symbol
  _atom_site_label
  _atom_site_symmetry_multiplicity
  _atom_site_fract_x
  _atom_site_fract_y
  _atom_site_fract_z
  _atom_site_occupancy
  Gd  Gd1       1.0  0.5115199999999999  0.8582600000000001  0.8081  1.0000
  Gd  Gd2       1.0  0.02882000000000005  0.9067500000000002  0.8538399999999999  1.0000
  Gd  Gd3       1.0  0.4884899999999999  0.14174000000000003  0.1919  1.0000
  Gd  Gd4       1.0  0.97119  0.09326000000000002  0.14616  1.0000
  H   H1        1.0  0.8646500000000001  0.8385400000000002  0.67302  1.0000
  H   H2        1.0  0.72472  0.8374800000000001  0.56421  1.0000
  H   H3        1.0  0.30146000000000006  0.9252100000000002  0.62723  1.0000
  H   H4        1.0  0.6506100000000001  0.7791500000000005  0.44833000000000006  1.0000
  H   H5        1.0  0.6557799999999999  0.8950299999999999  0.48353999999999997  1.0000
  H   H6        1.0  0.6756500000000001  0.8612600000000001  0.40345  1.0000
  H   H7        1.0  0.97143  0.84364  0.37072  1.0000
  H   H8        1.0  0.9518299999999998  0.9069300000000001  0.27509  1.0000
  H   H9        1.0  0.44917999999999997  0.011849999999999998  0.32104  1.0000
  H   H10       1.0  0.4713299999999999  0.9523299999999999  0.41877  1.0000
  H   H11       1.0  0.9829099999999998  0.6682900000000002  0.9147999999999998  1.0000
  H   H12       1.0  0.9149300000000001  0.51202  0.93228  1.0000
  H   H13       1.0  0.2743299999999999  0.45424  0.84723  1.0000
  H   H14       1.0  0.34442999999999996  0.6126700000000003  0.8320999999999998  1.0000
  H   H15       1.0  0.0751  0.24322  0.01429  1.0000
  H   H16       1.0  0.49431  0.16739000000000007  0.029049999999999996  1.0000
  H   H17       1.0  0.60051  0.2859800000000001  0.97734  1.0000
  H   H18       1.0  0.6911200000000002  0.4341300000000001  0.97277  1.0000
  H   H19       1.0  0.6011699999999999  0.35118  0.89535  1.0000
  H   H20       1.0  0.6143200000000001  0.4695600000000001  0.90454  1.0000
  H   H21       1.0  0.5725099999999999  0.5566200000000002  0.8048899999999999  1.0000
  H   H22       1.0  0.010610000000000109  0.5623800000000002  0.70449  1.0000
  H   H23       1.0  0.9377699999999999  0.70351  0.73577  1.0000
  H   H24       1.0  0.9590099999999999  0.40665  0.64508  1.0000
  H   H25       1.0  0.10106000000000007  0.4427200000000002  0.72236  1.0000
  H   H26       1.0  0.9935199999999998  0.32378  0.68611  1.0000
  H   H27       1.0  0.23853999999999997  0.27627  0.79712  1.0000
  H   H28       1.0  0.20194999999999994  0.1540799999999999  0.8532799999999999  1.0000
  H   H29       1.0  0.59366  0.08549  0.80359  1.0000
  H   H30       1.0  0.63226  0.20789000000000005  0.74647  1.0000
  H   H31       1.0  0.5269999999999999  0.72872  0.673  1.0000
  H   H32       1.0  0.42286  0.7911100000000002  0.65866  1.0000
  H   H33       1.0  0.13536  0.16146  0.32698  1.0000
  H   H34       1.0  0.27529  0.16253  0.43579  1.0000
  H   H35       1.0  0.69855  0.07479000000000005  0.37277  1.0000
  H   H36       1.0  0.34939000000000003  0.22085000000000005  0.55167  1.0000
  H   H37       1.0  0.34423  0.10497  0.51646  1.0000
  H   H38       1.0  0.32436000000000004  0.1387500000000001  0.59655  1.0000
  H   H39       1.0  0.02858000000000006  0.15636000000000008  0.62928  1.0000
  H   H40       1.0  0.04817000000000004  0.09307000000000006  0.72491  1.0000
  H   H41       1.0  0.55083  0.9881600000000003  0.67896  1.0000
  H   H42       1.0  0.52868  0.04767000000000001  0.58123  1.0000
  H   H43       1.0  0.017100000000000046  0.3317200000000001  0.0852  1.0000
  H   H44       1.0  0.08508000000000006  0.48798000000000014  0.06772  1.0000
  H   H45       1.0  0.72568  0.5457600000000002  0.15277  1.0000
  H   H46       1.0  0.6555800000000002  0.38734000000000013  0.16791  1.0000
  H   H47       1.0  0.92491  0.75679  0.98571  1.0000
  H   H48       1.0  0.5057000000000001  0.8326200000000004  0.9709600000000002  1.0000
  H   H49       1.0  0.39950000000000013  0.7140300000000003  0.02266  1.0000
  H   H50       1.0  0.30889000000000016  0.5658700000000002  0.02723  1.0000
  H   H51       1.0  0.39884  0.64882  0.10465  1.0000
  H   H52       1.0  0.38569000000000014  0.5304400000000002  0.09547  1.0000
  H   H53       1.0  0.42749  0.44338  0.19511  1.0000
  H   H54       1.0  0.9894  0.4376200000000001  0.29551  1.0000
  H   H55       1.0  0.06224000000000001  0.2965  0.26424  1.0000
  H   H56       1.0  0.041  0.59336  0.35492  1.0000
  H   H57       1.0  0.8989499999999999  0.55729  0.27765  1.0000
  H   H58       1.0  0.006489999999999959  0.67622  0.31389  1.0000
  H   H59       1.0  0.76147  0.7237400000000003  0.20288  1.0000
  H   H60       1.0  0.79806  0.8459200000000002  0.14672  1.0000
  H   H61       1.0  0.40635000000000004  0.9145100000000003  0.19641  1.0000
  H   H62       1.0  0.36774000000000007  0.7921100000000002  0.25353  1.0000
  H   H63       1.0  0.4730000000000001  0.2712800000000001  0.327  1.0000
  H   H64       1.0  0.5771500000000002  0.20890000000000009  0.34134  1.0000
  C   C1        1.0  0.17843000000000003  0.8760800000000001  0.72062  1.0000
  C   C2        1.0  0.09238  0.88077  0.65768  1.0000
  C   C3        1.0  0.9296  0.85726  0.63916  1.0000
  C   C4        1.0  0.85077  0.8563600000000001  0.57807  1.0000
  C   C5        1.0  0.9335799999999999  0.8796200000000002  0.53377  1.0000
  C   C6        1.0  0.09767000000000003  0.90543  0.55373  1.0000
  C   C7        1.0  0.1753399999999999  0.90577  0.61406  1.0000
  C   C8        1.0  0.70201  0.8518699999999999  0.45165  1.0000
  C   C9        1.0  0.22251999999999997  0.89331  0.39857  1.0000
  C   C10       1.0  0.07494000000000008  0.8798100000000002  0.35912  1.0000
  C   C11       1.0  0.06435999999999997  0.91485  0.30612  1.0000
  C   C12       1.0  0.19966999999999996  0.96177  0.29246  1.0000
  C   C13       1.0  0.34620999999999996  0.97502  0.33277  1.0000
  C   C14       1.0  0.3587699999999999  0.94139  0.38655  1.0000
  C   C15       1.0  0.19030999999999998  0.0007199999999999868  0.23590999999999998  1.0000
  C   C16       1.0  0.2045999999999999  0.7431799999999998  0.8622499999999998  1.0000
  C   C17       1.0  0.16743000000000002  0.6494500000000002  0.8728299999999999  1.0000
  C   C18       1.0  0.046899999999999865  0.62145  0.9009899999999998  1.0000
  C   C19       1.0  0.00798  0.53418  0.91033  1.0000
  C   C20       1.0  0.09069000000000008  0.4750300000000001  0.89065  1.0000
  C   C21       1.0  0.21202  0.50162  0.86233  1.0000
  C   C22       1.0  0.25043  0.5894600000000002  0.85366  1.0000
  C   C23       1.0  0.25355000000000005  0.32312000000000013  0.98131  1.0000
  C   C24       1.0  0.19074  0.25343  0.00704  1.0000
  C   C25       1.0  0.27845999999999993  0.19746000000000005  0.02542  1.0000
  C   C26       1.0  0.42649  0.21073  0.0148  1.0000
  C   C27       1.0  0.48674999999999985  0.27782999999999997  0.98616  1.0000
  C   C28       1.0  0.4011699999999999  0.3355900000000001  0.96914  1.0000
  C   C29       1.0  0.22044000000000002  0.13129  0.060899999999999996  1.0000
  C   C30       1.0  0.5989500000000001  0.41413999999999995  0.9278499999999998  1.0000
  C   C31       1.0  0.7015699999999998  0.7225999999999999  0.7906499999999999  1.0000
  C   C32       1.0  0.75017  0.6399800000000001  0.77241  1.0000
  C   C33       1.0  0.6686899999999999  0.5582300000000002  0.78325  1.0000
  C   C34       1.0  0.71139  0.47992000000000007  0.76662  1.0000
  C   C35       1.0  0.83504  0.4789200000000001  0.73776  1.0000
  C   C36       1.0  0.91483  0.56081  0.72635  1.0000
  C   C37       1.0  0.8731299999999999  0.6402300000000002  0.74384  1.0000
  C   C38       1.0  0.98862  0.39409  0.69239  1.0000
  C   C39       1.0  0.43544  0.24754999999999994  0.76798  1.0000
  C   C40       1.0  0.31468999999999997  0.23376000000000016  0.7978100000000001  1.0000
  C   C41       1.0  0.29514999999999997  0.1654800000000001  0.82976  1.0000
  C   C42       1.0  0.3961099999999999  0.11222  0.8317599999999999  1.0000
  C   C43       1.0  0.51689  0.12754  0.80153  1.0000
  C   C44       1.0  0.5376699999999999  0.1951  0.76926  1.0000
  C   C45       1.0  0.37370000000000003  0.03632000000000001  0.86403  1.0000
  C   C46       1.0  0.82158  0.12393  0.27938  1.0000
  C   C47       1.0  0.9076299999999999  0.11923000000000003  0.34232  1.0000
  C   C48       1.0  0.07041000000000001  0.14275000000000002  0.36084  1.0000
  C   C49       1.0  0.14923999999999998  0.14364000000000005  0.42192999999999997  1.0000
  C   C50       1.0  0.06643000000000002  0.12038999999999996  0.4662299999999999  1.0000
  C   C51       1.0  0.90234  0.09457000000000006  0.44628  1.0000
  C   C52       1.0  0.8246700000000001  0.09423  0.38595000000000007  1.0000
  C   C53       1.0  0.2979999999999999  0.14814  0.54835  1.0000
  C   C54       1.0  0.77749  0.10669000000000001  0.60143  1.0000
  C   C55       1.0  0.9250699999999998  0.12020000000000004  0.64089  1.0000
  C   C56       1.0  0.9356499999999999  0.08516  0.69389  1.0000
  C   C57       1.0  0.80034  0.038230000000000014  0.70754  1.0000
  C   C58       1.0  0.6537999999999999  0.024989999999999995  0.66723  1.0000
  C   C59       1.0  0.64124  0.058610000000000044  0.61345  1.0000
  C   C60       1.0  0.8097  0.9992900000000001  0.7641  1.0000
  C   C61       1.0  0.79541  0.25683  0.13775  1.0000
  C   C62       1.0  0.83258  0.35055  0.12718  1.0000
  C   C63       1.0  0.95311  0.3785600000000001  0.09901  1.0000
  C   C64       1.0  0.9920199999999999  0.46583000000000013  0.08967  1.0000
  C   C65       1.0  0.90932  0.52498  0.10935  1.0000
  C   C66       1.0  0.78799  0.4983800000000001  0.13767  1.0000
  C   C67       1.0  0.74958  0.41055  0.14634  1.0000
  C   C68       1.0  0.7464600000000001  0.67689  0.01869  1.0000
  C   C69       1.0  0.80927  0.74657  0.9929599999999998  1.0000
  C   C70       1.0  0.72155  0.8025500000000001  0.9745800000000001  1.0000
  C   C71       1.0  0.5735200000000001  0.78927  0.98521  1.0000
  C   C72       1.0  0.5132599999999999  0.72217  0.013849999999999998  1.0000
  C   C73       1.0  0.59883  0.66441  0.03086  1.0000
  C   C74       1.0  0.7795700000000001  0.8687100000000002  0.9391000000000002  1.0000
  C   C75       1.0  0.40106  0.5858600000000003  0.07215  1.0000
  C   C76       1.0  0.29843  0.2774  0.20935  1.0000
  C   C77       1.0  0.2498400000000001  0.3600300000000001  0.22759  1.0000
  C   C78       1.0  0.33130999999999994  0.44177  0.21676  1.0000
  C   C79       1.0  0.28862  0.52008  0.23338  1.0000
  C   C80       1.0  0.16497000000000014  0.5210900000000003  0.26224  1.0000
  C   C81       1.0  0.08518000000000006  0.4392000000000001  0.27365  1.0000
  C   C82       1.0  0.12688000000000008  0.3597700000000001  0.25616  1.0000
  C   C83       1.0  0.011389999999999996  0.60592  0.30761  1.0000
  C   C84       1.0  0.5645700000000001  0.7524600000000002  0.23201999999999998  1.0000
  C   C85       1.0  0.6853099999999999  0.7662400000000003  0.2022  1.0000
  C   C86       1.0  0.7048600000000002  0.8345200000000003  0.17024  1.0000
  C   C87       1.0  0.6039000000000001  0.8877900000000002  0.16824  1.0000
  C   C88       1.0  0.48311999999999994  0.8724600000000002  0.19847  1.0000
  C   C89       1.0  0.4623400000000002  0.8049000000000004  0.23075  1.0000
  C   C90       1.0  0.6263100000000001  0.9636900000000003  0.13597  1.0000
  S   S1        1.0  0.2329799999999999  0.8497400000000002  0.4663399999999999  1.0000
  S   S2        1.0  0.03895000000000001  0.3642100000000001  0.90303  1.0000
  S   S3        1.0  0.46448999999999996  0.33682  0.73019  1.0000
  S   S4        1.0  0.7670299999999998  0.15026000000000006  0.53366  1.0000
  S   S5        1.0  0.96106  0.63579  0.09698  1.0000
  S   S6        1.0  0.53552  0.6631800000000001  0.26982  1.0000
  O   O1        1.0  0.10352000000000015  0.8615800000000002  0.76216  1.0000
  O   O2        1.0  0.32303  0.88464  0.72947  1.0000
  O   O3        1.0  0.8696199999999998  0.879  0.47302  1.0000
  O   O4        1.0  0.18362000000000003  0.9319100000000002  0.51143  1.0000
  O   O5        1.0  0.11193999999999994  0.76255  0.4519  1.0000
  O   O6        1.0  0.3931  0.85924  0.49698  1.0000
  O   O7        1.0  0.0575000000000001  0.9953300000000003  0.20245999999999997  1.0000
  O   O8        1.0  0.31877  0.03761000000000001  0.22519  1.0000
  O   O9        1.0  0.12604000000000004  0.79447  0.88158  1.0000
  O   O10       1.0  0.31066999999999995  0.76587  0.83459  1.0000
  O   O11       1.0  0.8908199999999998  0.3453200000000001  0.91864  1.0000
  O   O12       1.0  0.06664999999999999  0.29749999999999993  0.85357  1.0000
  O   O13       1.0  0.17607999999999996  0.38763  0.97158  1.0000
  O   O14       1.0  0.4666800000000001  0.9895200000000002  0.86424  1.0000
  O   O15       1.0  0.25877  0.02163  0.88922  1.0000
  O   O16       1.0  0.0764  0.10918000000000003  0.06057  1.0000
  O   O17       1.0  0.31779  0.10089  0.09245  1.0000
  O   O18       1.0  0.35076000000000007  0.38511999999999996  0.73694  1.0000
  O   O19       1.0  0.6357099999999999  0.40015999999999996  0.7814299999999998  1.0000
  O   O20       1.0  0.46808000000000016  0.7655400000000002  0.69137  1.0000
  O   O21       1.0  0.57167  0.7145900000000002  0.8037399999999999  1.0000
  O   O22       1.0  0.44898  0.4026800000000001  0.94102  1.0000
  O   O23       1.0  0.7899699999999998  0.80181  0.79095  1.0000
  O   O24       1.0  0.8669999999999999  0.39856000000000014  0.72421  1.0000
  O   O25       1.0  0.48993999999999993  0.30668  0.66741  1.0000
  O   O26       1.0  0.89649  0.13843  0.23784  1.0000
  O   O27       1.0  0.67697  0.11536000000000003  0.27054  1.0000
  O   O28       1.0  0.13038999999999998  0.12101000000000003  0.52699  1.0000
  O   O29       1.0  0.8163899999999998  0.06808999999999998  0.48857  1.0000
  O   O30       1.0  0.8880699999999998  0.23745000000000005  0.5481  1.0000
  O   O31       1.0  0.60691  0.14077000000000006  0.50302  1.0000
  O   O32       1.0  0.94251  0.004680000000000039  0.79754  1.0000
  O   O33       1.0  0.68124  0.96239  0.77481  1.0000
  O   O34       1.0  0.8739699999999999  0.20553000000000005  0.11842999999999998  1.0000
  O   O35       1.0  0.68934  0.2341300000000001  0.16541  1.0000
  O   O36       1.0  0.10919000000000008  0.6546800000000003  0.08136  1.0000
  O   O37       1.0  0.93336  0.70251  0.14643  1.0000
  O   O38       1.0  0.82393  0.61238  0.02842  1.0000
  O   O39       1.0  0.53333  0.010480000000000014  0.13576  1.0000
  O   O40       1.0  0.7412399999999999  0.9783700000000002  0.11078  1.0000
  O   O41       1.0  0.9235999999999996  0.8908199999999998  0.9394299999999999  1.0000
  O   O42       1.0  0.6822199999999999  0.8991200000000003  0.9075499999999999  1.0000
  O   O43       1.0  0.6492500000000001  0.61488  0.26307  1.0000
  O   O44       1.0  0.3643  0.59984  0.21857  1.0000
  O   O45       1.0  0.5319299999999999  0.23446000000000006  0.30863  1.0000
  O   O46       1.0  0.42833999999999994  0.28541000000000005  0.19626999999999997  1.0000
  O   O47       1.0  0.55103  0.59732  0.05898  1.0000
  O   O48       1.0  0.21003999999999998  0.19819  0.20904999999999999  1.0000
  O   O49       1.0  0.13300999999999993  0.60144  0.27579  1.0000
  O   O50       1.0  0.51007  0.6933200000000003  0.33259  1.0000
