data_image0
_chemical_formula_structural       Cd6H72C99O36
_chemical_formula_sum              "Cd6 H72 C99 O36"
_cell_length_a       15.88929
_cell_length_b       16.394400000000005
_cell_length_c       17.75857
_cell_angle_alpha    113.15312999999999
_cell_angle_beta     113.39109
_cell_angle_gamma    95.89048

_space_group_name_H-M_alt    "P 1"
_space_group_IT_number       1

loop_
  _space_group_symop_operation_xyz
  'x, y, z'

loop_
  _atom_site_type_symbol
  _atom_site_label
  _atom_site_symmetry_multiplicity
  _atom_site_fract_x
  _atom_site_fract_y
  _atom_site_fract_z
  _atom_site_occupancy
  Cd  Cd1       1.0  0.3741500000000001  0.6637100000000002  0.95871  1.0000
  Cd  Cd2       1.0  0.22151999999999994  0.45142  0.92356  1.0000
  Cd  Cd3       1.0  0.5870799999999998  0.8108  0.9887999999999998  1.0000
  Cd  Cd4       1.0  0.03112000000000001  0.28895  0.90739  1.0000
  Cd  Cd5       1.0  0.85259  0.08057999999999987  0.8534299999999998  1.0000
  Cd  Cd6       1.0  0.74924  0.9198400000000001  0.9219799999999998  1.0000
  H   H1        1.0  0.4993  0.36233  0.25398  1.0000
  H   H2        1.0  0.47286  0.38712  0.34823  1.0000
  H   H3        1.0  0.9475299999999999  0.9654300000000001  0.6662699999999998  1.0000
  H   H4        1.0  0.56539  0.23851  0.39921  1.0000
  H   H5        1.0  0.57244  0.35216  0.47718  1.0000
  H   H6        1.0  0.50884  0.43700999999999995  0.13753999999999997  1.0000
  H   H7        1.0  0.58425  0.58481  0.60896  1.0000
  H   H8        1.0  0.9313799999999997  0.6032  0.4551999999999999  1.0000
  H   H9        1.0  0.9349599999999998  0.71317  0.53627  1.0000
  H   H10       1.0  0.04567999999999998  0.8539800000000001  0.4552199999999999  1.0000
  H   H11       1.0  0.12034000000000002  0.82363  0.53933  1.0000
  H   H12       1.0  0.68181  0.4789500000000001  0.2543599999999999  1.0000
  H   H13       1.0  0.65661  0.47952  0.37292  1.0000
  H   H14       1.0  0.73993  0.45896  0.46182  1.0000
  H   H15       1.0  0.8746699999999996  0.33263  0.59603  1.0000
  H   H16       1.0  0.2779399999999999  0.62098  0.76694  1.0000
  H   H17       1.0  0.7368299999999999  0.74742  0.26405  1.0000
  H   H18       1.0  0.8851599999999997  0.7392699999999999  0.32246999999999987  1.0000
  H   H19       1.0  0.85652  0.7735799999999998  0.41599999999999987  1.0000
  H   H20       1.0  0.2351299999999999  0.69421  0.6643399999999998  1.0000
  H   H21       1.0  0.6280799999999997  0.18101999999999988  0.6448399999999997  1.0000
  H   H22       1.0  0.57912  0.24728  0.53595  1.0000
  H   H23       1.0  0.9227799999999999  0.26703999999999994  0.70519  1.0000
  H   H24       1.0  0.5659799999999999  0.70709  0.15353999999999995  1.0000
  H   H25       1.0  0.65067  0.7536800000000002  0.72255  1.0000
  H   H26       1.0  0.59678  0.21427  0.26936  1.0000
  H   H27       1.0  0.7165799999999998  0.28975  0.3536099999999999  1.0000
  H   H28       1.0  0.22349  0.15432000000000007  0.6789  1.0000
  H   H29       1.0  0.31359999999999993  0.16972999999999985  0.6051799999999998  1.0000
  H   H30       1.0  0.28415  0.19569  0.51061  1.0000
  H   H31       1.0  0.33707  0.47164  0.76292  1.0000
  H   H32       1.0  0.76346  0.08361  0.12015  1.0000
  H   H33       1.0  0.45295  0.11218  0.46981  1.0000
  H   H34       1.0  0.33888  0.11064999999999994  0.39012999999999987  1.0000
  H   H35       1.0  0.16264  0.98291  0.57712  1.0000
  H   H36       1.0  0.19340999999999992  0.01824999999999995  0.4777299999999999  1.0000
  H   H37       1.0  0.2233499999999999  0.9397499999999999  0.3957999999999999  1.0000
  H   H38       1.0  0.35028  0.8154299999999999  0.26626999999999995  1.0000
  H   H39       1.0  0.46731  0.08257999999999999  0.60095  1.0000
  H   H40       1.0  0.39708999999999994  0.9670599999999999  0.50863  1.0000
  H   H41       1.0  0.76551  0.62131  0.49  1.0000
  H   H42       1.0  0.8337199999999998  0.7901200000000003  0.60569  1.0000
  H   H43       1.0  0.50645  0.05308999999999998  0.21589999999999998  1.0000
  H   H44       1.0  0.3007599999999998  0.3083799999999999  0.6523599999999998  1.0000
  H   H45       1.0  0.8881000000000002  0.8273700000000003  0.22898  1.0000
  H   H46       1.0  0.70091  0.16033000000000006  0.22676  1.0000
  H   H47       1.0  0.5164099999999999  0.9727699999999999  0.6335699999999999  1.0000
  H   H48       1.0  0.06040999999999992  0.8994799999999997  0.3498499999999999  1.0000
  H   H49       1.0  0.41599  0.7678  0.15590999999999994  1.0000
  H   H50       1.0  0.09107999999999997  0.09052  0.24401999999999993  1.0000
  H   H51       1.0  0.35055999999999987  0.3659  0.21015  1.0000
  H   H52       1.0  0.72603  0.28244  0.01796  1.0000
  H   H53       1.0  0.93488  0.59581  0.58469  1.0000
  H   H54       1.0  0.4415399999999998  0.10145999999999994  0.3274399999999999  1.0000
  H   H55       1.0  0.58742  0.9042099999999998  0.7349399999999998  1.0000
  H   H56       1.0  0.91797  0.019419999999999996  0.12519  1.0000
  H   H57       1.0  0.6276099999999998  0.5309699999999999  0.8066699999999999  1.0000
  H   H58       1.0  0.2885599999999999  0.9875099999999999  0.7087099999999997  1.0000
  H   H59       1.0  0.3639599999999999  0.91995  0.8136899999999998  1.0000
  H   H60       1.0  0.9650099999999999  0.5941  0.32479999999999987  1.0000
  H   H61       1.0  0.08387999999999997  0.64829  0.42215999999999987  1.0000
  H   H62       1.0  0.9787099999999999  0.5239600000000002  0.68935  1.0000
  H   H63       1.0  0.18124  0.31967  0.09453999999999997  1.0000
  H   H64       1.0  0.049750000000000016  0.52848  0.27401  1.0000
  H   H65       1.0  0.59154  0.3646399999999999  0.6925599999999997  1.0000
  H   H66       1.0  0.66344  0.3626  0.12656  1.0000
  H   H67       1.0  0.08561999999999999  0.44484  0.14649999999999994  1.0000
  H   H68       1.0  0.10334000000000003  0.7781300000000002  0.24921  1.0000
  H   H69       1.0  0.00704000000000001  0.13458  0.76436  1.0000
  H   H70       1.0  0.31925  0.08234  0.16208  1.0000
  H   H71       1.0  0.14665  0.03574  0.04277  1.0000
  H   H72       1.0  0.14349  0.69281  0.12261999999999998  1.0000
  C   C1        1.0  0.6032  0.34776  0.36717  1.0000
  C   C2        1.0  0.9795399999999997  0.7204499999999998  0.4372399999999999  1.0000
  C   C3        1.0  0.4997  0.34075  0.30542  1.0000
  C   C4        1.0  0.52595  0.5698900000000002  0.13888  1.0000
  C   C5        1.0  0.007599999999999885  0.0068899999999999  0.6686799999999998  1.0000
  C   C6        1.0  0.7241699999999999  0.2926599999999999  0.5578999999999998  1.0000
  C   C7        1.0  0.60522  0.31311  0.4365199999999999  1.0000
  C   C8        1.0  0.55928  0.50503  0.16691  1.0000
  C   C9        1.0  0.63936  0.63048  0.6094199999999997  1.0000
  C   C10       1.0  0.97179  0.67783  0.49839  1.0000
  C   C11       1.0  0.7776799999999998  0.21854000000000007  0.68173  1.0000
  C   C12       1.0  0.13028  0.56899  0.73634  1.0000
  C   C13       1.0  0.046109999999999964  0.82131  0.4987199999999999  1.0000
  C   C14       1.0  0.08319999999999997  0.64935  0.61815  1.0000
  C   C15       1.0  0.65505  0.52786  0.23125999999999994  1.0000
  C   C16       1.0  0.66367  0.45117999999999997  0.4210799999999999  1.0000
  C   C17       1.0  0.8212499999999999  0.2996499999999999  0.6074599999999998  1.0000
  C   C18       1.0  0.2030799999999999  0.61725  0.72939  1.0000
  C   C19       1.0  0.68814  0.67999  0.23868  1.0000
  C   C20       1.0  0.8009599999999999  0.17144999999999988  0.7401899999999998  1.0000
  C   C21       1.0  0.049819999999999906  0.96357  0.6141299999999997  1.0000
  C   C22       1.0  0.8801899999999999  0.72138  0.3744899999999999  1.0000
  C   C23       1.0  0.1797799999999999  0.65718  0.6708699999999997  1.0000
  C   C24       1.0  0.6813999999999999  0.21407999999999988  0.6333499999999997  1.0000
  C   C25       1.0  0.6540299999999999  0.25102  0.5719799999999998  1.0000
  C   C26       1.0  0.8476399999999998  0.2630399999999999  0.6689399999999998  1.0000
  C   C27       1.0  0.67112  0.5925500000000001  0.54343  1.0000
  C   C28       1.0  0.59123  0.6569599999999999  0.17550999999999994  1.0000
  C   C29       1.0  0.67773  0.72482  0.6733699999999998  1.0000
  C   C30       1.0  0.64379  0.28677  0.30825999999999987  1.0000
  C   C31       1.0  0.74852  0.78327  0.67267  1.0000
  C   C32       1.0  0.16239000000000006  0.11242000000000002  0.67461  1.0000
  C   C33       1.0  0.33533  0.17234999999999998  0.55438  1.0000
  C   C34       1.0  0.48443  0.51277  0.79109  1.0000
  C   C35       1.0  0.3336899999999999  0.0743  0.49378  1.0000
  C   C36       1.0  0.3928199999999999  0.4489199999999999  0.7471499999999998  1.0000
  C   C37       1.0  0.6801300000000001  0.26845  0.18514999999999998  1.0000
  C   C38       1.0  0.7427  0.14541  0.12232999999999997  1.0000
  C   C39       1.0  0.37519999999999987  0.07564999999999994  0.42920999999999987  1.0000
  C   C40       1.0  0.12787  0.016119999999999947  0.6172799999999999  1.0000
  C   C41       1.0  0.78976  0.13274  4e-05  1.0000
  C   C42       1.0  0.75098  0.17923  0.06353  1.0000
  C   C43       1.0  0.50612  0.61201  0.85718  1.0000
  C   C44       1.0  0.3931799999999999  0.9609799999999997  0.3047799999999999  1.0000
  C   C45       1.0  0.2278299999999999  0.01288999999999995  0.4338999999999999  1.0000
  C   C46       1.0  0.15166999999999992  0.52393  0.7964599999999997  1.0000
  C   C47       1.0  0.38431  0.86679  0.25435  1.0000
  C   C48       1.0  0.39364  0.03404000000000001  0.55366  1.0000
  C   C49       1.0  0.3964  0.98325  0.66339  1.0000
  C   C50       1.0  0.08618999999999992  0.00041999999999994223  0.3046799999999999  1.0000
  C   C51       1.0  0.74204  0.64965  0.54206  1.0000
  C   C52       1.0  0.7797400000000001  0.7443600000000002  0.60645  1.0000
  C   C53       1.0  0.44412999999999997  0.3262799999999999  0.6642299999999998  1.0000
  C   C54       1.0  0.8916  0.9179500000000003  0.16942  1.0000
  C   C55       1.0  0.16047999999999993  0.2596199999999999  0.7895899999999998  1.0000
  C   C56       1.0  0.13723  0.51006  0.04987  1.0000
  C   C57       1.0  0.46559  0.90806  0.17790999999999996  1.0000
  C   C58       1.0  0.47243999999999997  0.0016199999999999795  0.22770999999999994  1.0000
  C   C59       1.0  0.42329  0.5465  0.07101  1.0000
  C   C60       1.0  0.3721899999999999  0.35594  0.68412  1.0000
  C   C61       1.0  0.93333  0.88514  0.23317  1.0000
  C   C62       1.0  0.70733  0.18913  0.18301  1.0000
  C   C63       1.0  0.4811899999999999  0.9605599999999999  0.6711699999999998  1.0000
  C   C64       1.0  0.029950000000000008  0.9255  0.30067  1.0000
  C   C65       1.0  0.4204  0.84068  0.1917  1.0000
  C   C66       1.0  0.51021  0.88443  0.11588999999999998  1.0000
  C   C67       1.0  0.04591999999999994  0.032869999999999976  0.24007999999999993  1.0000
  C   C68       1.0  0.5244499999999997  0.86694  0.84292  1.0000
  C   C69       1.0  0.78738  0.8851099999999998  0.73655  1.0000
  C   C70       1.0  0.30711  0.2935900000000001  0.17464  1.0000
  C   C71       1.0  0.72112  0.25746  0.06490999999999998  1.0000
  C   C72       1.0  0.009739999999999981  0.6014299999999999  0.6242199999999999  1.0000
  C   C73       1.0  0.43636  0.028729999999999947  0.2905899999999999  1.0000
  C   C74       1.0  0.78678  0.87734  0.10477  1.0000
  C   C75       1.0  0.34559  0.22655  0.19393999999999995  1.0000
  C   C76       1.0  0.5217699999999997  0.92197  0.7291  1.0000
  C   C77       1.0  0.94935  0.9919999999999999  0.17314999999999994  1.0000
  C   C78       1.0  0.5563  0.48148  0.77147  1.0000
  C   C79       1.0  0.15222  0.17425  0.06084  1.0000
  C   C80       1.0  0.12066999999999999  0.1572  0.72915  1.0000
  C   C81       1.0  0.11587  0.56288  0.12596  1.0000
  C   C82       1.0  0.35363000000000006  0.9685299999999999  0.71466  1.0000
  C   C83       1.0  0.4797999999999999  0.9066399999999999  0.7803599999999998  1.0000
  C   C84       1.0  0.71979  0.61521  0.26701  1.0000
  C   C85       1.0  0.39550999999999986  0.9310299999999999  0.7728799999999998  1.0000
  C   C86       1.0  0.020829999999999974  0.6611799999999999  0.3783999999999999  1.0000
  C   C87       1.0  0.03408999999999989  0.56144  0.6831399999999997  1.0000
  C   C88       1.0  0.21072999999999997  0.26702  0.10851999999999998  1.0000
  C   C89       1.0  0.06875  0.56509  0.241  1.0000
  C   C90       1.0  0.53661  0.38934  0.70839  1.0000
  C   C91       1.0  0.68619  0.30197  0.12514999999999998  1.0000
  C   C92       1.0  0.08958999999999995  0.51783  0.16950999999999994  1.0000
  C   C93       1.0  0.07252  0.6587100000000002  0.26848  1.0000
  C   C94       1.0  0.10044999999999996  0.7053799999999998  0.22651999999999994  1.0000
  C   C95       1.0  0.04969999999999986  0.14545999999999992  0.9909399999999998  1.0000
  C   C96       1.0  0.04304999999999986  0.10266999999999989  0.7251999999999997  1.0000
  C   C97       1.0  0.28779  0.13327000000000003  0.14646999999999993  1.0000
  C   C98       1.0  0.19224  0.10764999999999998  0.08038999999999998  1.0000
  C   C99       1.0  0.12220999999999999  0.65769  0.15596999999999994  1.0000
  O   O1        1.0  0.8918100000000001  0.18551  0.79617  1.0000
  O   O2        1.0  0.73611  0.11524000000000001  0.73451  1.0000
  O   O3        1.0  0.7048  0.32852  0.49712  1.0000
  O   O4        1.0  0.81296  0.6301299999999999  0.3294699999999999  1.0000
  O   O5        1.0  0.43934  0.24582  0.25835  1.0000
  O   O6        1.0  0.06880999999999997  0.6910300000000001  0.5626699999999999  1.0000
  O   O7        1.0  0.009140000000000025  0.8691300000000001  0.55961  1.0000
  O   O8        1.0  0.62707  0.4993  0.48277999999999993  1.0000
  O   O9        1.0  0.13154  0.29928000000000005  0.85191  1.0000
  O   O10       1.0  0.12826999999999994  0.4224500000000001  0.02611  1.0000
  O   O11       1.0  0.39232  0.61313  0.06044999999999998  1.0000
  O   O12       1.0  0.56968  0.94484  0.12103  1.0000
  O   O13       1.0  0.43514999999999987  0.6414499999999999  0.8632799999999998  1.0000
  O   O14       1.0  0.48854  0.79557  0.05559999999999999  1.0000
  O   O15       1.0  0.8372199999999999  0.9381299999999999  0.7239599999999999  1.0000
  O   O16       1.0  0.82647  0.06782  0.00898  1.0000
  O   O17       1.0  0.76635  0.9216100000000002  0.80469  1.0000
  O   O18       1.0  0.2213599999999998  0.3092999999999999  0.7850099999999998  1.0000
  O   O19       1.0  0.24222999999999995  0.5471600000000001  0.8608799999999998  1.0000
  O   O20       1.0  0.74709  0.8963000000000001  0.03563  1.0000
  O   O21       1.0  0.59685  0.8373300000000001  0.8415199999999998  1.0000
  O   O22       1.0  0.73395  0.82767  0.11774  1.0000
  O   O23       1.0  0.5920699999999999  0.66563  0.9033299999999997  1.0000
  O   O24       1.0  0.7871099999999995  0.1589299999999999  0.9409199999999998  1.0000
  O   O25       1.0  0.36933  0.46256  0.027259999999999993  1.0000
  O   O26       1.0  0.012529999999999987  0.20918999999999996  0.9773199999999999  1.0000
  O   O27       1.0  0.9981199999999999  0.061410000000000006  0.94675  1.0000
  O   O28       1.0  0.64636  0.3182100000000001  0.24384  1.0000
  O   O29       1.0  0.35797  0.97971  0.36671  1.0000
  O   O30       1.0  0.43085999999999985  0.2362899999999999  0.6024399999999998  1.0000
  O   O31       1.0  0.35014  0.02033000000000001  0.60692  1.0000
  O   O32       1.0  0.08810999999999991  0.46382  0.7872399999999998  1.0000
  O   O33       1.0  0.18098  0.04668999999999998  0.3695  1.0000
  O   O34       1.0  0.49012  0.8616  0.89489  1.0000
  O   O35       1.0  0.16642  0.55112  0.013589999999999996  1.0000
  O   O36       1.0  0.04879999999999999  0.7095  0.33537  1.0000
