data_image0
_chemical_formula_structural       Zn8P8H64C52N8O24
_chemical_formula_sum              "Zn8 P8 H64 C52 N8 O24"
_cell_length_a       9.33891
_cell_length_b       9.99534
_cell_length_c       24.08083
_cell_angle_alpha    90.0
_cell_angle_beta     90.0
_cell_angle_gamma    90.0

_space_group_name_H-M_alt    "P 1"
_space_group_IT_number       1

loop_
  _space_group_symop_operation_xyz
  'x, y, z'

loop_
  _atom_site_type_symbol
  _atom_site_label
  _atom_site_symmetry_multiplicity
  _atom_site_fract_x
  _atom_site_fract_y
  _atom_site_fract_z
  _atom_site_occupancy
  Zn  Zn1       1.0  0.49541  0.8843999999999999  0.9791699999999999  1.0000
  Zn  Zn2       1.0  0.36961  0.8774699999999999  0.50776  1.0000
  Zn  Zn3       1.0  0.00459  0.11560999999999999  0.47917  1.0000
  Zn  Zn4       1.0  0.13038999999999998  0.12253  0.00776  1.0000
  Zn  Zn5       1.0  0.50459  0.3844  0.5208299999999999  1.0000
  Zn  Zn6       1.0  0.6304  0.37746999999999997  0.99224  1.0000
  Zn  Zn7       1.0  0.9954099999999999  0.6156099999999999  0.020829999999999998  1.0000
  Zn  Zn8       1.0  0.8696099999999999  0.6225299999999999  0.49224  1.0000
  P   P1        1.0  0.72395  0.6584  0.9418  1.0000
  P   P2        1.0  0.41862  0.1658  0.93316  1.0000
  P   P3        1.0  0.77605  0.3416  0.44181  1.0000
  P   P4        1.0  0.08138  0.83421  0.43316  1.0000
  P   P5        1.0  0.27605  0.1584  0.55819  1.0000
  P   P6        1.0  0.58138  0.6658  0.56684  1.0000
  P   P7        1.0  0.22394999999999998  0.8416  0.05818999999999999  1.0000
  P   P8        1.0  0.91862  0.3342  0.06684  1.0000
  H   H1        1.0  0.7689  0.8461199999999999  0.04497  1.0000
  H   H2        1.0  0.87172  0.9350699999999998  0.13305  1.0000
  H   H3        1.0  0.51204  0.20771999999999996  0.14098999999999998  1.0000
  H   H4        1.0  0.42554  0.10903  0.052759999999999994  1.0000
  H   H5        1.0  0.8637499999999999  0.1122  0.20576  1.0000
  H   H6        1.0  0.73191  0.23875999999999997  0.20237999999999998  1.0000
  H   H7        1.0  0.5514  0.07733  0.24426  1.0000
  H   H8        1.0  0.68766  0.9575  0.2514  1.0000
  H   H9        1.0  0.69065  0.23824999999999996  0.30388  1.0000
  H   H10       1.0  0.82801  0.1191  0.31236  1.0000
  H   H11       1.0  0.8168699999999999  0.9656699999999999  0.38913999999999993  1.0000
  H   H12       1.0  0.67853  0.869  0.4677  1.0000
  H   H13       1.0  0.30515  0.06057  0.41719  1.0000
  H   H14       1.0  0.42911999999999995  0.16501  0.33647  1.0000
  H   H15       1.0  0.8103  0.68367  0.89519  1.0000
  H   H16       1.0  0.38094  0.21926999999999996  0.8812299999999998  1.0000
  H   H17       1.0  0.73111  0.15388999999999997  0.54497  1.0000
  H   H18       1.0  0.62829  0.06492999999999999  0.63305  1.0000
  H   H19       1.0  0.98797  0.79228  0.64099  1.0000
  H   H20       1.0  0.07446  0.89097  0.5527599999999999  1.0000
  H   H21       1.0  0.63625  0.8877999999999999  0.70576  1.0000
  H   H22       1.0  0.76809  0.76124  0.70237  1.0000
  H   H23       1.0  0.9486099999999998  0.9226699999999999  0.7442599999999998  1.0000
  H   H24       1.0  0.81235  0.0425  0.7514  1.0000
  H   H25       1.0  0.80935  0.76176  0.8038799999999999  1.0000
  H   H26       1.0  0.6719899999999999  0.88091  0.8123599999999997  1.0000
  H   H27       1.0  0.68313  0.03433  0.8891299999999999  1.0000
  H   H28       1.0  0.8214699999999998  0.13101  0.9677  1.0000
  H   H29       1.0  0.19485  0.9394299999999998  0.91719  1.0000
  H   H30       1.0  0.07088  0.83499  0.83647  1.0000
  H   H31       1.0  0.6897  0.31633  0.39519  1.0000
  H   H32       1.0  0.11905999999999999  0.78074  0.38123  1.0000
  H   H33       1.0  0.23111  0.34611  0.45502999999999993  1.0000
  H   H34       1.0  0.12828  0.43506999999999996  0.36695  1.0000
  H   H35       1.0  0.48796  0.70772  0.35900999999999994  1.0000
  H   H36       1.0  0.57446  0.60903  0.44723999999999997  1.0000
  H   H37       1.0  0.13625  0.6121999999999999  0.29424  1.0000
  H   H38       1.0  0.26809  0.73876  0.29762  1.0000
  H   H39       1.0  0.44859999999999994  0.57733  0.25574  1.0000
  H   H40       1.0  0.31234  0.45749999999999996  0.24859999999999996  1.0000
  H   H41       1.0  0.30935  0.73825  0.19611999999999996  1.0000
  H   H42       1.0  0.17199  0.6191  0.18762999999999996  1.0000
  H   H43       1.0  0.18313  0.46567  0.11085999999999997  1.0000
  H   H44       1.0  0.32147  0.36899  0.0323  1.0000
  H   H45       1.0  0.69485  0.56058  0.08281  1.0000
  H   H46       1.0  0.57088  0.66501  0.16353  1.0000
  H   H47       1.0  0.18969999999999998  0.18367  0.6048099999999998  1.0000
  H   H48       1.0  0.61906  0.7192699999999999  0.61877  1.0000
  H   H49       1.0  0.2689  0.65389  0.9550199999999999  1.0000
  H   H50       1.0  0.37172  0.56493  0.8669499999999999  1.0000
  H   H51       1.0  0.01204  0.29228  0.85901  1.0000
  H   H52       1.0  0.9255499999999999  0.39097  0.9472299999999999  1.0000
  H   H53       1.0  0.36375  0.3878  0.7942399999999998  1.0000
  H   H54       1.0  0.23191  0.26123999999999997  0.7976199999999999  1.0000
  H   H55       1.0  0.0514  0.42267  0.75574  1.0000
  H   H56       1.0  0.18766  0.5425  0.7485999999999998  1.0000
  H   H57       1.0  0.19065  0.26176  0.69612  1.0000
  H   H58       1.0  0.32801  0.3809  0.68763  1.0000
  H   H59       1.0  0.31687  0.53433  0.61086  1.0000
  H   H60       1.0  0.17853  0.63101  0.5323  1.0000
  H   H61       1.0  0.8051499999999999  0.43942999999999993  0.58281  1.0000
  H   H62       1.0  0.9291299999999999  0.33499  0.66352  1.0000
  H   H63       1.0  0.31029999999999996  0.8163299999999999  0.10481  1.0000
  H   H64       1.0  0.8809399999999998  0.28073  0.11876999999999999  1.0000
  C   C1        1.0  0.71571  0.92559  0.06818  1.0000
  C   C2        1.0  0.77081  0.9754599999999999  0.11771999999999999  1.0000
  C   C3        1.0  0.69763  0.0768  0.14617  1.0000
  C   C4        1.0  0.57192  0.12636  0.12189  1.0000
  C   C5        1.0  0.52288  0.07264  0.07229999999999999  1.0000
  C   C6        1.0  0.7482299999999998  0.12981  0.20123  1.0000
  C   C7        1.0  0.66742  0.06582  0.25042  1.0000
  C   C8        1.0  0.71215  0.13009  0.30596  1.0000
  C   C9        1.0  0.63391  0.07158  0.3549  1.0000
  C   C10       1.0  0.70318  0.9878699999999998  0.39293999999999996  1.0000
  C   C11       1.0  0.6274  0.93462  0.4374899999999999  1.0000
  C   C12       1.0  0.41834  0.04230999999999999  0.40921  1.0000
  C   C13       1.0  0.48832  0.09860999999999999  0.36402999999999996  1.0000
  C   C14       1.0  0.7842899999999999  0.07441  0.5681699999999998  1.0000
  C   C15       1.0  0.72919  0.02454  0.6177199999999999  1.0000
  C   C16       1.0  0.80238  0.9232  0.64617  1.0000
  C   C17       1.0  0.9280799999999999  0.87364  0.62189  1.0000
  C   C18       1.0  0.97712  0.9273699999999999  0.5723  1.0000
  C   C19       1.0  0.75177  0.8702  0.70123  1.0000
  C   C20       1.0  0.8325799999999999  0.93419  0.75042  1.0000
  C   C21       1.0  0.78786  0.86991  0.80596  1.0000
  C   C22       1.0  0.86609  0.92842  0.8549  1.0000
  C   C23       1.0  0.7968299999999999  0.01213  0.89294  1.0000
  C   C24       1.0  0.8726  0.06538  0.93749  1.0000
  C   C25       1.0  0.08165999999999998  0.9576899999999999  0.9092099999999999  1.0000
  C   C26       1.0  0.01168  0.9013899999999999  0.8640199999999999  1.0000
  C   C27       1.0  0.28429  0.42558999999999997  0.43181999999999987  1.0000
  C   C28       1.0  0.22918999999999998  0.47546  0.38227999999999995  1.0000
  C   C29       1.0  0.30238  0.57681  0.35383  1.0000
  C   C30       1.0  0.42808  0.62636  0.3781099999999999  1.0000
  C   C31       1.0  0.47711999999999993  0.57264  0.4277  1.0000
  C   C32       1.0  0.25177  0.6298099999999999  0.29877  1.0000
  C   C33       1.0  0.33258  0.5658199999999999  0.24958  1.0000
  C   C34       1.0  0.28786  0.6301  0.19404  1.0000
  C   C35       1.0  0.36608999999999997  0.57159  0.1451  1.0000
  C   C36       1.0  0.29682  0.48786999999999997  0.10706  1.0000
  C   C37       1.0  0.3726  0.43461999999999995  0.0625  1.0000
  C   C38       1.0  0.58166  0.54231  0.09078999999999998  1.0000
  C   C39       1.0  0.51168  0.59861  0.13597  1.0000
  C   C40       1.0  0.21570999999999999  0.57441  0.93182  1.0000
  C   C41       1.0  0.27081  0.52454  0.88228  1.0000
  C   C42       1.0  0.19763  0.4232  0.85383  1.0000
  C   C43       1.0  0.07192  0.37364  0.87811  1.0000
  C   C44       1.0  0.02288  0.42736  0.92769  1.0000
  C   C45       1.0  0.24823  0.3702  0.79877  1.0000
  C   C46       1.0  0.16742  0.43418999999999996  0.74958  1.0000
  C   C47       1.0  0.21214999999999998  0.36990999999999996  0.6940399999999999  1.0000
  C   C48       1.0  0.13391  0.4284199999999999  0.6451  1.0000
  C   C49       1.0  0.20318  0.51214  0.60705  1.0000
  C   C50       1.0  0.1274  0.56538  0.5625  1.0000
  C   C51       1.0  0.9183499999999999  0.45768999999999993  0.59079  1.0000
  C   C52       1.0  0.98832  0.40139  0.6359699999999999  1.0000
  N   N1        1.0  0.59226  0.97211  0.046  1.0000
  N   N2        1.0  0.48655999999999994  0.96043  0.44542  1.0000
  N   N3        1.0  0.9077400000000001  0.027899999999999998  0.546  1.0000
  N   N4        1.0  0.01344  0.03957  0.9454199999999999  1.0000
  N   N5        1.0  0.40774  0.4721099999999999  0.454  1.0000
  N   N6        1.0  0.51345  0.46043  0.05457999999999999  1.0000
  N   N7        1.0  0.09226  0.5279  0.9539999999999998  1.0000
  N   N8        1.0  0.98656  0.53958  0.55457  1.0000
  O   O1        1.0  0.5932999999999999  0.75104  0.9358299999999999  1.0000
  O   O2        1.0  0.42894  0.01379  0.92239  1.0000
  O   O3        1.0  0.81352  0.69305  0.9938899999999998  1.0000
  O   O4        1.0  0.68599  0.50911  0.9362199999999999  1.0000
  O   O5        1.0  0.30048  0.20674999999999996  0.9744899999999999  1.0000
  O   O6        1.0  0.56422  0.22564  0.9494199999999999  1.0000
  O   O7        1.0  0.9066999999999998  0.24897  0.43583  1.0000
  O   O8        1.0  0.07106  0.98621  0.42238999999999993  1.0000
  O   O9        1.0  0.68648  0.30696  0.49389  1.0000
  O   O10       1.0  0.81402  0.4908899999999999  0.4362199999999999  1.0000
  O   O11       1.0  0.19952  0.79325  0.47449999999999987  1.0000
  O   O12       1.0  0.93578  0.7743699999999999  0.4494199999999999  1.0000
  O   O13       1.0  0.4067  0.25104  0.56417  1.0000
  O   O14       1.0  0.57106  0.5138  0.57761  1.0000
  O   O15       1.0  0.18648  0.19304999999999997  0.50611  1.0000
  O   O16       1.0  0.31402  0.00911  0.56377  1.0000
  O   O17       1.0  0.69952  0.70675  0.5255  1.0000
  O   O18       1.0  0.43578  0.72564  0.55057  1.0000
  O   O19       1.0  0.0933  0.74897  0.06417  1.0000
  O   O20       1.0  0.92894  0.4862099999999999  0.07761  1.0000
  O   O21       1.0  0.31351999999999997  0.80696  0.00611  1.0000
  O   O22       1.0  0.18598  0.9908899999999999  0.06378  1.0000
  O   O23       1.0  0.80048  0.29325  0.0255  1.0000
  O   O24       1.0  0.06422  0.27437  0.05057  1.0000
