data_image0
_chemical_formula_structural       Ho8H24C72S12O48
_chemical_formula_sum              "Ho8 H24 C72 S12 O48"
_cell_length_a       10.18479
_cell_length_b       16.73389
_cell_length_c       17.76545
_cell_angle_alpha    90.00946
_cell_angle_beta     90.01171
_cell_angle_gamma    90.01187

_space_group_name_H-M_alt    "P 1"
_space_group_IT_number       1

loop_
  _space_group_symop_operation_xyz
  'x, y, z'

loop_
  _atom_site_type_symbol
  _atom_site_label
  _atom_site_symmetry_multiplicity
  _atom_site_fract_x
  _atom_site_fract_y
  _atom_site_fract_z
  _atom_site_occupancy
  Ho  Ho1       1.0  0.82418  0.52408  0.11560000000000001  1.0000
  Ho  Ho2       1.0  0.62677  0.31957  0.10244  1.0000
  Ho  Ho3       1.0  0.17573  0.4761  0.61554  1.0000
  Ho  Ho4       1.0  0.37025  0.68058  0.60254  1.0000
  Ho  Ho5       1.0  0.679  0.02396  0.11732  1.0000
  Ho  Ho6       1.0  0.87336  0.8195  0.10255  1.0000
  Ho  Ho7       1.0  0.32484999999999997  0.9760200000000001  0.61557  1.0000
  Ho  Ho8       1.0  0.1299  0.18062  0.60242  1.0000
  H   H1        1.0  0.03885  0.46856  0.9477400000000001  1.0000
  H   H2        1.0  0.62016  0.63512  0.9296199999999999  1.0000
  H   H3        1.0  0.92994  0.19905  0.4321400000000001  1.0000
  H   H4        1.0  0.1386  0.4515  0.80994  1.0000
  H   H5        1.0  0.85042  0.20526000000000005  0.28915  1.0000
  H   H6        1.0  0.52841  0.64978  0.7884  1.0000
  H   H7        1.0  0.96106  0.53113  0.44775  1.0000
  H   H8        1.0  0.37971999999999995  0.36477  0.42943  1.0000
  H   H9        1.0  0.07153  0.80043  0.93238  1.0000
  H   H10       1.0  0.86188  0.54823  0.30985  1.0000
  H   H11       1.0  0.14733999999999997  0.79409  0.78882  1.0000
  H   H12       1.0  0.47168  0.34986  0.28834  1.0000
  H   H13       1.0  0.46055  0.9690899999999999  0.9477300000000001  1.0000
  H   H14       1.0  0.87946  0.13497000000000003  0.9296  1.0000
  H   H15       1.0  0.57041  0.69923  0.43247  1.0000
  H   H16       1.0  0.3612  0.95166  0.80999  1.0000
  H   H17       1.0  0.6494599999999999  0.70553  0.28966  1.0000
  H   H18       1.0  0.9716599999999999  0.15003  0.78862  1.0000
  H   H19       1.0  0.53834  0.03152  0.44796  1.0000
  H   H20       1.0  0.11990999999999999  0.86351  0.43108  1.0000
  H   H21       1.0  0.42963  0.30004  0.93285  1.0000
  H   H22       1.0  0.63897  0.04869  0.31021  1.0000
  H   H23       1.0  0.35270999999999997  0.2935  0.78934  1.0000
  H   H24       1.0  0.02972  0.8494  0.2893  1.0000
  C   C1        1.0  0.5774  0.4847000000000001  0.00326  1.0000
  C   C2        1.0  0.9209599999999998  0.32828  0.28788  1.0000
  C   C3        1.0  0.53539  0.5159500000000002  0.92982  1.0000
  C   C4        1.0  0.01484  0.42104000000000014  0.9084199999999999  1.0000
  C   C5        1.0  0.99417  0.32188  0.4201  1.0000
  C   C6        1.0  0.56579  0.58995  0.89855  1.0000
  C   C7        1.0  0.4542  0.52905  0.79977  1.0000
  C   C8        1.0  0.93971  0.25025  0.39515  1.0000
  C   C9        1.0  0.06671  0.41222  0.83554  1.0000
  C   C10       1.0  0.01575  0.34624  0.79807  1.0000
  C   C11       1.0  0.9237099999999999  0.36213  0.92562  1.0000
  C   C12       1.0  0.8445099999999999  0.35644  0.99425  1.0000
  C   C13       1.0  0.87456  0.3581  0.21496  1.0000
  C   C14       1.0  0.89766  0.25364  0.31981  1.0000
  C   C15       1.0  0.51914  0.59742  0.82425  1.0000
  C   C16       1.0  0.05397999999999999  0.3187200000000001  0.72238  1.0000
  C   C17       1.0  0.38974999999999993  0.51726  0.72674  1.0000
  C   C18       1.0  0.037619999999999994  0.33834  0.49773  1.0000
  C   C19       1.0  0.42041  0.5152  0.50278  1.0000
  C   C20       1.0  0.07499  0.67124  0.78758  1.0000
  C   C21       1.0  0.4631  0.48423  0.42934  1.0000
  C   C22       1.0  0.98501  0.57886  0.40868  1.0000
  C   C23       1.0  0.00575  0.67794  0.92052  1.0000
  C   C24       1.0  0.43394  0.40991  0.3983  1.0000
  C   C25       1.0  0.5456  0.47073  0.2997  1.0000
  C   C26       1.0  0.06038  0.74936  0.89528  1.0000
  C   C27       1.0  0.93338  0.58775  0.33567  1.0000
  C   C28       1.0  0.98498  0.65369  0.29831  1.0000
  C   C29       1.0  0.07605  0.6377000000000003  0.42622  1.0000
  C   C30       1.0  0.15572  0.6438100000000001  0.4945300000000001  1.0000
  C   C31       1.0  0.1204  0.64196  0.71402  1.0000
  C   C32       1.0  0.10006  0.7457900000000002  0.81954  1.0000
  C   C33       1.0  0.48112999999999995  0.40223  0.32417  1.0000
  C   C34       1.0  0.9491999999999999  0.68156  0.22226  1.0000
  C   C35       1.0  0.61005  0.48229  0.2268  1.0000
  C   C36       1.0  0.9635699999999999  0.66112  0.99823  1.0000
  C   C37       1.0  0.9259399999999998  0.98482  0.00385  1.0000
  C   C38       1.0  0.5777599999999999  0.82852  0.28788  1.0000
  C   C39       1.0  0.96481  0.0157  0.92958  1.0000
  C   C40       1.0  0.48509  0.92131  0.90875  1.0000
  C   C41       1.0  0.50552  0.82195  0.42038  1.0000
  C   C42       1.0  0.9338999999999998  0.08981  0.89862  1.0000
  C   C43       1.0  0.04477999999999999  0.02927  0.79948  1.0000
  C   C44       1.0  0.56029  0.75044  0.39545  1.0000
  C   C45       1.0  0.43277999999999994  0.9122300000000002  0.83587  1.0000
  C   C46       1.0  0.4837099999999999  0.8461700000000002  0.79848  1.0000
  C   C47       1.0  0.57651  0.8626  0.9260999999999999  1.0000
  C   C48       1.0  0.6567499999999998  0.8570300000000002  0.99447  1.0000
  C   C49       1.0  0.6238599999999999  0.85822  0.21466  1.0000
  C   C50       1.0  0.60193  0.75399  0.32005  1.0000
  C   C51       1.0  0.98027  0.09763  0.8243900000000001  1.0000
  C   C52       1.0  0.44645999999999997  0.81853  0.7226  1.0000
  C   C53       1.0  0.11004  0.01865  0.72657  1.0000
  C   C54       1.0  0.4630099999999999  0.8387  0.49813999999999997  1.0000
  C   C55       1.0  0.08142  0.01494  0.50307  1.0000
  C   C56       1.0  0.42488  0.17077  0.78814  1.0000
  C   C57       1.0  0.03945  0.98388  0.42982  1.0000
  C   C58       1.0  0.5154799999999999  0.07919  0.40858  1.0000
  C   C59       1.0  0.49493  0.17739  0.9210299999999999  1.0000
  C   C60       1.0  0.06765  0.9091500000000002  0.39942  1.0000
  C   C61       1.0  0.9568899999999999  0.9702899999999999  0.30068  1.0000
  C   C62       1.0  0.44009  0.24884000000000003  0.89584  1.0000
  C   C63       1.0  0.56688  0.088  0.33556  1.0000
  C   C64       1.0  0.5151699999999999  0.15378  0.29808  1.0000
  C   C65       1.0  0.4244599999999999  0.13807  0.42595  1.0000
  C   C66       1.0  0.34524  0.14441  0.49448  1.0000
  C   C67       1.0  0.37949999999999995  0.14129  0.71463  1.0000
  C   C68       1.0  0.3999  0.24525000000000002  0.82016  1.0000
  C   C69       1.0  0.02074  0.90164  0.32527  1.0000
  C   C70       1.0  0.55128  0.18132  0.22218  1.0000
  C   C71       1.0  0.89093  0.98152  0.22820999999999997  1.0000
  C   C72       1.0  0.53836  0.16043  0.99855  1.0000
  S   S1        1.0  0.44896  0.45589  0.86823  1.0000
  S   S2        1.0  0.90315  0.29512  0.85257  1.0000
  S   S3        1.0  0.9972799999999999  0.39269  0.34976  1.0000
  S   S4        1.0  0.54948  0.54428  0.36776  1.0000
  S   S5        1.0  0.09707999999999999  0.70475  0.35338  1.0000
  S   S6        1.0  0.99913  0.60723  0.85017  1.0000
  S   S7        1.0  0.05001  0.9557200000000002  0.86733  1.0000
  S   S8        1.0  0.59662  0.79528  0.8531  1.0000
  S   S9        1.0  0.50132  0.89275  0.35004  1.0000
  S   S10       1.0  0.9541599999999999  0.04433000000000001  0.36823  1.0000
  S   S11       1.0  0.40325999999999995  0.20496000000000003  0.35304  1.0000
  S   S12       1.0  0.50051  0.10670000000000003  0.85075  1.0000
  O   O1        1.0  0.54513  0.4127  0.01981  1.0000
  O   O2        1.0  0.39503999999999995  0.57375  0.67781  1.0000
  O   O3        1.0  0.03339  0.24582  0.7048  1.0000
  O   O4        1.0  0.77201  0.29509  0.0045  1.0000
  O   O5        1.0  0.8984799999999998  0.43178  0.19919  1.0000
  O   O6        1.0  0.6452899999999999  0.53135  0.04496  1.0000
  O   O7        1.0  0.8088899999999999  0.30975  0.17407  1.0000
  O   O8        1.0  0.02815  0.27985  0.54365  1.0000
  O   O9        1.0  0.84855  0.41456  0.04148  1.0000
  O   O10       1.0  0.32486  0.4532700000000001  0.71482  1.0000
  O   O11       1.0  0.07743999999999998  0.40858000000000005  0.51518  1.0000
  O   O12       1.0  0.10852  0.36913  0.67844  1.0000
  O   O13       1.0  0.44843999999999995  0.58804  0.51874  1.0000
  O   O14       1.0  0.60399  0.42565  0.17813  1.0000
  O   O15       1.0  0.9753499999999999  0.75379  0.20434  1.0000
  O   O16       1.0  0.22648  0.70598  0.50453  1.0000
  O   O17       1.0  0.09569  0.56874  0.69679  1.0000
  O   O18       1.0  0.35611  0.46757  0.54522  1.0000
  O   O19       1.0  0.18723  0.6905700000000002  0.67405  1.0000
  O   O20       1.0  0.97383  0.7191  0.04476  1.0000
  O   O21       1.0  0.15467  0.58535  0.54145  1.0000
  O   O22       1.0  0.67507  0.54617  0.21461  1.0000
  O   O23       1.0  0.9237399999999999  0.59091  0.015380000000000001  1.0000
  O   O24       1.0  0.89133  0.63188  0.1787  1.0000
  O   O25       1.0  0.9563999999999999  0.91214  0.01933  1.0000
  O   O26       1.0  0.10448  0.07576000000000002  0.6785  1.0000
  O   O27       1.0  0.46886  0.74585  0.70481  1.0000
  O   O28       1.0  0.72781  0.7950400000000002  0.00461  1.0000
  O   O29       1.0  0.5991  0.9318100000000001  0.19826  1.0000
  O   O30       1.0  0.8631399999999999  0.031950000000000006  0.04749  1.0000
  O   O31       1.0  0.68929  0.80976  0.17385000000000003  1.0000
  O   O32       1.0  0.47270999999999996  0.78068  0.54462  1.0000
  O   O33       1.0  0.65719  0.9156400000000002  0.04134  1.0000
  O   O34       1.0  0.17434  0.95508  0.71238  1.0000
  O   O35       1.0  0.42335999999999996  0.9090100000000002  0.51529  1.0000
  O   O36       1.0  0.39084  0.86883  0.67893  1.0000
  O   O37       1.0  0.05322  0.0877  0.51897  1.0000
  O   O38       1.0  0.89592  0.9252  0.1791  1.0000
  O   O39       1.0  0.52566  0.25352000000000013  0.20407  1.0000
  O   O40       1.0  0.27426  0.20636  0.50464  1.0000
  O   O41       1.0  0.40466  0.06792000000000002  0.69799  1.0000
  O   O42       1.0  0.14611999999999997  0.9674500000000001  0.54538  1.0000
  O   O43       1.0  0.31399  0.18994  0.67396  1.0000
  O   O44       1.0  0.52882  0.21865  0.04483  1.0000
  O   O45       1.0  0.34765999999999997  0.08607  0.54154  1.0000
  O   O46       1.0  0.8258399999999999  0.04544  0.21646  1.0000
  O   O47       1.0  0.5784  0.09032  0.01579  1.0000
  O   O48       1.0  0.6085  0.13128  0.17872  1.0000
