data_image0
_chemical_formula_structural       Zn6H78C90O30
_chemical_formula_sum              "Zn6 H78 C90 O30"
_cell_length_a       16.85071
_cell_length_b       16.8641
_cell_length_c       16.85679
_cell_angle_alpha    67.11955
_cell_angle_beta     67.10258
_cell_angle_gamma    67.17305

_space_group_name_H-M_alt    "P 1"
_space_group_IT_number       1

loop_
  _space_group_symop_operation_xyz
  'x, y, z'

loop_
  _atom_site_type_symbol
  _atom_site_label
  _atom_site_symmetry_multiplicity
  _atom_site_fract_x
  _atom_site_fract_y
  _atom_site_fract_z
  _atom_site_occupancy
  Zn  Zn1       1.0  0.79341  0.8307600000000003  0.38061  1.0000
  Zn  Zn2       1.0  0.7848099999999999  0.82257  0.23057  1.0000
  Zn  Zn3       1.0  0.38135999999999987  0.79756  0.82537  1.0000
  Zn  Zn4       1.0  0.23099  0.7894300000000001  0.8176  1.0000
  Zn  Zn5       1.0  0.82928  0.38438000000000017  0.79346  1.0000
  Zn  Zn6       1.0  0.8214299999999999  0.23448999999999998  0.7851300000000001  1.0000
  H   H1        1.0  0.04608999999999999  0.78062  0.09884  1.0000
  H   H2        1.0  0.30688000000000004  0.77333  0.08958000000000002  1.0000
  H   H3        1.0  0.09214999999999998  0.77529  0.33513  1.0000
  H   H4        1.0  0.38786000000000004  0.90765  0.2451  1.0000
  H   H5        1.0  0.24883999999999992  0.6584300000000002  0.3701600000000001  1.0000
  H   H6        1.0  0.22169999999999992  0.69833  0.5569100000000002  1.0000
  H   H7        1.0  0.17704999999999999  0.55672  0.60877  1.0000
  H   H8        1.0  0.17874000000000012  0.61809  0.49775  1.0000
  H   H9        1.0  0.33282999999999996  0.51194  0.44483  1.0000
  H   H10       1.0  0.24829999999999994  0.45538000000000006  0.50713  1.0000
  H   H11       1.0  0.3262199999999999  0.44856  0.5577  1.0000
  H   H12       1.0  0.36738999999999994  0.5266000000000001  0.61358  1.0000
  H   H13       1.0  0.26385  0.56924  0.68803  1.0000
  H   H14       1.0  0.3438899999999999  0.63207  0.6305  1.0000
  H   H15       1.0  0.4065  0.95467  0.09019  1.0000
  H   H16       1.0  0.3527600000000001  0.05906999999999998  0.95725  1.0000
  H   H17       1.0  0.3611399999999999  0.9465500000000003  0.97321  1.0000
  H   H18       1.0  0.2195400000000001  0.03653999999999996  0.93708  1.0000
  H   H19       1.0  0.18627999999999997  0.09518000000000003  0.01626  1.0000
  H   H20       1.0  0.19118999999999997  0.9796800000000002  0.05272  1.0000
  H   H21       1.0  0.21365000000000003  0.07042  0.15097  1.0000
  H   H22       1.0  0.3086499999999999  0.11305000000000004  0.09607000000000003  1.0000
  H   H23       1.0  0.29812  0.035629999999999995  0.20466  1.0000
  H   H24       1.0  0.52566  0.82896  0.30535  1.0000
  H   H25       1.0  0.5143699999999995  0.83749  0.56081  1.0000
  H   H26       1.0  0.2934899999999999  0.7939300000000001  0.53126  1.0000
  H   H27       1.0  0.10194999999999999  0.05097000000000002  0.77622  1.0000
  H   H28       1.0  0.09490999999999987  0.30947000000000024  0.77257  1.0000
  H   H29       1.0  0.33892999999999995  0.09333000000000001  0.7734700000000001  1.0000
  H   H30       1.0  0.24972999999999998  0.38876000000000005  0.90709  1.0000
  H   H31       1.0  0.37350000000000005  0.25231  0.65608  1.0000
  H   H32       1.0  0.5609499999999998  0.22478999999999993  0.6962300000000002  1.0000
  H   H33       1.0  0.6114999999999999  0.18113999999999997  0.5538  1.0000
  H   H34       1.0  0.5010800000000001  0.18146000000000007  0.61727  1.0000
  H   H35       1.0  0.44512  0.33496  0.51258  1.0000
  H   H36       1.0  0.50791  0.25164  0.45482  1.0000
  H   H37       1.0  0.5571499999999999  0.33090000000000014  0.44752  1.0000
  H   H38       1.0  0.6179200000000001  0.36976  0.52337  1.0000
  H   H39       1.0  0.6915300000000001  0.26640999999999987  0.5672200000000002  1.0000
  H   H40       1.0  0.6346099999999999  0.3472600000000002  0.6287  1.0000
  H   H41       1.0  0.09608000000000003  0.40654999999999997  0.95039  1.0000
  H   H42       1.0  0.9612500000000002  0.35499  0.05558  1.0000
  H   H43       1.0  0.97894  0.36149999999999993  0.9432  1.0000
  H   H44       1.0  0.94009  0.22105000000000005  0.03653  1.0000
  H   H45       1.0  0.020509999999999983  0.18775  0.09375000000000001  1.0000
  H   H46       1.0  0.05537999999999993  0.1920700000000001  0.97852  1.0000
  H   H47       1.0  0.15288  0.21713000000000005  0.07378000000000003  1.0000
  H   H48       1.0  0.09619  0.3140500000000001  0.11277  1.0000
  H   H49       1.0  0.20595999999999998  0.3025400000000001  0.03741  1.0000
  H   H50       1.0  0.30879  0.52894  0.82477  1.0000
  H   H51       1.0  0.56433  0.5194700000000002  0.8323  1.0000
  H   H52       1.0  0.5345900000000001  0.29667999999999994  0.79283  1.0000
  H   H53       1.0  0.7782899999999999  0.10419000000000002  0.04657  1.0000
  H   H54       1.0  0.77346  0.09502999999999999  0.30657000000000006  1.0000
  H   H55       1.0  0.77595  0.33959999999999996  0.09147  1.0000
  H   H56       1.0  0.9086999999999998  0.25213  0.38527  1.0000
  H   H57       1.0  0.65654  0.37311  0.25079  1.0000
  H   H58       1.0  0.6952800000000001  0.56149  0.22418  1.0000
  H   H59       1.0  0.55398  0.61198  0.17945  1.0000
  H   H60       1.0  0.6167899999999997  0.50142  0.18009000000000006  1.0000
  H   H61       1.0  0.5106  0.4464600000000002  0.33338  1.0000
  H   H62       1.0  0.45423  0.50878  0.2489  1.0000
  H   H63       1.0  0.44597  0.55874  0.32791  1.0000
  H   H64       1.0  0.52235  0.6157800000000002  0.37053  1.0000
  H   H65       1.0  0.5650399999999998  0.6908000000000002  0.26774  1.0000
  H   H66       1.0  0.62741  0.6332200000000001  0.34794  1.0000
  H   H67       1.0  0.95175  0.09787  0.40576  1.0000
  H   H68       1.0  0.055539999999999985  0.9619900000000001  0.35625  1.0000
  H   H69       1.0  0.9429499999999998  0.9798000000000001  0.36339  1.0000
  H   H70       1.0  0.03466999999999995  0.9386000000000002  0.22444  1.0000
  H   H71       1.0  0.09411  0.017680000000000005  0.1889  1.0000
  H   H72       1.0  0.97881  0.05410999999999999  0.19304  1.0000
  H   H73       1.0  0.07457  0.15196  0.21522000000000005  1.0000
  H   H74       1.0  0.11349999999999999  0.09741999999999998  0.3124900000000001  1.0000
  H   H75       1.0  0.03869999999999998  0.20741000000000004  0.29848  1.0000
  H   H76       1.0  0.8280900000000001  0.30993  0.52529  1.0000
  H   H77       1.0  0.83432  0.56579  0.51546  1.0000
  H   H78       1.0  0.7913100000000001  0.53648  0.29447  1.0000
  C   C1        1.0  0.96134  0.7921000000000001  0.26705  1.0000
  C   C2        1.0  0.05980999999999994  0.77689  0.22266000000000002  1.0000
  C   C3        1.0  0.09155999999999997  0.77649  0.13249  1.0000
  C   C4        1.0  0.18101000000000003  0.77418  0.08532000000000002  1.0000
  C   C5        1.0  0.23835000000000003  0.77263  0.12826  1.0000
  C   C6        1.0  0.20786  0.7721600000000002  0.21854000000000007  1.0000
  C   C7        1.0  0.11822999999999985  0.7729800000000002  0.26573  1.0000
  C   C8        1.0  0.21645999999999993  0.7788000000000005  0.98787  1.0000
  C   C9        1.0  0.26619  0.77657  0.26285  1.0000
  C   C10       1.0  0.30954999999999994  0.84548  0.22493  1.0000
  C   C11       1.0  0.3573099999999999  0.8530600000000003  0.2722  1.0000
  C   C12       1.0  0.36263999999999996  0.7938200000000002  0.35742  1.0000
  C   C13       1.0  0.3245000000000001  0.72162  0.39237000000000005  1.0000
  C   C14       1.0  0.27674999999999994  0.7146400000000002  0.34468  1.0000
  C   C15       1.0  0.2707099999999999  0.6341900000000003  0.54803  1.0000
  C   C16       1.0  0.22263  0.57671  0.54167  1.0000
  C   C17       1.0  0.28592  0.4935300000000002  0.51115  1.0000
  C   C18       1.0  0.3142900000000001  0.58786  0.62448  1.0000
  C   C19       1.0  0.3345600000000002  0.97755  0.0947  1.0000
  C   C20       1.0  0.32262  0.0039000000000000003  0.00116  1.0000
  C   C21       1.0  0.22432  0.030340000000000006  0.00226  1.0000
  C   C22       1.0  0.28614999999999996  0.05316000000000003  0.13971  1.0000
  C   C23       1.0  0.3517499999999999  0.80883  0.65227  1.0000
  C   C24       1.0  0.62136  0.8463900000000002  0.3895400000000001  1.0000
  C   C25       1.0  0.40479000000000004  0.80849  0.41113  1.0000
  C   C26       1.0  0.4884599999999998  0.8261000000000002  0.37501  1.0000
  C   C27       1.0  0.5282199999999999  0.8365  0.42866  1.0000
  C   C28       1.0  0.48313999999999985  0.8311600000000005  0.51888  1.0000
  C   C29       1.0  0.3979399999999999  0.8163500000000002  0.55524  1.0000
  C   C30       1.0  0.35946000000000006  0.80527  0.50169  1.0000
  C   C31       1.0  0.2696800000000001  0.9649700000000001  0.78752  1.0000
  C   C32       1.0  0.22601000000000004  0.06318999999999998  0.77324  1.0000
  C   C33       1.0  0.13586999999999996  0.09581000000000002  0.77285  1.0000
  C   C34       1.0  0.08932999999999998  0.18508000000000002  0.77132  1.0000
  C   C35       1.0  0.13295000000000015  0.24111999999999997  0.77104  1.0000
  C   C36       1.0  0.22326  0.20968  0.77066  1.0000
  C   C37       1.0  0.26975  0.12037  0.77053  1.0000
  C   C38       1.0  0.9920200000000002  0.22108999999999998  0.77525  1.0000
  C   C39       1.0  0.26786  0.26731000000000005  0.77571  1.0000
  C   C40       1.0  0.2303499999999999  0.30910999999999994  0.8456800000000002  1.0000
  C   C41       1.0  0.27670999999999996  0.35824999999999996  0.85249  1.0000
  C   C42       1.0  0.36123000000000005  0.36497  0.79225  1.0000
  C   C43       1.0  0.39631999999999995  0.32717999999999997  0.71983  1.0000
  C   C44       1.0  0.34881  0.27929  0.7128  1.0000
  C   C45       1.0  0.5515900000000001  0.27381  0.63214  1.0000
  C   C46       1.0  0.5443499999999998  0.22593000000000008  0.57508  1.0000
  C   C47       1.0  0.51186  0.2892900000000001  0.49294  1.0000
  C   C48       1.0  0.62822  0.31719  0.58515  1.0000
  C   C49       1.0  0.09935999999999996  0.33486000000000005  0.97653  1.0000
  C   C50       1.0  0.005720000000000003  0.32366  0.00143  1.0000
  C   C51       1.0  0.005769999999999997  0.22559  0.02915  1.0000
  C   C52       1.0  0.14146999999999996  0.2897900000000001  0.054320000000000014  1.0000
  C   C53       1.0  0.6557700000000001  0.35615  0.80506  1.0000
  C   C54       1.0  0.39283  0.62611  0.84091  1.0000
  C   C55       1.0  0.4146  0.40806000000000014  0.80608  1.0000
  C   C56       1.0  0.37838999999999984  0.49215000000000003  0.8224800000000002  1.0000
  C   C57       1.0  0.4319600000000002  0.53258  0.83217  1.0000
  C   C58       1.0  0.5222599999999997  0.48779000000000017  0.82682  1.0000
  C   C59       1.0  0.5586200000000001  0.40221  0.81308  1.0000
  C   C60       1.0  0.5050799999999999  0.36306  0.80298  1.0000
  C   C61       1.0  0.7910399999999999  0.2714699999999999  0.9613200000000002  1.0000
  C   C62       1.0  0.77619  0.22737  0.05969  1.0000
  C   C63       1.0  0.77501  0.13746000000000003  0.09187  1.0000
  C   C64       1.0  0.7728600000000002  0.09018000000000001  0.18124  1.0000
  C   C65       1.0  0.77232  0.13312  0.23803000000000005  1.0000
  C   C66       1.0  0.77227  0.22326000000000001  0.20721  1.0000
  C   C67       1.0  0.77305  0.27042  0.11767000000000002  1.0000
  C   C68       1.0  0.77639  0.9929200000000001  0.21699  1.0000
  C   C69       1.0  0.7766  0.26771  0.26551  1.0000
  C   C70       1.0  0.84646  0.2309100000000001  0.30745  1.0000
  C   C71       1.0  0.85349  0.27802000000000004  0.35573  1.0000
  C   C72       1.0  0.79287  0.36227000000000004  0.3625  1.0000
  C   C73       1.0  0.7200700000000001  0.3962899999999999  0.3253800000000001  1.0000
  C   C74       1.0  0.7134699999999999  0.3485  0.27752  1.0000
  C   C75       1.0  0.6312499999999999  0.5514600000000002  0.27308  1.0000
  C   C76       1.0  0.5745699999999999  0.54477  0.22441  1.0000
  C   C77       1.0  0.4917499999999999  0.5129500000000002  0.28705  1.0000
  C   C78       1.0  0.58379  0.62707  0.31774  1.0000
  C   C79       1.0  0.9772199999999998  0.10027999999999998  0.33425000000000005  1.0000
  C   C80       1.0  0.0014599999999999817  0.006130000000000005  0.32476  1.0000
  C   C81       1.0  0.028859999999999997  0.004429999999999995  0.22725  1.0000
  C   C82       1.0  0.05526000000000002  0.14214  0.28765  1.0000
  C   C83       1.0  0.8046799999999998  0.65736  0.35272  1.0000
  C   C84       1.0  0.8448699999999998  0.39400999999999997  0.6216200000000001  1.0000
  C   C85       1.0  0.8068600000000001  0.41596000000000005  0.4051  1.0000
  C   C86       1.0  0.8246599999999998  0.37973000000000007  0.4886  1.0000
  C   C87       1.0  0.83463  0.43333000000000005  0.5287  1.0000
  C   C88       1.0  0.8282899999999999  0.52378  0.48417  1.0000
  C   C89       1.0  0.81297  0.5602800000000002  0.39926  1.0000
  C   C90       1.0  0.80242  0.5067300000000001  0.36048000000000013  1.0000
  O   O1        1.0  0.9157199999999998  0.7934900000000003  0.22098  1.0000
  O   O2        1.0  0.92828  0.80571  0.34502  1.0000
  O   O3        1.0  0.16472  0.78066  0.94727  1.0000
  O   O4        1.0  0.2978099999999999  0.7818500000000003  0.9510100000000002  1.0000
  O   O5        1.0  0.34417  0.65523  0.46757  1.0000
  O   O6        1.0  0.2977099999999999  0.9012300000000002  0.14376  1.0000
  O   O7        1.0  0.27220999999999984  0.7984800000000001  0.6861600000000002  1.0000
  O   O8        1.0  0.3968899999999999  0.81227  0.69589  1.0000
  O   O9        1.0  0.6612600000000001  0.8461100000000003  0.44109  1.0000
  O   O10       1.0  0.6560699999999999  0.8525899999999998  0.30582000000000004  1.0000
  O   O11       1.0  0.2224599999999999  0.91969  0.7904700000000002  1.0000
  O   O12       1.0  0.34850999999999993  0.9315500000000001  0.79927  1.0000
  O   O13       1.0  0.95129  0.16946  0.77714  1.0000
  O   O14       1.0  0.9554000000000001  0.30247  0.77775  1.0000
  O   O15       1.0  0.4713899999999999  0.34713  0.65344  1.0000
  O   O16       1.0  0.15105000000000002  0.29367999999999994  0.90354  1.0000
  O   O17       1.0  0.6896300000000001  0.27719  0.79368  1.0000
  O   O18       1.0  0.6994699999999998  0.4010699999999999  0.8088400000000001  1.0000
  O   O19       1.0  0.44412  0.66612  0.84113  1.0000
  O   O20       1.0  0.3095  0.66123  0.84545  1.0000
  O   O21       1.0  0.79151  0.22568000000000002  0.91595  1.0000
  O   O22       1.0  0.8052999999999999  0.34917000000000015  0.92798  1.0000
  O   O23       1.0  0.7774799999999997  0.9524000000000001  0.16568  1.0000
  O   O24       1.0  0.7790700000000002  0.9564200000000005  0.29845  1.0000
  O   O25       1.0  0.6527199999999999  0.4705800000000002  0.34588  1.0000
  O   O26       1.0  0.90398  0.15117  0.29336  1.0000
  O   O27       1.0  0.7937699999999999  0.6905400000000003  0.27353  1.0000
  O   O28       1.0  0.8079200000000002  0.70175  0.39716  1.0000
  O   O29       1.0  0.84534  0.44522999999999996  0.66145  1.0000
  O   O30       1.0  0.8502400000000001  0.31052  0.65628  1.0000
